REMARK  1 active torsions:
REMARK  status: ('A' for Active; 'I' for Inactive)
REMARK    1  A    between atoms: O_1  and  C_2 
ROOT
HETATM    1  C   LIG     1       1.983   0.672  -0.199  1.00  0.00     0.147 C 
HETATM    2  C   LIG     1       2.430  -0.707   0.302  1.00  0.00     0.001 C 
HETATM    3  C   LIG     1       1.397  -1.584   0.365  1.00  0.00    -0.021 C 
HETATM    4  C   LIG     1       0.288  -0.942  -0.378  1.00  0.00     0.049 C 
HETATM    5  C   LIG     1       0.488   0.504   0.042  1.00  0.00     0.060 C 
HETATM    6  C   LIG     1      -0.871   1.161  -0.385  1.00  0.00     0.120 C 
HETATM    7  C   LIG     1      -1.801   0.796   0.766  1.00  0.00     0.059 C 
HETATM    8 CL   LIG     1      -2.516   1.893   1.941  1.00  0.00    -0.085 Cl
HETATM    9  C   LIG     1      -1.952  -0.542   0.737  1.00  0.00     0.059 C 
HETATM   10  C   LIG     1      -1.252  -1.037  -0.519  1.00  0.00     0.121 C 
HETATM   11  C   LIG     1      -1.480   0.208  -1.429  1.00  0.00     0.167 C 
HETATM   12 CL   LIG     1      -0.639   0.259  -3.026  1.00  0.00    -0.097 Cl
HETATM   13 CL   LIG     1      -3.224   0.526  -1.799  1.00  0.00    -0.097 Cl
HETATM   14 CL   LIG     1      -1.850  -2.583  -1.185  1.00  0.00    -0.109 Cl
HETATM   15 CL   LIG     1      -2.970  -1.484   1.817  1.00  0.00    -0.085 Cl
HETATM   16 CL   LIG     1      -0.801   2.893  -0.808  1.00  0.00    -0.109 Cl
ENDROOT
BRANCH   1  17
HETATM   17  O   LIG     1       2.289   0.830  -1.558  1.00  0.00    -0.391 OA
HETATM   18  H   LIG     1       2.030   1.759  -1.792  1.00  0.00     0.210 HD
ENDBRANCH   1  17
TORSDOF 1
