REMARK  11 active torsions:
REMARK  status: ('A' for Active; 'I' for Inactive)
REMARK    1  A    between atoms: C_3  and  O_4 
REMARK    2  A    between atoms: O_4  and  C_5 
REMARK    3  A    between atoms: C_5  and  C_6 
REMARK    4  A    between atoms: C_6  and  C_7 
REMARK    5  A    between atoms: C_11  and  C_12 
REMARK    6  A    between atoms: C_12  and  O_14 
REMARK    7  A    between atoms: O_14  and  C_15 
REMARK    8  A    between atoms: C_15  and  C_16 
REMARK    9  A    between atoms: C_16  and  N_17 
REMARK   10  A    between atoms: N_17  and  C_18 
REMARK   11  A    between atoms: N_17  and  C_20 
ROOT
HETATM    1  C   LIG     1       0.901  -1.333   1.086  1.00  0.00     0.020 A 
HETATM    2  C   LIG     1       2.290  -1.439   1.186  1.00  0.00     0.038 A 
HETATM    3  C   LIG     1       3.123  -0.860   0.220  1.00  0.00     0.068 A 
HETATM    4  C   LIG     1       2.545  -0.142  -0.843  1.00  0.00     0.038 A 
HETATM    5  C   LIG     1       1.154  -0.052  -0.953  1.00  0.00     0.020 A 
HETATM    6  C   LIG     1       0.318  -0.655   0.006  1.00  0.00     0.039 A 
ENDROOT
BRANCH   6   7
HETATM    7  C   LIG     1      -1.153  -0.581  -0.124  1.00  0.00     0.293 C 
HETATM    8  O   LIG     1      -1.673  -0.153  -1.189  1.00  0.00    -0.259 OA
BRANCH   7   9
HETATM    9  O   LIG     1      -1.967  -1.000   0.932  1.00  0.00    -0.316 OA
BRANCH   9  10
HETATM   10  C   LIG     1      -3.393  -0.974   0.889  1.00  0.00     0.209 C 
BRANCH  10  11
HETATM   11  C   LIG     1      -3.918   0.460   0.991  1.00  0.00     0.299 C 
BRANCH  11  12
HETATM   12  N   LIG     1      -5.401   0.447   1.014  1.00  0.00     0.089 N 
BRANCH  12  13
HETATM   13  C   LIG     1      -6.016   0.977  -0.223  1.00  0.00     0.268 C 
HETATM   14  C   LIG     1      -5.854  -0.006  -1.380  1.00  0.00     0.037 C 
ENDBRANCH  12  13
BRANCH  12  15
HETATM   15  C   LIG     1      -5.963   1.067   2.236  1.00  0.00     0.268 C 
HETATM   16  C   LIG     1      -5.799   2.594   2.287  1.00  0.00     0.037 C 
ENDBRANCH  12  15
ENDBRANCH  11  12
ENDBRANCH  10  11
ENDBRANCH   9  10
ENDBRANCH   7   9
ENDBRANCH   6   7
BRANCH   3  17
HETATM   17  O   LIG     1       4.509  -1.030   0.350  1.00  0.00    -0.351 OA
BRANCH  17  18
HETATM   18  C   LIG     1       5.476  -0.473  -0.533  1.00  0.00     0.175 C 
BRANCH  18  19
HETATM   19  C   LIG     1       6.870  -0.970  -0.129  1.00  0.00     0.026 C 
BRANCH  19  20
HETATM   20  C   LIG     1       8.003  -0.206  -0.824  1.00  0.00    -0.002 C 
HETATM   21  C   LIG     1       7.995  -0.380  -2.339  1.00  0.00     0.005 C 
ENDBRANCH  19  20
ENDBRANCH  18  19
ENDBRANCH  17  18
ENDBRANCH   3  17
TORSDOF 11
