REMARK  0 active torsions:
REMARK  status: ('A' for Active; 'I' for Inactive)
ROOT
HETATM    1  N   LIG     1       3.664  -0.057   0.033  1.00  0.00    -0.191 NA
HETATM    2  C   LIG     1       2.507  -0.039   0.022  1.00  0.00     0.099 C 
HETATM    3  C   LIG     1       1.068  -0.017   0.009  1.00  0.00     0.044 A 
HETATM    4  C   LIG     1       0.346  -1.218  -0.004  1.00  0.00     0.022 A 
HETATM    5  C   LIG     1      -1.052  -1.195  -0.016  1.00  0.00     0.002 A 
HETATM    6  C   LIG     1      -1.732   0.027  -0.015  1.00  0.00     0.000 A 
HETATM    7  C   LIG     1      -1.015   1.227  -0.002  1.00  0.00     0.002 A 
HETATM    8  C   LIG     1       0.384   1.207   0.010  1.00  0.00     0.022 A 
ENDROOT
TORSDOF 0
