REMARK  2 active torsions:
REMARK  status: ('A' for Active; 'I' for Inactive)
REMARK    1  A    between atoms: N_1  and  C_2 
REMARK    2  A    between atoms: C_2  and  C_3 
ROOT
HETATM    1  C   LIG     1      -0.397   0.041  -0.280  1.00  0.00    -0.031 A 
HETATM    2  C   LIG     1       0.158  -1.224  -0.543  1.00  0.00     0.009 A 
HETATM    3  C   LIG     1       1.529  -1.440  -0.377  1.00  0.00     0.001 A 
HETATM    4  C   LIG     1       2.357  -0.398   0.050  1.00  0.00     0.000 A 
HETATM    5  C   LIG     1       1.814   0.864   0.309  1.00  0.00     0.001 A 
HETATM    6  C   LIG     1       0.443   1.084   0.143  1.00  0.00     0.009 A 
ENDROOT
BRANCH   1   7
HETATM    7  C   LIG     1      -1.876   0.281  -0.463  1.00  0.00     0.305 C 
BRANCH   7   8
HETATM    8  N   LIG     1      -2.544   0.485   0.821  1.00  0.00     0.082 N 
HETATM    9  H   LIG     1      -2.149   1.336   1.283  1.00  0.00     0.313 HD
HETATM   10  H   LIG     1      -2.344  -0.336   1.439  1.00  0.00     0.313 HD
ENDBRANCH   7   8
ENDBRANCH   1   7
TORSDOF 2
