MODEL 1
REMARK VINA RESULT:      -6.3      0.000      0.000
REMARK  1 active torsions:
REMARK  status: ('A' for Active; 'I' for Inactive)
REMARK    1  A    between atoms: C_2  and  C_3 
ROOT
HETATM    1  C   LIG     1      17.250  36.233  24.185  1.00  0.00    -0.059 A 
HETATM    2  C   LIG     1      17.338  34.970  24.793  1.00  0.00     0.007 A 
HETATM    3  C   LIG     1      17.863  34.844  26.084  1.00  0.00     0.001 A 
HETATM    4  C   LIG     1      18.307  35.976  26.773  1.00  0.00     0.000 A 
HETATM    5  C   LIG     1      18.228  37.235  26.173  1.00  0.00     0.001 A 
HETATM    6  C   LIG     1      17.703  37.367  24.883  1.00  0.00     0.007 A 
ENDROOT
BRANCH   1   7
HETATM    7  C   LIG     1      16.691  36.375  22.792  1.00  0.00     0.034 C 
HETATM    8  C   LIG     1      16.965  35.128  21.958  1.00  0.00     0.010 C 
ENDBRANCH   1   7
TORSDOF 1
ENDMDL
MODEL 2
REMARK VINA RESULT:      -6.2      0.870      2.092
REMARK  1 active torsions:
REMARK  status: ('A' for Active; 'I' for Inactive)
REMARK    1  A    between atoms: C_2  and  C_3 
ROOT
HETATM    1  C   LIG     1      17.242  36.605  24.190  1.00  0.00    -0.059 A 
HETATM    2  C   LIG     1      17.858  37.506  25.075  1.00  0.00     0.007 A 
HETATM    3  C   LIG     1      18.396  37.049  26.283  1.00  0.00     0.001 A 
HETATM    4  C   LIG     1      18.321  35.694  26.616  1.00  0.00     0.000 A 
HETATM    5  C   LIG     1      17.705  34.793  25.744  1.00  0.00     0.001 A 
HETATM    6  C   LIG     1      17.166  35.244  24.535  1.00  0.00     0.007 A 
ENDROOT
BRANCH   1   7
HETATM    7  C   LIG     1      16.655  37.091  22.889  1.00  0.00     0.034 C 
HETATM    8  C   LIG     1      17.323  38.383  22.431  1.00  0.00     0.010 C 
ENDBRANCH   1   7
TORSDOF 1
ENDMDL
MODEL 3
REMARK VINA RESULT:      -6.0      3.138      5.170
REMARK  1 active torsions:
REMARK  status: ('A' for Active; 'I' for Inactive)
REMARK    1  A    between atoms: C_2  and  C_3 
ROOT
HETATM    1  C   LIG     1      17.662  37.386  21.289  1.00  0.00    -0.059 A 
HETATM    2  C   LIG     1      18.012  38.726  21.524  1.00  0.00     0.007 A 
HETATM    3  C   LIG     1      18.969  39.356  20.721  1.00  0.00     0.001 A 
HETATM    4  C   LIG     1      19.584  38.654  19.682  1.00  0.00     0.000 A 
HETATM    5  C   LIG     1      19.247  37.319  19.444  1.00  0.00     0.001 A 
HETATM    6  C   LIG     1      18.290  36.684  20.244  1.00  0.00     0.007 A 
ENDROOT
BRANCH   1   7
HETATM    7  C   LIG     1      16.637  36.699  22.153  1.00  0.00     0.034 C 
HETATM    8  C   LIG     1      16.933  35.208  22.283  1.00  0.00     0.010 C 
ENDBRANCH   1   7
TORSDOF 1
ENDMDL
MODEL 4
REMARK VINA RESULT:      -5.9      3.133      4.932
REMARK  1 active torsions:
REMARK  status: ('A' for Active; 'I' for Inactive)
REMARK    1  A    between atoms: C_2  and  C_3 
ROOT
HETATM    1  C   LIG     1      17.659  37.398  21.312  1.00  0.00    -0.059 A 
HETATM    2  C   LIG     1      18.279  36.680  20.275  1.00  0.00     0.007 A 
HETATM    3  C   LIG     1      19.220  37.305  19.450  1.00  0.00     0.001 A 
HETATM    4  C   LIG     1      19.545  38.650  19.651  1.00  0.00     0.000 A 
HETATM    5  C   LIG     1      18.929  39.372  20.676  1.00  0.00     0.001 A 
HETATM    6  C   LIG     1      17.989  38.751  21.505  1.00  0.00     0.007 A 
ENDROOT
BRANCH   1   7
HETATM    7  C   LIG     1      16.641  36.732  22.201  1.00  0.00     0.034 C 
HETATM    8  C   LIG     1      16.907  35.234  22.320  1.00  0.00     0.010 C 
ENDBRANCH   1   7
TORSDOF 1
ENDMDL
MODEL 5
REMARK VINA RESULT:      -5.8      3.327      5.181
REMARK  1 active torsions:
REMARK  status: ('A' for Active; 'I' for Inactive)
REMARK    1  A    between atoms: C_2  and  C_3 
ROOT
HETATM    1  C   LIG     1      17.845  38.493  21.567  1.00  0.00    -0.059 A 
HETATM    2  C   LIG     1      17.737  37.191  21.048  1.00  0.00     0.007 A 
HETATM    3  C   LIG     1      18.555  36.785  19.989  1.00  0.00     0.001 A 
HETATM    4  C   LIG     1      19.482  37.673  19.438  1.00  0.00     0.000 A 
HETATM    5  C   LIG     1      19.593  38.971  19.945  1.00  0.00     0.001 A 
HETATM    6  C   LIG     1      18.778  39.382  21.005  1.00  0.00     0.007 A 
ENDROOT
BRANCH   1   7
HETATM    7  C   LIG     1      16.963  38.939  22.705  1.00  0.00     0.034 C 
HETATM    8  C   LIG     1      17.256  38.146  23.975  1.00  0.00     0.010 C 
ENDBRANCH   1   7
TORSDOF 1
ENDMDL
MODEL 6
REMARK VINA RESULT:      -5.7      3.299      4.469
REMARK  1 active torsions:
REMARK  status: ('A' for Active; 'I' for Inactive)
REMARK    1  A    between atoms: C_2  and  C_3 
ROOT
HETATM    1  C   LIG     1      18.317  37.529  20.595  1.00  0.00    -0.059 A 
HETATM    2  C   LIG     1      17.540  36.402  20.915  1.00  0.00     0.007 A 
HETATM    3  C   LIG     1      16.581  36.475  21.930  1.00  0.00     0.001 A 
HETATM    4  C   LIG     1      16.393  37.667  22.634  1.00  0.00     0.000 A 
HETATM    5  C   LIG     1      17.165  38.790  22.326  1.00  0.00     0.001 A 
HETATM    6  C   LIG     1      18.126  38.724  21.311  1.00  0.00     0.007 A 
ENDROOT
BRANCH   1   7
HETATM    7  C   LIG     1      19.356  37.457  19.505  1.00  0.00     0.034 C 
HETATM    8  C   LIG     1      20.240  38.701  19.502  1.00  0.00     0.010 C 
ENDBRANCH   1   7
TORSDOF 1
ENDMDL
MODEL 7
REMARK VINA RESULT:      -5.7      3.282      4.773
REMARK  1 active torsions:
REMARK  status: ('A' for Active; 'I' for Inactive)
REMARK    1  A    between atoms: C_2  and  C_3 
ROOT
HETATM    1  C   LIG     1      18.323  37.503  20.593  1.00  0.00    -0.059 A 
HETATM    2  C   LIG     1      18.110  38.690  21.315  1.00  0.00     0.007 A 
HETATM    3  C   LIG     1      17.150  38.732  22.332  1.00  0.00     0.001 A 
HETATM    4  C   LIG     1      16.396  37.595  22.632  1.00  0.00     0.000 A 
HETATM    5  C   LIG     1      16.598  36.413  21.916  1.00  0.00     0.001 A 
HETATM    6  C   LIG     1      17.557  36.364  20.898  1.00  0.00     0.007 A 
ENDROOT
BRANCH   1   7
HETATM    7  C   LIG     1      19.352  37.452  19.493  1.00  0.00     0.034 C 
HETATM    8  C   LIG     1      20.235  38.696  19.504  1.00  0.00     0.010 C 
ENDBRANCH   1   7
TORSDOF 1
ENDMDL
MODEL 8
REMARK VINA RESULT:      -5.7      1.063      3.897
REMARK  1 active torsions:
REMARK  status: ('A' for Active; 'I' for Inactive)
REMARK    1  A    between atoms: C_2  and  C_3 
ROOT
HETATM    1  C   LIG     1      17.327  37.033  24.288  1.00  0.00    -0.059 A 
HETATM    2  C   LIG     1      17.353  37.926  23.204  1.00  0.00     0.007 A 
HETATM    3  C   LIG     1      17.178  37.454  21.898  1.00  0.00     0.001 A 
HETATM    4  C   LIG     1      16.981  36.090  21.667  1.00  0.00     0.000 A 
HETATM    5  C   LIG     1      16.959  35.195  22.739  1.00  0.00     0.001 A 
HETATM    6  C   LIG     1      17.132  35.661  24.046  1.00  0.00     0.007 A 
ENDROOT
BRANCH   1   7
HETATM    7  C   LIG     1      17.520  37.534  25.697  1.00  0.00     0.034 C 
HETATM    8  C   LIG     1      18.468  36.630  26.479  1.00  0.00     0.010 C 
ENDBRANCH   1   7
TORSDOF 1
ENDMDL
MODEL 9
REMARK VINA RESULT:      -5.6      0.981      2.246
REMARK  1 active torsions:
REMARK  status: ('A' for Active; 'I' for Inactive)
REMARK    1  A    between atoms: C_2  and  C_3 
ROOT
HETATM    1  C   LIG     1      16.939  35.791  23.069  1.00  0.00    -0.059 A 
HETATM    2  C   LIG     1      17.002  37.189  23.195  1.00  0.00     0.007 A 
HETATM    3  C   LIG     1      17.339  37.771  24.423  1.00  0.00     0.001 A 
HETATM    4  C   LIG     1      17.609  36.963  25.530  1.00  0.00     0.000 A 
HETATM    5  C   LIG     1      17.543  35.573  25.415  1.00  0.00     0.001 A 
HETATM    6  C   LIG     1      17.208  34.986  24.190  1.00  0.00     0.007 A 
ENDROOT
BRANCH   1   7
HETATM    7  C   LIG     1      16.572  35.158  21.751  1.00  0.00     0.034 C 
HETATM    8  C   LIG     1      15.208  35.641  21.267  1.00  0.00     0.010 C 
ENDBRANCH   1   7
TORSDOF 1
ENDMDL
MODEL 10
REMARK VINA RESULT:      -5.4      2.872      4.421
REMARK  1 active torsions:
REMARK  status: ('A' for Active; 'I' for Inactive)
REMARK    1  A    between atoms: C_2  and  C_3 
ROOT
HETATM    1  C   LIG     1      18.146  38.274  21.419  1.00  0.00    -0.059 A 
HETATM    2  C   LIG     1      17.633  38.296  22.727  1.00  0.00     0.007 A 
HETATM    3  C   LIG     1      16.952  37.185  23.235  1.00  0.00     0.001 A 
HETATM    4  C   LIG     1      16.776  36.048  22.441  1.00  0.00     0.000 A 
HETATM    5  C   LIG     1      17.279  36.020  21.138  1.00  0.00     0.001 A 
HETATM    6  C   LIG     1      17.961  37.128  20.626  1.00  0.00     0.007 A 
ENDROOT
BRANCH   1   7
HETATM    7  C   LIG     1      18.876  39.470  20.863  1.00  0.00     0.034 C 
HETATM    8  C   LIG     1      20.081  39.044  20.030  1.00  0.00     0.010 C 
ENDBRANCH   1   7
TORSDOF 1
ENDMDL
MODEL 11
REMARK VINA RESULT:      -5.3      9.533     11.346
REMARK  1 active torsions:
REMARK  status: ('A' for Active; 'I' for Inactive)
REMARK    1  A    between atoms: C_2  and  C_3 
ROOT
HETATM    1  C   LIG     1      14.722  30.711  14.795  1.00  0.00    -0.059 A 
HETATM    2  C   LIG     1      15.411  31.771  15.409  1.00  0.00     0.007 A 
HETATM    3  C   LIG     1      14.853  32.428  16.511  1.00  0.00     0.001 A 
HETATM    4  C   LIG     1      13.606  32.036  17.004  1.00  0.00     0.000 A 
HETATM    5  C   LIG     1      12.912  30.987  16.396  1.00  0.00     0.001 A 
HETATM    6  C   LIG     1      13.466  30.325  15.294  1.00  0.00     0.007 A 
ENDROOT
BRANCH   1   7
HETATM    7  C   LIG     1      15.315  30.002  13.604  1.00  0.00     0.034 C 
HETATM    8  C   LIG     1      15.256  28.487  13.778  1.00  0.00     0.010 C 
ENDBRANCH   1   7
TORSDOF 1
ENDMDL
MODEL 12
REMARK VINA RESULT:      -5.3      9.537     11.263
REMARK  1 active torsions:
REMARK  status: ('A' for Active; 'I' for Inactive)
REMARK    1  A    between atoms: C_2  and  C_3 
ROOT
HETATM    1  C   LIG     1      14.729  30.706  14.780  1.00  0.00    -0.059 A 
HETATM    2  C   LIG     1      13.473  30.321  15.279  1.00  0.00     0.007 A 
HETATM    3  C   LIG     1      12.921  30.981  16.382  1.00  0.00     0.001 A 
HETATM    4  C   LIG     1      13.618  32.026  16.995  1.00  0.00     0.000 A 
HETATM    5  C   LIG     1      14.869  32.411  16.508  1.00  0.00     0.001 A 
HETATM    6  C   LIG     1      15.426  31.755  15.406  1.00  0.00     0.007 A 
ENDROOT
BRANCH   1   7
HETATM    7  C   LIG     1      15.333  29.995  13.596  1.00  0.00     0.034 C 
HETATM    8  C   LIG     1      15.270  28.481  13.771  1.00  0.00     0.010 C 
ENDBRANCH   1   7
TORSDOF 1
ENDMDL
MODEL 13
REMARK VINA RESULT:      -5.1      7.646     10.805
REMARK  1 active torsions:
REMARK  status: ('A' for Active; 'I' for Inactive)
REMARK    1  A    between atoms: C_2  and  C_3 
ROOT
HETATM    1  C   LIG     1      14.718  31.953  16.322  1.00  0.00    -0.059 A 
HETATM    2  C   LIG     1      13.577  31.135  16.373  1.00  0.00     0.007 A 
HETATM    3  C   LIG     1      13.346  30.185  15.373  1.00  0.00     0.001 A 
HETATM    4  C   LIG     1      14.248  30.049  14.314  1.00  0.00     0.000 A 
HETATM    5  C   LIG     1      15.382  30.862  14.252  1.00  0.00     0.001 A 
HETATM    6  C   LIG     1      15.618  31.813  15.251  1.00  0.00     0.007 A 
ENDROOT
BRANCH   1   7
HETATM    7  C   LIG     1      14.971  32.982  17.394  1.00  0.00     0.034 C 
HETATM    8  C   LIG     1      15.095  32.330  18.767  1.00  0.00     0.010 C 
ENDBRANCH   1   7
TORSDOF 1
ENDMDL
MODEL 14
REMARK VINA RESULT:      -5.1      7.565     10.782
REMARK  1 active torsions:
REMARK  status: ('A' for Active; 'I' for Inactive)
REMARK    1  A    between atoms: C_2  and  C_3 
ROOT
HETATM    1  C   LIG     1      14.711  32.012  16.379  1.00  0.00    -0.059 A 
HETATM    2  C   LIG     1      15.608  31.826  15.313  1.00  0.00     0.007 A 
HETATM    3  C   LIG     1      15.344  30.867  14.329  1.00  0.00     0.001 A 
HETATM    4  C   LIG     1      14.188  30.086  14.404  1.00  0.00     0.000 A 
HETATM    5  C   LIG     1      13.293  30.261  15.463  1.00  0.00     0.001 A 
HETATM    6  C   LIG     1      13.552  31.218  16.449  1.00  0.00     0.007 A 
ENDROOT
BRANCH   1   7
HETATM    7  C   LIG     1      14.991  33.039  17.445  1.00  0.00     0.034 C 
HETATM    8  C   LIG     1      15.161  32.384  18.812  1.00  0.00     0.010 C 
ENDBRANCH   1   7
TORSDOF 1
ENDMDL
MODEL 15
REMARK VINA RESULT:      -5.0      9.472     10.772
REMARK  1 active torsions:
REMARK  status: ('A' for Active; 'I' for Inactive)
REMARK    1  A    between atoms: C_2  and  C_3 
ROOT
HETATM    1  C   LIG     1      15.593  32.052  15.409  1.00  0.00    -0.059 A 
HETATM    2  C   LIG     1      15.099  30.946  14.698  1.00  0.00     0.007 A 
HETATM    3  C   LIG     1      13.910  30.326  15.098  1.00  0.00     0.001 A 
HETATM    4  C   LIG     1      13.211  30.802  16.210  1.00  0.00     0.000 A 
HETATM    5  C   LIG     1      13.698  31.898  16.925  1.00  0.00     0.001 A 
HETATM    6  C   LIG     1      14.886  32.523  16.530  1.00  0.00     0.007 A 
ENDROOT
BRANCH   1   7
HETATM    7  C   LIG     1      16.876  32.722  14.987  1.00  0.00     0.034 C 
HETATM    8  C   LIG     1      16.934  32.899  13.473  1.00  0.00     0.010 C 
ENDBRANCH   1   7
TORSDOF 1
ENDMDL
MODEL 16
REMARK VINA RESULT:      -4.7      1.756      4.104
REMARK  1 active torsions:
REMARK  status: ('A' for Active; 'I' for Inactive)
REMARK    1  A    between atoms: C_2  and  C_3 
ROOT
HETATM    1  C   LIG     1      16.501  36.966  22.893  1.00  0.00    -0.059 A 
HETATM    2  C   LIG     1      17.235  35.779  22.730  1.00  0.00     0.007 A 
HETATM    3  C   LIG     1      16.742  34.751  21.920  1.00  0.00     0.001 A 
HETATM    4  C   LIG     1      15.512  34.897  21.272  1.00  0.00     0.000 A 
HETATM    5  C   LIG     1      14.773  36.072  21.433  1.00  0.00     0.001 A 
HETATM    6  C   LIG     1      15.262  37.104  22.241  1.00  0.00     0.007 A 
ENDROOT
BRANCH   1   7
HETATM    7  C   LIG     1      17.024  38.076  23.768  1.00  0.00     0.034 C 
HETATM    8  C   LIG     1      17.321  37.573  25.177  1.00  0.00     0.010 C 
ENDBRANCH   1   7
TORSDOF 1
ENDMDL
MODEL 17
REMARK VINA RESULT:      -4.6      9.870     11.320
REMARK  1 active torsions:
REMARK  status: ('A' for Active; 'I' for Inactive)
REMARK    1  A    between atoms: C_2  and  C_3 
ROOT
HETATM    1  C   LIG     1      14.957  31.194  14.791  1.00  0.00    -0.059 A 
HETATM    2  C   LIG     1      15.573  31.269  13.530  1.00  0.00     0.007 A 
HETATM    3  C   LIG     1      16.595  32.196  13.299  1.00  0.00     0.001 A 
HETATM    4  C   LIG     1      17.006  33.055  14.322  1.00  0.00     0.000 A 
HETATM    5  C   LIG     1      16.395  32.991  15.576  1.00  0.00     0.001 A 
HETATM    6  C   LIG     1      15.373  32.066  15.813  1.00  0.00     0.007 A 
ENDROOT
BRANCH   1   7
HETATM    7  C   LIG     1      13.851  30.202  15.044  1.00  0.00     0.034 C 
HETATM    8  C   LIG     1      12.932  30.675  16.167  1.00  0.00     0.010 C 
ENDBRANCH   1   7
TORSDOF 1
ENDMDL
MODEL 18
REMARK VINA RESULT:      -4.6      9.841     11.347
REMARK  1 active torsions:
REMARK  status: ('A' for Active; 'I' for Inactive)
REMARK    1  A    between atoms: C_2  and  C_3 
ROOT
HETATM    1  C   LIG     1      14.959  31.232  14.780  1.00  0.00    -0.059 A 
HETATM    2  C   LIG     1      15.379  32.080  15.819  1.00  0.00     0.007 A 
HETATM    3  C   LIG     1      16.410  33.001  15.603  1.00  0.00     0.001 A 
HETATM    4  C   LIG     1      17.030  33.079  14.353  1.00  0.00     0.000 A 
HETATM    5  C   LIG     1      16.622  32.236  13.316  1.00  0.00     0.001 A 
HETATM    6  C   LIG     1      15.591  31.314  13.526  1.00  0.00     0.007 A 
ENDROOT
BRANCH   1   7
HETATM    7  C   LIG     1      13.853  30.234  15.007  1.00  0.00     0.034 C 
HETATM    8  C   LIG     1      12.948  30.665  16.157  1.00  0.00     0.010 C 
ENDBRANCH   1   7
TORSDOF 1
ENDMDL
MODEL 19
REMARK VINA RESULT:      -3.7     19.232     19.940
REMARK  1 active torsions:
REMARK  status: ('A' for Active; 'I' for Inactive)
REMARK    1  A    between atoms: C_2  and  C_3 
ROOT
HETATM    1  C   LIG     1      15.612  19.426  13.809  1.00  0.00    -0.059 A 
HETATM    2  C   LIG     1      14.301  18.923  13.749  1.00  0.00     0.007 A 
HETATM    3  C   LIG     1      13.674  18.452  14.908  1.00  0.00     0.001 A 
HETATM    4  C   LIG     1      14.350  18.476  16.130  1.00  0.00     0.000 A 
HETATM    5  C   LIG     1      15.655  18.970  16.198  1.00  0.00     0.001 A 
HETATM    6  C   LIG     1      16.287  19.443  15.043  1.00  0.00     0.007 A 
ENDROOT
BRANCH   1   7
HETATM    7  C   LIG     1      16.296  19.930  12.564  1.00  0.00     0.034 C 
HETATM    8  C   LIG     1      15.317  20.668  11.657  1.00  0.00     0.010 C 
ENDBRANCH   1   7
TORSDOF 1
ENDMDL
