MODEL 1
REMARK VINA RESULT:      -5.9      0.000      0.000
REMARK  1 active torsions:
REMARK  status: ('A' for Active; 'I' for Inactive)
REMARK    1  A    between atoms: N_2  and  N_3 
ROOT
HETATM    1  N   LIG     1      17.206  37.158  24.946  1.00  0.00    -0.281 N 
HETATM    2  C   LIG     1      17.122  35.856  24.285  1.00  0.00     0.147 C 
HETATM    3  C   LIG     1      17.200  34.727  25.316  1.00  0.00     0.022 C 
HETATM    4  C   LIG     1      18.420  34.904  26.227  1.00  0.00     0.003 C 
HETATM    5  C   LIG     1      18.382  36.270  26.921  1.00  0.00     0.022 C 
HETATM    6  C   LIG     1      18.299  37.405  25.895  1.00  0.00     0.147 C 
ENDROOT
BRANCH   1   7
HETATM    7  N   LIG     1      16.447  38.220  24.421  1.00  0.00    -0.017 NA
HETATM    8  O   LIG     1      15.429  38.017  23.727  1.00  0.00    -0.042 OA
ENDBRANCH   1   7
TORSDOF 1
ENDMDL
MODEL 2
REMARK VINA RESULT:      -5.3      1.750      2.473
REMARK  1 active torsions:
REMARK  status: ('A' for Active; 'I' for Inactive)
REMARK    1  A    between atoms: N_2  and  N_3 
ROOT
HETATM    1  N   LIG     1      17.228  36.040  24.226  1.00  0.00    -0.281 N 
HETATM    2  C   LIG     1      17.330  37.361  24.848  1.00  0.00     0.147 C 
HETATM    3  C   LIG     1      18.460  37.380  25.881  1.00  0.00     0.022 C 
HETATM    4  C   LIG     1      18.314  36.218  26.869  1.00  0.00     0.003 C 
HETATM    5  C   LIG     1      18.281  34.878  26.126  1.00  0.00     0.022 C 
HETATM    6  C   LIG     1      17.156  34.853  25.087  1.00  0.00     0.147 C 
ENDROOT
BRANCH   1   7
HETATM    7  N   LIG     1      16.882  35.972  22.864  1.00  0.00    -0.017 NA
HETATM    8  O   LIG     1      17.183  34.985  22.161  1.00  0.00    -0.042 OA
ENDBRANCH   1   7
TORSDOF 1
ENDMDL
MODEL 3
REMARK VINA RESULT:      -5.0      9.769     10.766
REMARK  1 active torsions:
REMARK  status: ('A' for Active; 'I' for Inactive)
REMARK    1  A    between atoms: N_2  and  N_3 
ROOT
HETATM    1  N   LIG     1      15.373  32.963  16.125  1.00  0.00    -0.281 N 
HETATM    2  C   LIG     1      16.211  32.241  15.167  1.00  0.00     0.147 C 
HETATM    3  C   LIG     1      15.361  31.285  14.326  1.00  0.00     0.022 C 
HETATM    4  C   LIG     1      14.501  30.389  15.224  1.00  0.00     0.003 C 
HETATM    5  C   LIG     1      13.614  31.236  16.143  1.00  0.00     0.022 C 
HETATM    6  C   LIG     1      14.458  32.199  16.984  1.00  0.00     0.147 C 
ENDROOT
BRANCH   1   7
HETATM    7  N   LIG     1      15.697  34.300  16.417  1.00  0.00    -0.017 NA
HETATM    8  O   LIG     1      16.661  34.874  15.871  1.00  0.00    -0.042 OA
ENDBRANCH   1   7
TORSDOF 1
ENDMDL
MODEL 4
REMARK VINA RESULT:      -5.0      2.818      4.065
REMARK  1 active torsions:
REMARK  status: ('A' for Active; 'I' for Inactive)
REMARK    1  A    between atoms: N_2  and  N_3 
ROOT
HETATM    1  N   LIG     1      17.059  37.687  23.336  1.00  0.00    -0.281 N 
HETATM    2  C   LIG     1      18.069  38.572  22.754  1.00  0.00     0.147 C 
HETATM    3  C   LIG     1      18.001  38.529  21.225  1.00  0.00     0.022 C 
HETATM    4  C   LIG     1      18.050  37.083  20.719  1.00  0.00     0.003 C 
HETATM    5  C   LIG     1      16.917  36.256  21.335  1.00  0.00     0.022 C 
HETATM    6  C   LIG     1      16.976  36.298  22.865  1.00  0.00     0.147 C 
ENDROOT
BRANCH   1   7
HETATM    7  N   LIG     1      16.432  38.088  24.530  1.00  0.00    -0.017 NA
HETATM    8  O   LIG     1      17.076  38.604  25.466  1.00  0.00    -0.042 OA
ENDBRANCH   1   7
TORSDOF 1
ENDMDL
MODEL 5
REMARK VINA RESULT:      -4.9      4.738      5.288
REMARK  1 active torsions:
REMARK  status: ('A' for Active; 'I' for Inactive)
REMARK    1  A    between atoms: N_2  and  N_3 
ROOT
HETATM    1  N   LIG     1      18.674  38.498  20.384  1.00  0.00    -0.281 N 
HETATM    2  C   LIG     1      18.752  37.089  20.000  1.00  0.00     0.147 C 
HETATM    3  C   LIG     1      17.486  36.345  20.434  1.00  0.00     0.022 C 
HETATM    4  C   LIG     1      17.195  36.587  21.919  1.00  0.00     0.003 C 
HETATM    5  C   LIG     1      17.068  38.087  22.207  1.00  0.00     0.022 C 
HETATM    6  C   LIG     1      18.329  38.839  21.770  1.00  0.00     0.147 C 
ENDROOT
BRANCH   1   7
HETATM    7  N   LIG     1      19.237  39.455  19.520  1.00  0.00    -0.017 NA
HETATM    8  O   LIG     1      20.457  39.462  19.256  1.00  0.00    -0.042 OA
ENDBRANCH   1   7
TORSDOF 1
ENDMDL
MODEL 6
REMARK VINA RESULT:      -4.8      3.568      4.249
REMARK  1 active torsions:
REMARK  status: ('A' for Active; 'I' for Inactive)
REMARK    1  A    between atoms: N_2  and  N_3 
ROOT
HETATM    1  N   LIG     1      17.168  38.110  22.381  1.00  0.00    -0.281 N 
HETATM    2  C   LIG     1      16.527  36.861  21.966  1.00  0.00     0.147 C 
HETATM    3  C   LIG     1      17.504  36.001  21.159  1.00  0.00     0.022 C 
HETATM    4  C   LIG     1      18.125  36.811  20.016  1.00  0.00     0.003 C 
HETATM    5  C   LIG     1      18.825  38.061  20.558  1.00  0.00     0.022 C 
HETATM    6  C   LIG     1      17.856  38.925  21.371  1.00  0.00     0.147 C 
ENDROOT
BRANCH   1   7
HETATM    7  N   LIG     1      16.835  38.642  23.640  1.00  0.00    -0.017 NA
HETATM    8  O   LIG     1      16.186  37.983  24.478  1.00  0.00    -0.042 OA
ENDBRANCH   1   7
TORSDOF 1
ENDMDL
MODEL 7
REMARK VINA RESULT:      -4.7      4.741      5.675
REMARK  1 active torsions:
REMARK  status: ('A' for Active; 'I' for Inactive)
REMARK    1  A    between atoms: N_2  and  N_3 
ROOT
HETATM    1  N   LIG     1      17.790  36.688  20.445  1.00  0.00    -0.281 N 
HETATM    2  C   LIG     1      17.631  37.475  21.668  1.00  0.00     0.147 C 
HETATM    3  C   LIG     1      17.908  38.956  21.391  1.00  0.00     0.022 C 
HETATM    4  C   LIG     1      19.258  39.134  20.687  1.00  0.00     0.003 C 
HETATM    5  C   LIG     1      19.301  38.322  19.388  1.00  0.00     0.022 C 
HETATM    6  C   LIG     1      19.020  36.840  19.657  1.00  0.00     0.147 C 
ENDROOT
BRANCH   1   7
HETATM    7  N   LIG     1      16.928  35.595  20.241  1.00  0.00    -0.017 NA
HETATM    8  O   LIG     1      16.593  34.842  21.178  1.00  0.00    -0.042 OA
ENDBRANCH   1   7
TORSDOF 1
ENDMDL
MODEL 8
REMARK VINA RESULT:      -4.7      4.258      5.059
REMARK  1 active torsions:
REMARK  status: ('A' for Active; 'I' for Inactive)
REMARK    1  A    between atoms: N_2  and  N_3 
ROOT
HETATM    1  N   LIG     1      18.105  37.275  20.688  1.00  0.00    -0.281 N 
HETATM    2  C   LIG     1      18.412  38.701  20.804  1.00  0.00     0.147 C 
HETATM    3  C   LIG     1      18.512  39.108  22.276  1.00  0.00     0.022 C 
HETATM    4  C   LIG     1      17.269  38.658  23.051  1.00  0.00     0.003 C 
HETATM    5  C   LIG     1      17.070  37.144  22.921  1.00  0.00     0.022 C 
HETATM    6  C   LIG     1      16.975  36.727  21.450  1.00  0.00     0.147 C 
ENDROOT
BRANCH   1   7
HETATM    7  N   LIG     1      18.682  36.554  19.627  1.00  0.00    -0.017 NA
HETATM    8  O   LIG     1      18.152  36.515  18.497  1.00  0.00    -0.042 OA
ENDBRANCH   1   7
TORSDOF 1
ENDMDL
MODEL 9
REMARK VINA RESULT:      -4.6     10.044     11.024
REMARK  1 active torsions:
REMARK  status: ('A' for Active; 'I' for Inactive)
REMARK    1  A    between atoms: N_2  and  N_3 
ROOT
HETATM    1  N   LIG     1      15.759  32.591  15.614  1.00  0.00    -0.281 N 
HETATM    2  C   LIG     1      14.615  32.759  16.512  1.00  0.00     0.147 C 
HETATM    3  C   LIG     1      13.996  31.399  16.849  1.00  0.00     0.022 C 
HETATM    4  C   LIG     1      13.696  30.607  15.572  1.00  0.00     0.003 C 
HETATM    5  C   LIG     1      14.967  30.430  14.734  1.00  0.00     0.022 C 
HETATM    6  C   LIG     1      15.595  31.786  14.397  1.00  0.00     0.147 C 
ENDROOT
BRANCH   1   7
HETATM    7  N   LIG     1      16.860  33.452  15.772  1.00  0.00    -0.017 NA
HETATM    8  O   LIG     1      16.721  34.692  15.806  1.00  0.00    -0.042 OA
ENDBRANCH   1   7
TORSDOF 1
ENDMDL
MODEL 10
REMARK VINA RESULT:      -4.6      4.934      5.692
REMARK  1 active torsions:
REMARK  status: ('A' for Active; 'I' for Inactive)
REMARK    1  A    between atoms: N_2  and  N_3 
ROOT
HETATM    1  N   LIG     1      19.156  38.236  20.345  1.00  0.00    -0.281 N 
HETATM    2  C   LIG     1      18.410  39.136  21.225  1.00  0.00     0.147 C 
HETATM    3  C   LIG     1      17.711  38.342  22.333  1.00  0.00     0.022 C 
HETATM    4  C   LIG     1      16.884  37.196  21.741  1.00  0.00     0.003 C 
HETATM    5  C   LIG     1      17.766  36.276  20.890  1.00  0.00     0.022 C 
HETATM    6  C   LIG     1      18.473  37.064  19.783  1.00  0.00     0.147 C 
ENDROOT
BRANCH   1   7
HETATM    7  N   LIG     1      20.379  38.687  19.815  1.00  0.00    -0.017 NA
HETATM    8  O   LIG     1      20.427  39.597  18.963  1.00  0.00    -0.042 OA
ENDBRANCH   1   7
TORSDOF 1
ENDMDL
MODEL 11
REMARK VINA RESULT:      -4.6      2.725      3.619
REMARK  1 active torsions:
REMARK  status: ('A' for Active; 'I' for Inactive)
REMARK    1  A    between atoms: N_2  and  N_3 
ROOT
HETATM    1  N   LIG     1      17.088  36.057  23.845  1.00  0.00    -0.281 N 
HETATM    2  C   LIG     1      16.684  35.980  22.441  1.00  0.00     0.147 C 
HETATM    3  C   LIG     1      17.353  37.094  21.630  1.00  0.00     0.022 C 
HETATM    4  C   LIG     1      17.122  38.459  22.288  1.00  0.00     0.003 C 
HETATM    5  C   LIG     1      17.635  38.457  23.731  1.00  0.00     0.022 C 
HETATM    6  C   LIG     1      16.975  37.342  24.548  1.00  0.00     0.147 C 
ENDROOT
BRANCH   1   7
HETATM    7  N   LIG     1      17.261  34.855  24.554  1.00  0.00    -0.017 NA
HETATM    8  O   LIG     1      17.511  34.846  25.777  1.00  0.00    -0.042 OA
ENDBRANCH   1   7
TORSDOF 1
ENDMDL
MODEL 12
REMARK VINA RESULT:      -4.5     10.565     11.512
REMARK  1 active torsions:
REMARK  status: ('A' for Active; 'I' for Inactive)
REMARK    1  A    between atoms: N_2  and  N_3 
ROOT
HETATM    1  N   LIG     1      14.131  31.127  16.313  1.00  0.00    -0.281 N 
HETATM    2  C   LIG     1      13.521  30.343  15.238  1.00  0.00     0.147 C 
HETATM    3  C   LIG     1      14.591  29.865  14.252  1.00  0.00     0.022 C 
HETATM    4  C   LIG     1      15.456  31.037  13.777  1.00  0.00     0.003 C 
HETATM    5  C   LIG     1      16.100  31.752  14.969  1.00  0.00     0.022 C 
HETATM    6  C   LIG     1      15.036  32.229  15.963  1.00  0.00     0.147 C 
ENDROOT
BRANCH   1   7
HETATM    7  N   LIG     1      13.590  31.013  17.607  1.00  0.00    -0.017 NA
HETATM    8  O   LIG     1      14.237  31.356  18.618  1.00  0.00    -0.042 OA
ENDBRANCH   1   7
TORSDOF 1
ENDMDL
MODEL 13
REMARK VINA RESULT:      -4.5     10.949     11.680
REMARK  1 active torsions:
REMARK  status: ('A' for Active; 'I' for Inactive)
REMARK    1  A    between atoms: N_2  and  N_3 
ROOT
HETATM    1  N   LIG     1      15.417  31.447  14.618  1.00  0.00    -0.281 N 
HETATM    2  C   LIG     1      14.572  30.280  14.871  1.00  0.00     0.147 C 
HETATM    3  C   LIG     1      13.377  30.665  15.747  1.00  0.00     0.022 C 
HETATM    4  C   LIG     1      13.840  31.404  17.006  1.00  0.00     0.003 C 
HETATM    5  C   LIG     1      14.661  32.644  16.635  1.00  0.00     0.022 C 
HETATM    6  C   LIG     1      15.857  32.266  15.755  1.00  0.00     0.147 C 
ENDROOT
BRANCH   1   7
HETATM    7  N   LIG     1      16.037  31.559  13.360  1.00  0.00    -0.017 NA
HETATM    8  O   LIG     1      17.060  32.255  13.193  1.00  0.00    -0.042 OA
ENDBRANCH   1   7
TORSDOF 1
ENDMDL
MODEL 14
REMARK VINA RESULT:      -4.4      1.884      2.750
REMARK  1 active torsions:
REMARK  status: ('A' for Active; 'I' for Inactive)
REMARK    1  A    between atoms: N_2  and  N_3 
ROOT
HETATM    1  N   LIG     1      17.094  37.487  23.098  1.00  0.00    -0.281 N 
HETATM    2  C   LIG     1      17.176  37.889  24.502  1.00  0.00     0.147 C 
HETATM    3  C   LIG     1      17.890  36.814  25.326  1.00  0.00     0.022 C 
HETATM    4  C   LIG     1      17.256  35.439  25.091  1.00  0.00     0.003 C 
HETATM    5  C   LIG     1      17.276  35.082  23.601  1.00  0.00     0.022 C 
HETATM    6  C   LIG     1      16.568  36.156  22.770  1.00  0.00     0.147 C 
ENDROOT
BRANCH   1   7
HETATM    7  N   LIG     1      17.212  38.484  22.112  1.00  0.00    -0.017 NA
HETATM    8  O   LIG     1      18.045  39.409  22.213  1.00  0.00    -0.042 OA
ENDBRANCH   1   7
TORSDOF 1
ENDMDL
MODEL 15
REMARK VINA RESULT:      -4.0      2.726      3.726
REMARK  1 active torsions:
REMARK  status: ('A' for Active; 'I' for Inactive)
REMARK    1  A    between atoms: N_2  and  N_3 
ROOT
HETATM    1  N   LIG     1      17.532  37.586  22.676  1.00  0.00    -0.281 N 
HETATM    2  C   LIG     1      16.945  36.854  23.798  1.00  0.00     0.147 C 
HETATM    3  C   LIG     1      17.069  35.344  23.575  1.00  0.00     0.022 C 
HETATM    4  C   LIG     1      16.523  34.950  22.199  1.00  0.00     0.003 C 
HETATM    5  C   LIG     1      17.244  35.722  21.090  1.00  0.00     0.022 C 
HETATM    6  C   LIG     1      17.128  37.234  21.308  1.00  0.00     0.147 C 
ENDROOT
BRANCH   1   7
HETATM    7  N   LIG     1      18.202  38.793  22.947  1.00  0.00    -0.017 NA
HETATM    8  O   LIG     1      19.157  39.184  22.244  1.00  0.00    -0.042 OA
ENDBRANCH   1   7
TORSDOF 1
ENDMDL
MODEL 16
REMARK VINA RESULT:      -4.0     10.447     11.427
REMARK  1 active torsions:
REMARK  status: ('A' for Active; 'I' for Inactive)
REMARK    1  A    between atoms: N_2  and  N_3 
ROOT
HETATM    1  N   LIG     1      14.131  31.166  15.972  1.00  0.00    -0.281 N 
HETATM    2  C   LIG     1      14.936  32.081  16.782  1.00  0.00     0.147 C 
HETATM    3  C   LIG     1      15.741  33.023  15.883  1.00  0.00     0.022 C 
HETATM    4  C   LIG     1      16.531  32.233  14.835  1.00  0.00     0.003 C 
HETATM    5  C   LIG     1      15.593  31.356  13.998  1.00  0.00     0.022 C 
HETATM    6  C   LIG     1      14.781  30.414  14.892  1.00  0.00     0.147 C 
ENDROOT
BRANCH   1   7
HETATM    7  N   LIG     1      12.860  30.798  16.451  1.00  0.00    -0.017 NA
HETATM    8  O   LIG     1      12.135  31.604  17.070  1.00  0.00    -0.042 OA
ENDBRANCH   1   7
TORSDOF 1
ENDMDL
MODEL 17
REMARK VINA RESULT:      -4.0     11.129     11.928
REMARK  1 active torsions:
REMARK  status: ('A' for Active; 'I' for Inactive)
REMARK    1  A    between atoms: N_2  and  N_3 
ROOT
HETATM    1  N   LIG     1      14.674  30.588  14.976  1.00  0.00    -0.281 N 
HETATM    2  C   LIG     1      15.497  31.757  14.666  1.00  0.00     0.147 C 
HETATM    3  C   LIG     1      15.885  32.493  15.952  1.00  0.00     0.022 C 
HETATM    4  C   LIG     1      14.647  32.791  16.803  1.00  0.00     0.003 C 
HETATM    5  C   LIG     1      13.890  31.499  17.128  1.00  0.00     0.022 C 
HETATM    6  C   LIG     1      13.502  30.754  15.846  1.00  0.00     0.147 C 
ENDROOT
BRANCH   1   7
HETATM    7  N   LIG     1      14.835  29.433  14.189  1.00  0.00    -0.017 NA
HETATM    8  O   LIG     1      15.691  29.374  13.282  1.00  0.00    -0.042 OA
ENDBRANCH   1   7
TORSDOF 1
ENDMDL
MODEL 18
REMARK VINA RESULT:      -3.9      2.830      3.701
REMARK  1 active torsions:
REMARK  status: ('A' for Active; 'I' for Inactive)
REMARK    1  A    between atoms: N_2  and  N_3 
ROOT
HETATM    1  N   LIG     1      17.343  37.741  22.190  1.00  0.00    -0.281 N 
HETATM    2  C   LIG     1      17.953  37.263  20.949  1.00  0.00     0.147 C 
HETATM    3  C   LIG     1      17.243  36.000  20.456  1.00  0.00     0.022 C 
HETATM    4  C   LIG     1      17.159  34.952  21.571  1.00  0.00     0.003 C 
HETATM    5  C   LIG     1      16.449  35.528  22.801  1.00  0.00     0.022 C 
HETATM    6  C   LIG     1      17.151  36.795  23.297  1.00  0.00     0.147 C 
ENDROOT
BRANCH   1   7
HETATM    7  N   LIG     1      17.261  39.130  22.399  1.00  0.00    -0.017 NA
HETATM    8  O   LIG     1      16.576  39.613  23.324  1.00  0.00    -0.042 OA
ENDBRANCH   1   7
TORSDOF 1
ENDMDL
MODEL 19
REMARK VINA RESULT:      -3.8      4.640      5.495
REMARK  1 active torsions:
REMARK  status: ('A' for Active; 'I' for Inactive)
REMARK    1  A    between atoms: N_2  and  N_3 
ROOT
HETATM    1  N   LIG     1      16.081  34.498  20.537  1.00  0.00    -0.281 N 
HETATM    2  C   LIG     1      16.586  35.630  19.759  1.00  0.00     0.147 C 
HETATM    3  C   LIG     1      17.704  36.347  20.521  1.00  0.00     0.022 C 
HETATM    4  C   LIG     1      17.254  36.699  21.943  1.00  0.00     0.003 C 
HETATM    5  C   LIG     1      16.807  35.441  22.695  1.00  0.00     0.022 C 
HETATM    6  C   LIG     1      15.691  34.716  21.936  1.00  0.00     0.147 C 
ENDROOT
BRANCH   1   7
HETATM    7  N   LIG     1      15.687  33.338  19.845  1.00  0.00    -0.017 NA
HETATM    8  O   LIG     1      15.514  33.341  18.609  1.00  0.00    -0.042 OA
ENDBRANCH   1   7
TORSDOF 1
ENDMDL
