MODEL 1
REMARK VINA RESULT:      -6.2      0.000      0.000
REMARK  2 active torsions:
REMARK  status: ('A' for Active; 'I' for Inactive)
REMARK    1  A    between atoms: O_1  and  C_2 
REMARK    2  A    between atoms: C_2  and  C_3 
ROOT
HETATM    1  C   LIG     1      17.164  36.950  24.415  1.00  0.00    -0.035 A 
HETATM    2  C   LIG     1      17.851  37.564  25.478  1.00  0.00     0.009 A 
HETATM    3  C   LIG     1      18.413  36.787  26.496  1.00  0.00     0.001 A 
HETATM    4  C   LIG     1      18.295  35.395  26.460  1.00  0.00     0.000 A 
HETATM    5  C   LIG     1      17.618  34.777  25.407  1.00  0.00     0.001 A 
HETATM    6  C   LIG     1      17.054  35.550  24.386  1.00  0.00     0.009 A 
ENDROOT
BRANCH   1   7
HETATM    7  C   LIG     1      16.560  37.778  23.313  1.00  0.00     0.202 C 
BRANCH   7   8
HETATM    8  O   LIG     1      15.225  38.083  23.613  1.00  0.00    -0.396 OA
HETATM    9  H   LIG     1      14.754  37.220  23.751  1.00  0.00     0.209 HD
ENDBRANCH   7   8
ENDBRANCH   1   7
TORSDOF 2
ENDMDL
MODEL 2
REMARK VINA RESULT:      -6.2      0.021      1.713
REMARK  2 active torsions:
REMARK  status: ('A' for Active; 'I' for Inactive)
REMARK    1  A    between atoms: O_1  and  C_2 
REMARK    2  A    between atoms: C_2  and  C_3 
ROOT
HETATM    1  C   LIG     1      17.158  36.954  24.401  1.00  0.00    -0.035 A 
HETATM    2  C   LIG     1      17.052  35.552  24.364  1.00  0.00     0.009 A 
HETATM    3  C   LIG     1      17.615  34.776  25.382  1.00  0.00     0.001 A 
HETATM    4  C   LIG     1      18.285  35.392  26.443  1.00  0.00     0.000 A 
HETATM    5  C   LIG     1      18.392  36.783  26.490  1.00  0.00     0.001 A 
HETATM    6  C   LIG     1      17.830  37.564  25.474  1.00  0.00     0.009 A 
ENDROOT
BRANCH   1   7
HETATM    7  C   LIG     1      16.551  37.798  23.313  1.00  0.00     0.202 C 
BRANCH   7   8
HETATM    8  O   LIG     1      15.211  38.081  23.611  1.00  0.00    -0.396 OA
HETATM    9  H   LIG     1      15.196  38.964  24.065  1.00  0.00     0.209 HD
ENDBRANCH   7   8
ENDBRANCH   1   7
TORSDOF 2
ENDMDL
MODEL 3
REMARK VINA RESULT:      -5.6      2.854      4.737
REMARK  2 active torsions:
REMARK  status: ('A' for Active; 'I' for Inactive)
REMARK    1  A    between atoms: O_1  and  C_2 
REMARK    2  A    between atoms: C_2  and  C_3 
ROOT
HETATM    1  C   LIG     1      17.350  37.827  22.075  1.00  0.00    -0.035 A 
HETATM    2  C   LIG     1      17.478  36.699  21.245  1.00  0.00     0.009 A 
HETATM    3  C   LIG     1      18.305  36.744  20.118  1.00  0.00     0.001 A 
HETATM    4  C   LIG     1      19.010  37.911  19.813  1.00  0.00     0.000 A 
HETATM    5  C   LIG     1      18.892  39.035  20.635  1.00  0.00     0.001 A 
HETATM    6  C   LIG     1      18.066  38.994  21.763  1.00  0.00     0.009 A 
ENDROOT
BRANCH   1   7
HETATM    7  C   LIG     1      16.466  37.786  23.293  1.00  0.00     0.202 C 
BRANCH   7   8
HETATM    8  O   LIG     1      15.171  38.211  22.964  1.00  0.00    -0.396 OA
HETATM    9  H   LIG     1      14.598  37.400  22.938  1.00  0.00     0.209 HD
ENDBRANCH   7   8
ENDBRANCH   1   7
TORSDOF 2
ENDMDL
MODEL 4
REMARK VINA RESULT:      -5.4      4.299      5.622
REMARK  2 active torsions:
REMARK  status: ('A' for Active; 'I' for Inactive)
REMARK    1  A    between atoms: O_1  and  C_2 
REMARK    2  A    between atoms: C_2  and  C_3 
ROOT
HETATM    1  C   LIG     1      18.833  38.226  19.808  1.00  0.00    -0.035 A 
HETATM    2  C   LIG     1      18.438  36.877  19.836  1.00  0.00     0.009 A 
HETATM    3  C   LIG     1      17.680  36.386  20.903  1.00  0.00     0.001 A 
HETATM    4  C   LIG     1      17.308  37.237  21.948  1.00  0.00     0.000 A 
HETATM    5  C   LIG     1      17.693  38.580  21.926  1.00  0.00     0.001 A 
HETATM    6  C   LIG     1      18.451  39.075  20.860  1.00  0.00     0.009 A 
ENDROOT
BRANCH   1   7
HETATM    7  C   LIG     1      19.646  38.764  18.661  1.00  0.00     0.202 C 
BRANCH   7   8
HETATM    8  O   LIG     1      20.727  39.514  19.145  1.00  0.00    -0.396 OA
HETATM    9  H   LIG     1      20.368  40.122  19.842  1.00  0.00     0.209 HD
ENDBRANCH   7   8
ENDBRANCH   1   7
TORSDOF 2
ENDMDL
MODEL 5
REMARK VINA RESULT:      -5.1      9.559     10.709
REMARK  2 active torsions:
REMARK  status: ('A' for Active; 'I' for Inactive)
REMARK    1  A    between atoms: O_1  and  C_2 
REMARK    2  A    between atoms: C_2  and  C_3 
ROOT
HETATM    1  C   LIG     1      14.715  32.572  16.398  1.00  0.00    -0.035 A 
HETATM    2  C   LIG     1      13.552  31.881  16.783  1.00  0.00     0.009 A 
HETATM    3  C   LIG     1      13.183  30.703  16.127  1.00  0.00     0.001 A 
HETATM    4  C   LIG     1      13.971  30.204  15.086  1.00  0.00     0.000 A 
HETATM    5  C   LIG     1      15.130  30.881  14.700  1.00  0.00     0.001 A 
HETATM    6  C   LIG     1      15.503  32.060  15.354  1.00  0.00     0.009 A 
ENDROOT
BRANCH   1   7
HETATM    7  C   LIG     1      15.123  33.839  17.101  1.00  0.00     0.202 C 
BRANCH   7   8
HETATM    8  O   LIG     1      15.984  34.588  16.287  1.00  0.00    -0.396 OA
HETATM    9  H   LIG     1      15.428  34.987  15.568  1.00  0.00     0.209 HD
ENDBRANCH   7   8
ENDBRANCH   1   7
TORSDOF 2
ENDMDL
MODEL 6
REMARK VINA RESULT:      -5.1      9.672     10.817
REMARK  2 active torsions:
REMARK  status: ('A' for Active; 'I' for Inactive)
REMARK    1  A    between atoms: O_1  and  C_2 
REMARK    2  A    between atoms: C_2  and  C_3 
ROOT
HETATM    1  C   LIG     1      14.709  32.386  16.388  1.00  0.00    -0.035 A 
HETATM    2  C   LIG     1      15.510  31.930  15.326  1.00  0.00     0.009 A 
HETATM    3  C   LIG     1      15.131  30.803  14.591  1.00  0.00     0.001 A 
HETATM    4  C   LIG     1      13.950  30.125  14.907  1.00  0.00     0.000 A 
HETATM    5  C   LIG     1      13.146  30.573  15.958  1.00  0.00     0.001 A 
HETATM    6  C   LIG     1      13.522  31.700  16.696  1.00  0.00     0.009 A 
ENDROOT
BRANCH   1   7
HETATM    7  C   LIG     1      15.107  33.600  17.183  1.00  0.00     0.202 C 
BRANCH   7   8
HETATM    8  O   LIG     1      15.839  34.485  16.379  1.00  0.00    -0.396 OA
HETATM    9  H   LIG     1      15.341  35.344  16.366  1.00  0.00     0.209 HD
ENDBRANCH   7   8
ENDBRANCH   1   7
TORSDOF 2
ENDMDL
MODEL 7
REMARK VINA RESULT:      -5.0     10.161     11.296
REMARK  2 active torsions:
REMARK  status: ('A' for Active; 'I' for Inactive)
REMARK    1  A    between atoms: O_1  and  C_2 
REMARK    2  A    between atoms: C_2  and  C_3 
ROOT
HETATM    1  C   LIG     1      14.553  31.724  16.228  1.00  0.00    -0.035 A 
HETATM    2  C   LIG     1      15.585  31.873  15.285  1.00  0.00     0.009 A 
HETATM    3  C   LIG     1      15.624  31.058  14.149  1.00  0.00     0.001 A 
HETATM    4  C   LIG     1      14.634  30.092  13.945  1.00  0.00     0.000 A 
HETATM    5  C   LIG     1      13.604  29.940  14.875  1.00  0.00     0.001 A 
HETATM    6  C   LIG     1      13.560  30.753  16.013  1.00  0.00     0.009 A 
ENDROOT
BRANCH   1   7
HETATM    7  C   LIG     1      14.500  32.599  17.452  1.00  0.00     0.202 C 
BRANCH   7   8
HETATM    8  O   LIG     1      13.926  31.899  18.523  1.00  0.00    -0.396 OA
HETATM    9  H   LIG     1      14.272  30.969  18.479  1.00  0.00     0.209 HD
ENDBRANCH   7   8
ENDBRANCH   1   7
TORSDOF 2
ENDMDL
MODEL 8
REMARK VINA RESULT:      -5.0     10.083     11.288
REMARK  2 active torsions:
REMARK  status: ('A' for Active; 'I' for Inactive)
REMARK    1  A    between atoms: O_1  and  C_2 
REMARK    2  A    between atoms: C_2  and  C_3 
ROOT
HETATM    1  C   LIG     1      14.676  31.806  16.256  1.00  0.00    -0.035 A 
HETATM    2  C   LIG     1      13.752  30.778  16.000  1.00  0.00     0.009 A 
HETATM    3  C   LIG     1      13.838  30.032  14.820  1.00  0.00     0.001 A 
HETATM    4  C   LIG     1      14.844  30.305  13.889  1.00  0.00     0.000 A 
HETATM    5  C   LIG     1      15.768  31.323  14.138  1.00  0.00     0.001 A 
HETATM    6  C   LIG     1      15.687  32.071  15.317  1.00  0.00     0.009 A 
ENDROOT
BRANCH   1   7
HETATM    7  C   LIG     1      14.595  32.611  17.525  1.00  0.00     0.202 C 
BRANCH   7   8
HETATM    8  O   LIG     1      13.927  31.882  18.518  1.00  0.00    -0.396 OA
HETATM    9  H   LIG     1      14.151  32.305  19.388  1.00  0.00     0.209 HD
ENDBRANCH   7   8
ENDBRANCH   1   7
TORSDOF 2
ENDMDL
MODEL 9
REMARK VINA RESULT:      -5.0     10.744     11.787
REMARK  2 active torsions:
REMARK  status: ('A' for Active; 'I' for Inactive)
REMARK    1  A    between atoms: O_1  and  C_2 
REMARK    2  A    between atoms: C_2  and  C_3 
ROOT
HETATM    1  C   LIG     1      14.176  30.427  15.021  1.00  0.00    -0.035 A 
HETATM    2  C   LIG     1      15.304  31.260  14.915  1.00  0.00     0.009 A 
HETATM    3  C   LIG     1      15.468  32.339  15.790  1.00  0.00     0.001 A 
HETATM    4  C   LIG     1      14.510  32.592  16.776  1.00  0.00     0.000 A 
HETATM    5  C   LIG     1      13.389  31.767  16.891  1.00  0.00     0.001 A 
HETATM    6  C   LIG     1      13.221  30.687  16.018  1.00  0.00     0.009 A 
ENDROOT
BRANCH   1   7
HETATM    7  C   LIG     1      13.994  29.261  14.087  1.00  0.00     0.202 C 
BRANCH   7   8
HETATM    8  O   LIG     1      12.642  28.894  14.029  1.00  0.00    -0.396 OA
HETATM    9  H   LIG     1      12.210  29.253  14.848  1.00  0.00     0.209 HD
ENDBRANCH   7   8
ENDBRANCH   1   7
TORSDOF 2
ENDMDL
MODEL 10
REMARK VINA RESULT:      -5.0     10.691     11.768
REMARK  2 active torsions:
REMARK  status: ('A' for Active; 'I' for Inactive)
REMARK    1  A    between atoms: O_1  and  C_2 
REMARK    2  A    between atoms: C_2  and  C_3 
ROOT
HETATM    1  C   LIG     1      14.185  30.453  15.073  1.00  0.00    -0.035 A 
HETATM    2  C   LIG     1      13.231  30.721  16.071  1.00  0.00     0.009 A 
HETATM    3  C   LIG     1      13.404  31.804  16.939  1.00  0.00     0.001 A 
HETATM    4  C   LIG     1      14.528  32.626  16.817  1.00  0.00     0.000 A 
HETATM    5  C   LIG     1      15.478  32.370  15.826  1.00  0.00     0.001 A 
HETATM    6  C   LIG     1      15.309  31.288  14.955  1.00  0.00     0.009 A 
ENDROOT
BRANCH   1   7
HETATM    7  C   LIG     1      14.004  29.293  14.131  1.00  0.00     0.202 C 
BRANCH   7   8
HETATM    8  O   LIG     1      12.649  28.946  14.046  1.00  0.00    -0.396 OA
HETATM    9  H   LIG     1      12.425  28.445  14.873  1.00  0.00     0.209 HD
ENDBRANCH   7   8
ENDBRANCH   1   7
TORSDOF 2
ENDMDL
MODEL 11
REMARK VINA RESULT:      -4.9     10.878     11.864
REMARK  2 active torsions:
REMARK  status: ('A' for Active; 'I' for Inactive)
REMARK    1  A    between atoms: O_1  and  C_2 
REMARK    2  A    between atoms: C_2  and  C_3 
ROOT
HETATM    1  C   LIG     1      14.763  30.782  14.709  1.00  0.00    -0.035 A 
HETATM    2  C   LIG     1      15.389  31.823  15.418  1.00  0.00     0.009 A 
HETATM    3  C   LIG     1      14.787  32.358  16.561  1.00  0.00     0.001 A 
HETATM    4  C   LIG     1      13.560  31.857  17.006  1.00  0.00     0.000 A 
HETATM    5  C   LIG     1      12.934  30.821  16.311  1.00  0.00     0.001 A 
HETATM    6  C   LIG     1      13.532  30.282  15.167  1.00  0.00     0.009 A 
ENDROOT
BRANCH   1   7
HETATM    7  C   LIG     1      15.405  30.197  13.480  1.00  0.00     0.202 C 
BRANCH   7   8
HETATM    8  O   LIG     1      15.022  28.857  13.325  1.00  0.00    -0.396 OA
HETATM    9  H   LIG     1      14.907  28.700  12.351  1.00  0.00     0.209 HD
ENDBRANCH   7   8
ENDBRANCH   1   7
TORSDOF 2
ENDMDL
MODEL 12
REMARK VINA RESULT:      -4.8     10.584     11.683
REMARK  2 active torsions:
REMARK  status: ('A' for Active; 'I' for Inactive)
REMARK    1  A    between atoms: O_1  and  C_2 
REMARK    2  A    between atoms: C_2  and  C_3 
ROOT
HETATM    1  C   LIG     1      15.681  31.935  14.873  1.00  0.00    -0.035 A 
HETATM    2  C   LIG     1      15.088  30.831  14.234  1.00  0.00     0.009 A 
HETATM    3  C   LIG     1      13.998  30.180  14.820  1.00  0.00     0.001 A 
HETATM    4  C   LIG     1      13.491  30.626  16.044  1.00  0.00     0.000 A 
HETATM    5  C   LIG     1      14.071  31.723  16.683  1.00  0.00     0.001 A 
HETATM    6  C   LIG     1      15.162  32.378  16.101  1.00  0.00     0.009 A 
ENDROOT
BRANCH   1   7
HETATM    7  C   LIG     1      16.852  32.645  14.248  1.00  0.00     0.202 C 
BRANCH   7   8
HETATM    8  O   LIG     1      16.977  32.278  12.901  1.00  0.00    -0.396 OA
HETATM    9  H   LIG     1      16.927  33.114  12.367  1.00  0.00     0.209 HD
ENDBRANCH   7   8
ENDBRANCH   1   7
TORSDOF 2
ENDMDL
MODEL 13
REMARK VINA RESULT:      -4.8     11.645     12.712
REMARK  2 active torsions:
REMARK  status: ('A' for Active; 'I' for Inactive)
REMARK    1  A    between atoms: O_1  and  C_2 
REMARK    2  A    between atoms: C_2  and  C_3 
ROOT
HETATM    1  C   LIG     1      13.819  29.622  14.536  1.00  0.00    -0.035 A 
HETATM    2  C   LIG     1      13.270  30.276  15.653  1.00  0.00     0.009 A 
HETATM    3  C   LIG     1      13.908  31.395  16.197  1.00  0.00     0.001 A 
HETATM    4  C   LIG     1      15.095  31.869  15.632  1.00  0.00     0.000 A 
HETATM    5  C   LIG     1      15.645  31.227  14.520  1.00  0.00     0.001 A 
HETATM    6  C   LIG     1      15.010  30.108  13.971  1.00  0.00     0.009 A 
ENDROOT
BRANCH   1   7
HETATM    7  C   LIG     1      13.137  28.419  13.940  1.00  0.00     0.202 C 
BRANCH   7   8
HETATM    8  O   LIG     1      11.831  28.748  13.550  1.00  0.00    -0.396 OA
HETATM    9  H   LIG     1      11.220  28.358  14.228  1.00  0.00     0.209 HD
ENDBRANCH   7   8
ENDBRANCH   1   7
TORSDOF 2
ENDMDL
MODEL 14
REMARK VINA RESULT:      -4.6      3.116      4.123
REMARK  2 active torsions:
REMARK  status: ('A' for Active; 'I' for Inactive)
REMARK    1  A    between atoms: O_1  and  C_2 
REMARK    2  A    between atoms: C_2  and  C_3 
ROOT
HETATM    1  C   LIG     1      16.633  37.464  22.297  1.00  0.00    -0.035 A 
HETATM    2  C   LIG     1      17.634  37.086  21.384  1.00  0.00     0.009 A 
HETATM    3  C   LIG     1      17.398  36.061  20.464  1.00  0.00     0.001 A 
HETATM    4  C   LIG     1      16.163  35.407  20.445  1.00  0.00     0.000 A 
HETATM    5  C   LIG     1      15.162  35.778  21.345  1.00  0.00     0.001 A 
HETATM    6  C   LIG     1      15.393  36.804  22.268  1.00  0.00     0.009 A 
ENDROOT
BRANCH   1   7
HETATM    7  C   LIG     1      16.877  38.569  23.289  1.00  0.00     0.202 C 
BRANCH   7   8
HETATM    8  O   LIG     1      16.365  38.214  24.545  1.00  0.00    -0.396 OA
HETATM    9  H   LIG     1      15.425  38.532  24.574  1.00  0.00     0.209 HD
ENDBRANCH   7   8
ENDBRANCH   1   7
TORSDOF 2
ENDMDL
MODEL 15
REMARK VINA RESULT:      -3.5     15.245     16.310
REMARK  2 active torsions:
REMARK  status: ('A' for Active; 'I' for Inactive)
REMARK    1  A    between atoms: O_1  and  C_2 
REMARK    2  A    between atoms: C_2  and  C_3 
ROOT
HETATM    1  C   LIG     1      26.712  31.105  36.855  1.00  0.00    -0.035 A 
HETATM    2  C   LIG     1      26.210  30.751  35.590  1.00  0.00     0.009 A 
HETATM    3  C   LIG     1      27.056  30.731  34.477  1.00  0.00     0.001 A 
HETATM    4  C   LIG     1      28.407  31.061  34.618  1.00  0.00     0.000 A 
HETATM    5  C   LIG     1      28.914  31.410  35.872  1.00  0.00     0.001 A 
HETATM    6  C   LIG     1      28.071  31.431  36.988  1.00  0.00     0.009 A 
ENDROOT
BRANCH   1   7
HETATM    7  C   LIG     1      25.809  31.125  38.060  1.00  0.00     0.202 C 
BRANCH   7   8
HETATM    8  O   LIG     1      25.069  29.936  38.129  1.00  0.00    -0.396 OA
HETATM    9  H   LIG     1      24.170  30.133  37.758  1.00  0.00     0.209 HD
ENDBRANCH   7   8
ENDBRANCH   1   7
TORSDOF 2
ENDMDL
MODEL 16
REMARK VINA RESULT:      -3.4     15.080     15.426
REMARK  2 active torsions:
REMARK  status: ('A' for Active; 'I' for Inactive)
REMARK    1  A    between atoms: O_1  and  C_2 
REMARK    2  A    between atoms: C_2  and  C_3 
ROOT
HETATM    1  C   LIG     1      27.095  28.717  33.874  1.00  0.00    -0.035 A 
HETATM    2  C   LIG     1      26.462  29.642  34.724  1.00  0.00     0.009 A 
HETATM    3  C   LIG     1      26.981  30.932  34.871  1.00  0.00     0.001 A 
HETATM    4  C   LIG     1      28.132  31.308  34.173  1.00  0.00     0.000 A 
HETATM    5  C   LIG     1      28.764  30.397  33.325  1.00  0.00     0.001 A 
HETATM    6  C   LIG     1      28.248  29.105  33.173  1.00  0.00     0.009 A 
ENDROOT
BRANCH   1   7
HETATM    7  C   LIG     1      26.540  27.328  33.705  1.00  0.00     0.202 C 
BRANCH   7   8
HETATM    8  O   LIG     1      25.737  27.264  32.558  1.00  0.00    -0.396 OA
HETATM    9  H   LIG     1      25.104  28.028  32.606  1.00  0.00     0.209 HD
ENDBRANCH   7   8
ENDBRANCH   1   7
TORSDOF 2
ENDMDL
