MODEL 1
REMARK VINA RESULT:      -6.3      0.000      0.000
REMARK  2 active torsions:
REMARK  status: ('A' for Active; 'I' for Inactive)
REMARK    1  A    between atoms: O_1  and  N_2 
REMARK    2  A    between atoms: N_2  and  C_3 
ROOT
HETATM    1  C   LIG     1      17.095  37.152  24.788  1.00  0.00     0.054 A 
HETATM    2  C   LIG     1      17.793  37.435  25.977  1.00  0.00     0.031 A 
HETATM    3  C   LIG     1      18.366  36.397  26.720  1.00  0.00     0.002 A 
HETATM    4  C   LIG     1      18.247  35.075  26.284  1.00  0.00     0.000 A 
HETATM    5  C   LIG     1      17.555  34.787  25.106  1.00  0.00     0.002 A 
HETATM    6  C   LIG     1      16.981  35.822  24.359  1.00  0.00     0.031 A 
ENDROOT
BRANCH   1   7
HETATM    7  N   LIG     1      16.503  38.206  24.014  1.00  0.00    -0.269 N 
HETATM    8  H   LIG     1      17.065  39.052  23.770  1.00  0.00     0.194 HD
BRANCH   7   9
HETATM    9  O   LIG     1      15.229  38.119  23.562  1.00  0.00    -0.289 OA
HETATM   10  H   LIG     1      15.316  37.889  22.602  1.00  0.00     0.244 HD
ENDBRANCH   7   9
ENDBRANCH   1   7
TORSDOF 2
ENDMDL
MODEL 2
REMARK VINA RESULT:      -6.3      0.046      1.713
REMARK  2 active torsions:
REMARK  status: ('A' for Active; 'I' for Inactive)
REMARK    1  A    between atoms: O_1  and  N_2 
REMARK    2  A    between atoms: N_2  and  C_3 
ROOT
HETATM    1  C   LIG     1      17.078  37.149  24.746  1.00  0.00     0.054 A 
HETATM    2  C   LIG     1      16.981  35.804  24.344  1.00  0.00     0.031 A 
HETATM    3  C   LIG     1      17.566  34.795  25.117  1.00  0.00     0.002 A 
HETATM    4  C   LIG     1      18.249  35.119  26.292  1.00  0.00     0.000 A 
HETATM    5  C   LIG     1      18.350  36.452  26.697  1.00  0.00     0.002 A 
HETATM    6  C   LIG     1      17.766  37.464  25.927  1.00  0.00     0.031 A 
ENDROOT
BRANCH   1   7
HETATM    7  N   LIG     1      16.483  38.195  23.965  1.00  0.00    -0.269 N 
HETATM    8  H   LIG     1      17.051  39.027  23.688  1.00  0.00     0.194 HD
BRANCH   7   9
HETATM    9  O   LIG     1      15.197  38.119  23.547  1.00  0.00    -0.289 OA
HETATM   10  H   LIG     1      14.658  38.398  24.331  1.00  0.00     0.244 HD
ENDBRANCH   7   9
ENDBRANCH   1   7
TORSDOF 2
ENDMDL
MODEL 3
REMARK VINA RESULT:      -5.8      5.429      6.215
REMARK  2 active torsions:
REMARK  status: ('A' for Active; 'I' for Inactive)
REMARK    1  A    between atoms: O_1  and  N_2 
REMARK    2  A    between atoms: N_2  and  C_3 
ROOT
HETATM    1  C   LIG     1      19.448  38.683  19.728  1.00  0.00     0.054 A 
HETATM    2  C   LIG     1      19.148  37.334  19.469  1.00  0.00     0.031 A 
HETATM    3  C   LIG     1      18.227  36.651  20.271  1.00  0.00     0.002 A 
HETATM    4  C   LIG     1      17.601  37.308  21.334  1.00  0.00     0.000 A 
HETATM    5  C   LIG     1      17.895  38.648  21.597  1.00  0.00     0.002 A 
HETATM    6  C   LIG     1      18.815  39.335  20.797  1.00  0.00     0.031 A 
ENDROOT
BRANCH   1   7
HETATM    7  N   LIG     1      20.390  39.397  18.914  1.00  0.00    -0.269 N 
HETATM    8  H   LIG     1      21.332  39.638  19.295  1.00  0.00     0.194 HD
BRANCH   7   9
HETATM    9  O   LIG     1      20.096  39.748  17.639  1.00  0.00    -0.289 OA
HETATM   10  H   LIG     1      19.869  38.895  17.187  1.00  0.00     0.244 HD
ENDBRANCH   7   9
ENDBRANCH   1   7
TORSDOF 2
ENDMDL
MODEL 4
REMARK VINA RESULT:      -5.5      3.377      4.253
REMARK  2 active torsions:
REMARK  status: ('A' for Active; 'I' for Inactive)
REMARK    1  A    between atoms: O_1  and  N_2 
REMARK    2  A    between atoms: N_2  and  C_3 
ROOT
HETATM    1  C   LIG     1      17.150  37.909  22.384  1.00  0.00     0.054 A 
HETATM    2  C   LIG     1      17.929  39.001  21.958  1.00  0.00     0.031 A 
HETATM    3  C   LIG     1      18.732  38.890  20.818  1.00  0.00     0.002 A 
HETATM    4  C   LIG     1      18.763  37.693  20.096  1.00  0.00     0.000 A 
HETATM    5  C   LIG     1      17.992  36.606  20.514  1.00  0.00     0.002 A 
HETATM    6  C   LIG     1      17.187  36.713  21.653  1.00  0.00     0.031 A 
ENDROOT
BRANCH   1   7
HETATM    7  N   LIG     1      16.320  38.008  23.551  1.00  0.00    -0.269 N 
HETATM    8  H   LIG     1      16.755  38.016  24.501  1.00  0.00     0.194 HD
BRANCH   7   9
HETATM    9  O   LIG     1      14.974  38.121  23.452  1.00  0.00    -0.289 OA
HETATM   10  H   LIG     1      14.827  38.870  22.820  1.00  0.00     0.244 HD
ENDBRANCH   7   9
ENDBRANCH   1   7
TORSDOF 2
ENDMDL
MODEL 5
REMARK VINA RESULT:      -5.3      4.715      5.661
REMARK  2 active torsions:
REMARK  status: ('A' for Active; 'I' for Inactive)
REMARK    1  A    between atoms: O_1  and  N_2 
REMARK    2  A    between atoms: N_2  and  C_3 
ROOT
HETATM    1  C   LIG     1      17.894  36.757  20.561  1.00  0.00     0.054 A 
HETATM    2  C   LIG     1      18.899  36.945  19.595  1.00  0.00     0.031 A 
HETATM    3  C   LIG     1      19.628  38.139  19.560  1.00  0.00     0.002 A 
HETATM    4  C   LIG     1      19.359  39.151  20.486  1.00  0.00     0.000 A 
HETATM    5  C   LIG     1      18.361  38.972  21.447  1.00  0.00     0.002 A 
HETATM    6  C   LIG     1      17.631  37.779  21.486  1.00  0.00     0.031 A 
ENDROOT
BRANCH   1   7
HETATM    7  N   LIG     1      17.139  35.538  20.611  1.00  0.00    -0.269 N 
HETATM    8  H   LIG     1      17.243  34.893  21.427  1.00  0.00     0.194 HD
BRANCH   7   9
HETATM    9  O   LIG     1      16.265  35.209  19.631  1.00  0.00    -0.289 OA
HETATM   10  H   LIG     1      15.432  34.959  20.107  1.00  0.00     0.244 HD
ENDBRANCH   7   9
ENDBRANCH   1   7
TORSDOF 2
ENDMDL
MODEL 6
REMARK VINA RESULT:      -5.3     10.276     11.345
REMARK  2 active torsions:
REMARK  status: ('A' for Active; 'I' for Inactive)
REMARK    1  A    between atoms: O_1  and  N_2 
REMARK    2  A    between atoms: N_2  and  C_3 
ROOT
HETATM    1  C   LIG     1      14.051  31.499  16.407  1.00  0.00     0.054 A 
HETATM    2  C   LIG     1      13.515  30.441  15.650  1.00  0.00     0.031 A 
HETATM    3  C   LIG     1      14.152  30.022  14.477  1.00  0.00     0.002 A 
HETATM    4  C   LIG     1      15.324  30.654  14.052  1.00  0.00     0.000 A 
HETATM    5  C   LIG     1      15.861  31.706  14.798  1.00  0.00     0.002 A 
HETATM    6  C   LIG     1      15.227  32.127  15.972  1.00  0.00     0.031 A 
ENDROOT
BRANCH   1   7
HETATM    7  N   LIG     1      13.410  31.938  17.614  1.00  0.00    -0.269 N 
HETATM    8  H   LIG     1      12.426  32.289  17.584  1.00  0.00     0.194 HD
BRANCH   7   9
HETATM    9  O   LIG     1      14.044  31.884  18.809  1.00  0.00    -0.289 OA
HETATM   10  H   LIG     1      15.007  31.818  18.583  1.00  0.00     0.244 HD
ENDBRANCH   7   9
ENDBRANCH   1   7
TORSDOF 2
ENDMDL
MODEL 7
REMARK VINA RESULT:      -5.3     10.209     11.144
REMARK  2 active torsions:
REMARK  status: ('A' for Active; 'I' for Inactive)
REMARK    1  A    between atoms: O_1  and  N_2 
REMARK    2  A    between atoms: N_2  and  C_3 
ROOT
HETATM    1  C   LIG     1      14.168  31.600  16.597  1.00  0.00     0.054 A 
HETATM    2  C   LIG     1      15.281  32.194  15.974  1.00  0.00     0.031 A 
HETATM    3  C   LIG     1      15.723  31.728  14.731  1.00  0.00     0.002 A 
HETATM    4  C   LIG     1      15.060  30.671  14.103  1.00  0.00     0.000 A 
HETATM    5  C   LIG     1      13.954  30.077  14.715  1.00  0.00     0.002 A 
HETATM    6  C   LIG     1      13.508  30.540  15.958  1.00  0.00     0.031 A 
ENDROOT
BRANCH   1   7
HETATM    7  N   LIG     1      13.701  32.068  17.871  1.00  0.00    -0.269 N 
HETATM    8  H   LIG     1      13.022  32.861  17.919  1.00  0.00     0.194 HD
BRANCH   7   9
HETATM    9  O   LIG     1      14.100  31.483  19.026  1.00  0.00    -0.289 OA
HETATM   10  H   LIG     1      14.337  32.238  19.623  1.00  0.00     0.244 HD
ENDBRANCH   7   9
ENDBRANCH   1   7
TORSDOF 2
ENDMDL
MODEL 8
REMARK VINA RESULT:      -5.2     12.128     12.956
REMARK  2 active torsions:
REMARK  status: ('A' for Active; 'I' for Inactive)
REMARK    1  A    between atoms: O_1  and  N_2 
REMARK    2  A    between atoms: N_2  and  C_3 
ROOT
HETATM    1  C   LIG     1      13.564  29.592  14.497  1.00  0.00     0.054 A 
HETATM    2  C   LIG     1      13.084  30.304  15.611  1.00  0.00     0.031 A 
HETATM    3  C   LIG     1      13.835  31.352  16.154  1.00  0.00     0.002 A 
HETATM    4  C   LIG     1      15.067  31.696  15.590  1.00  0.00     0.000 A 
HETATM    5  C   LIG     1      15.550  30.993  14.484  1.00  0.00     0.002 A 
HETATM    6  C   LIG     1      14.802  29.944  13.939  1.00  0.00     0.031 A 
ENDROOT
BRANCH   1   7
HETATM    7  N   LIG     1      12.805  28.515  13.929  1.00  0.00    -0.269 N 
HETATM    8  H   LIG     1      13.189  27.543  13.939  1.00  0.00     0.194 HD
BRANCH   7   9
HETATM    9  O   LIG     1      11.576  28.722  13.397  1.00  0.00    -0.289 OA
HETATM   10  H   LIG     1      11.040  27.940  13.686  1.00  0.00     0.244 HD
ENDBRANCH   7   9
ENDBRANCH   1   7
TORSDOF 2
ENDMDL
MODEL 9
REMARK VINA RESULT:      -5.2     12.127     12.993
REMARK  2 active torsions:
REMARK  status: ('A' for Active; 'I' for Inactive)
REMARK    1  A    between atoms: O_1  and  N_2 
REMARK    2  A    between atoms: N_2  and  C_3 
ROOT
HETATM    1  C   LIG     1      13.566  29.588  14.497  1.00  0.00     0.054 A 
HETATM    2  C   LIG     1      14.804  29.949  13.935  1.00  0.00     0.031 A 
HETATM    3  C   LIG     1      15.547  31.000  14.485  1.00  0.00     0.002 A 
HETATM    4  C   LIG     1      15.061  31.695  15.595  1.00  0.00     0.000 A 
HETATM    5  C   LIG     1      13.832  31.342  16.158  1.00  0.00     0.002 A 
HETATM    6  C   LIG     1      13.087  30.291  15.611  1.00  0.00     0.031 A 
ENDROOT
BRANCH   1   7
HETATM    7  N   LIG     1      12.794  28.511  13.945  1.00  0.00    -0.269 N 
HETATM    8  H   LIG     1      13.153  27.531  13.999  1.00  0.00     0.194 HD
BRANCH   7   9
HETATM    9  O   LIG     1      11.586  28.730  13.374  1.00  0.00    -0.289 OA
HETATM   10  H   LIG     1      11.029  29.117  14.098  1.00  0.00     0.244 HD
ENDBRANCH   7   9
ENDBRANCH   1   7
TORSDOF 2
ENDMDL
MODEL 10
REMARK VINA RESULT:      -5.2      9.836     10.761
REMARK  2 active torsions:
REMARK  status: ('A' for Active; 'I' for Inactive)
REMARK    1  A    between atoms: O_1  and  N_2 
REMARK    2  A    between atoms: N_2  and  C_3 
ROOT
HETATM    1  C   LIG     1      14.980  32.538  16.366  1.00  0.00     0.054 A 
HETATM    2  C   LIG     1      13.795  31.977  16.877  1.00  0.00     0.031 A 
HETATM    3  C   LIG     1      13.235  30.846  16.274  1.00  0.00     0.002 A 
HETATM    4  C   LIG     1      13.851  30.268  15.161  1.00  0.00     0.000 A 
HETATM    5  C   LIG     1      15.027  30.819  14.648  1.00  0.00     0.002 A 
HETATM    6  C   LIG     1      15.591  31.951  15.248  1.00  0.00     0.031 A 
ENDROOT
BRANCH   1   7
HETATM    7  N   LIG     1      15.567  33.697  16.974  1.00  0.00    -0.269 N 
HETATM    8  H   LIG     1      15.586  33.788  18.015  1.00  0.00     0.194 HD
BRANCH   7   9
HETATM    9  O   LIG     1      16.129  34.678  16.227  1.00  0.00    -0.289 OA
HETATM   10  H   LIG     1      15.364  35.201  15.877  1.00  0.00     0.244 HD
ENDBRANCH   7   9
ENDBRANCH   1   7
TORSDOF 2
ENDMDL
MODEL 11
REMARK VINA RESULT:      -5.1     10.034     11.006
REMARK  2 active torsions:
REMARK  status: ('A' for Active; 'I' for Inactive)
REMARK    1  A    between atoms: O_1  and  N_2 
REMARK    2  A    between atoms: N_2  and  C_3 
ROOT
HETATM    1  C   LIG     1      15.038  32.227  16.233  1.00  0.00     0.054 A 
HETATM    2  C   LIG     1      15.478  31.590  15.058  1.00  0.00     0.031 A 
HETATM    3  C   LIG     1      14.713  30.570  14.482  1.00  0.00     0.002 A 
HETATM    4  C   LIG     1      13.508  30.179  15.073  1.00  0.00     0.000 A 
HETATM    5  C   LIG     1      13.066  30.807  16.240  1.00  0.00     0.002 A 
HETATM    6  C   LIG     1      13.828  31.827  16.819  1.00  0.00     0.031 A 
ENDROOT
BRANCH   1   7
HETATM    7  N   LIG     1      15.811  33.276  16.835  1.00  0.00    -0.269 N 
HETATM    8  H   LIG     1      16.392  33.076  17.680  1.00  0.00     0.194 HD
BRANCH   7   9
HETATM    9  O   LIG     1      15.829  34.526  16.314  1.00  0.00    -0.289 OA
HETATM   10  H   LIG     1      16.072  35.114  17.074  1.00  0.00     0.244 HD
ENDBRANCH   7   9
ENDBRANCH   1   7
TORSDOF 2
ENDMDL
MODEL 12
REMARK VINA RESULT:      -5.1      9.749     10.700
REMARK  2 active torsions:
REMARK  status: ('A' for Active; 'I' for Inactive)
REMARK    1  A    between atoms: O_1  and  N_2 
REMARK    2  A    between atoms: N_2  and  C_3 
ROOT
HETATM    1  C   LIG     1      15.523  32.466  15.833  1.00  0.00     0.054 A 
HETATM    2  C   LIG     1      14.560  32.669  16.839  1.00  0.00     0.031 A 
HETATM    3  C   LIG     1      13.462  31.809  16.945  1.00  0.00     0.002 A 
HETATM    4  C   LIG     1      13.316  30.744  16.051  1.00  0.00     0.000 A 
HETATM    5  C   LIG     1      14.268  30.538  15.050  1.00  0.00     0.002 A 
HETATM    6  C   LIG     1      15.368  31.395  14.941  1.00  0.00     0.031 A 
ENDROOT
BRANCH   1   7
HETATM    7  N   LIG     1      16.656  33.339  15.713  1.00  0.00    -0.269 N 
HETATM    8  H   LIG     1      17.594  32.946  15.474  1.00  0.00     0.194 HD
BRANCH   7   9
HETATM    9  O   LIG     1      16.535  34.678  15.875  1.00  0.00    -0.289 OA
HETATM   10  H   LIG     1      16.304  34.798  16.831  1.00  0.00     0.244 HD
ENDBRANCH   7   9
ENDBRANCH   1   7
TORSDOF 2
ENDMDL
MODEL 13
REMARK VINA RESULT:      -4.8     11.372     12.309
REMARK  2 active torsions:
REMARK  status: ('A' for Active; 'I' for Inactive)
REMARK    1  A    between atoms: O_1  and  N_2 
REMARK    2  A    between atoms: N_2  and  C_3 
ROOT
HETATM    1  C   LIG     1      13.922  30.165  14.844  1.00  0.00     0.054 A 
HETATM    2  C   LIG     1      13.097  30.543  15.918  1.00  0.00     0.031 A 
HETATM    3  C   LIG     1      13.467  31.606  16.750  1.00  0.00     0.002 A 
HETATM    4  C   LIG     1      14.660  32.296  16.516  1.00  0.00     0.000 A 
HETATM    5  C   LIG     1      15.484  31.925  15.451  1.00  0.00     0.002 A 
HETATM    6  C   LIG     1      15.118  30.863  14.617  1.00  0.00     0.031 A 
ENDROOT
BRANCH   1   7
HETATM    7  N   LIG     1      13.556  29.078  13.981  1.00  0.00    -0.269 N 
HETATM    8  H   LIG     1      12.560  28.958  13.688  1.00  0.00     0.194 HD
BRANCH   7   9
HETATM    9  O   LIG     1      14.481  28.210  13.508  1.00  0.00    -0.289 OA
HETATM   10  H   LIG     1      15.064  28.755  12.920  1.00  0.00     0.244 HD
ENDBRANCH   7   9
ENDBRANCH   1   7
TORSDOF 2
ENDMDL
MODEL 14
REMARK VINA RESULT:      -4.8     11.387     12.222
REMARK  2 active torsions:
REMARK  status: ('A' for Active; 'I' for Inactive)
REMARK    1  A    between atoms: O_1  and  N_2 
REMARK    2  A    between atoms: N_2  and  C_3 
ROOT
HETATM    1  C   LIG     1      14.700  30.608  14.523  1.00  0.00     0.054 A 
HETATM    2  C   LIG     1      15.412  31.633  15.172  1.00  0.00     0.031 A 
HETATM    3  C   LIG     1      14.907  32.208  16.343  1.00  0.00     0.002 A 
HETATM    4  C   LIG     1      13.691  31.766  16.873  1.00  0.00     0.000 A 
HETATM    5  C   LIG     1      12.979  30.749  16.233  1.00  0.00     0.002 A 
HETATM    6  C   LIG     1      13.481  30.171  15.062  1.00  0.00     0.031 A 
ENDROOT
BRANCH   1   7
HETATM    7  N   LIG     1      15.206  30.007  13.322  1.00  0.00    -0.269 N 
HETATM    8  H   LIG     1      15.593  30.609  12.560  1.00  0.00     0.194 HD
BRANCH   7   9
HETATM    9  O   LIG     1      15.222  28.662  13.158  1.00  0.00    -0.289 OA
HETATM   10  H   LIG     1      14.920  28.517  12.226  1.00  0.00     0.244 HD
ENDBRANCH   7   9
ENDBRANCH   1   7
TORSDOF 2
ENDMDL
MODEL 15
REMARK VINA RESULT:      -4.7     10.703     11.659
REMARK  2 active torsions:
REMARK  status: ('A' for Active; 'I' for Inactive)
REMARK    1  A    between atoms: O_1  and  N_2 
REMARK    2  A    between atoms: N_2  and  C_3 
ROOT
HETATM    1  C   LIG     1      15.604  31.934  14.881  1.00  0.00     0.054 A 
HETATM    2  C   LIG     1      14.933  30.811  14.364  1.00  0.00     0.031 A 
HETATM    3  C   LIG     1      13.880  30.230  15.080  1.00  0.00     0.002 A 
HETATM    4  C   LIG     1      13.491  30.764  16.311  1.00  0.00     0.000 A 
HETATM    5  C   LIG     1      14.153  31.879  16.830  1.00  0.00     0.002 A 
HETATM    6  C   LIG     1      15.206  32.463  16.118  1.00  0.00     0.031 A 
ENDROOT
BRANCH   1   7
HETATM    7  N   LIG     1      16.684  32.542  14.158  1.00  0.00    -0.269 N 
HETATM    8  H   LIG     1      17.656  32.500  14.540  1.00  0.00     0.194 HD
BRANCH   7   9
HETATM    9  O   LIG     1      16.481  33.153  12.966  1.00  0.00    -0.289 OA
HETATM   10  H   LIG     1      15.628  32.775  12.630  1.00  0.00     0.244 HD
ENDBRANCH   7   9
ENDBRANCH   1   7
TORSDOF 2
ENDMDL
MODEL 16
REMARK VINA RESULT:      -4.6      4.467      5.014
REMARK  2 active torsions:
REMARK  status: ('A' for Active; 'I' for Inactive)
REMARK    1  A    between atoms: O_1  and  N_2 
REMARK    2  A    between atoms: N_2  and  C_3 
ROOT
HETATM    1  C   LIG     1      16.390  35.598  20.708  1.00  0.00     0.054 A 
HETATM    2  C   LIG     1      15.591  36.087  21.757  1.00  0.00     0.031 A 
HETATM    3  C   LIG     1      15.985  37.224  22.471  1.00  0.00     0.002 A 
HETATM    4  C   LIG     1      17.176  37.878  22.144  1.00  0.00     0.000 A 
HETATM    5  C   LIG     1      17.975  37.398  21.104  1.00  0.00     0.002 A 
HETATM    6  C   LIG     1      17.583  36.262  20.387  1.00  0.00     0.031 A 
ENDROOT
BRANCH   1   7
HETATM    7  N   LIG     1      15.998  34.434  19.965  1.00  0.00    -0.269 N 
HETATM    8  H   LIG     1      16.096  33.485  20.392  1.00  0.00     0.194 HD
BRANCH   7   9
HETATM    9  O   LIG     1      15.471  34.536  18.721  1.00  0.00    -0.289 OA
HETATM   10  H   LIG     1      14.855  33.763  18.643  1.00  0.00     0.244 HD
ENDBRANCH   7   9
ENDBRANCH   1   7
TORSDOF 2
ENDMDL
MODEL 17
REMARK VINA RESULT:      -3.8      6.988      8.238
REMARK  2 active torsions:
REMARK  status: ('A' for Active; 'I' for Inactive)
REMARK    1  A    between atoms: O_1  and  N_2 
REMARK    2  A    between atoms: N_2  and  C_3 
ROOT
HETATM    1  C   LIG     1      15.176  33.296  19.261  1.00  0.00     0.054 A 
HETATM    2  C   LIG     1      14.710  31.998  18.987  1.00  0.00     0.031 A 
HETATM    3  C   LIG     1      14.406  31.621  17.674  1.00  0.00     0.002 A 
HETATM    4  C   LIG     1      14.563  32.535  16.629  1.00  0.00     0.000 A 
HETATM    5  C   LIG     1      15.026  33.826  16.893  1.00  0.00     0.002 A 
HETATM    6  C   LIG     1      15.331  34.207  18.205  1.00  0.00     0.031 A 
ENDROOT
BRANCH   1   7
HETATM    7  N   LIG     1      15.494  33.697  20.601  1.00  0.00    -0.269 N 
HETATM    8  H   LIG     1      16.491  33.735  20.912  1.00  0.00     0.194 HD
BRANCH   7   9
HETATM    9  O   LIG     1      14.527  34.058  21.478  1.00  0.00    -0.289 OA
HETATM   10  H   LIG     1      15.004  34.549  22.195  1.00  0.00     0.244 HD
ENDBRANCH   7   9
ENDBRANCH   1   7
TORSDOF 2
ENDMDL
MODEL 18
REMARK VINA RESULT:      -3.4     15.411     16.219
REMARK  2 active torsions:
REMARK  status: ('A' for Active; 'I' for Inactive)
REMARK    1  A    between atoms: O_1  and  N_2 
REMARK    2  A    between atoms: N_2  and  C_3 
ROOT
HETATM    1  C   LIG     1      26.783  31.079  36.610  1.00  0.00     0.054 A 
HETATM    2  C   LIG     1      26.441  30.892  35.259  1.00  0.00     0.031 A 
HETATM    3  C   LIG     1      27.429  30.943  34.269  1.00  0.00     0.002 A 
HETATM    4  C   LIG     1      28.760  31.179  34.621  1.00  0.00     0.000 A 
HETATM    5  C   LIG     1      29.107  31.366  35.961  1.00  0.00     0.002 A 
HETATM    6  C   LIG     1      28.122  31.316  36.953  1.00  0.00     0.031 A 
ENDROOT
BRANCH   1   7
HETATM    7  N   LIG     1      25.781  31.028  37.636  1.00  0.00    -0.269 N 
HETATM    8  H   LIG     1      25.458  31.910  38.095  1.00  0.00     0.194 HD
BRANCH   7   9
HETATM    9  O   LIG     1      25.215  29.856  38.013  1.00  0.00    -0.289 OA
HETATM   10  H   LIG     1      24.283  29.906  37.681  1.00  0.00     0.244 HD
ENDBRANCH   7   9
ENDBRANCH   1   7
TORSDOF 2
ENDMDL
