MODEL 1
REMARK VINA RESULT:      -6.3      0.000      0.000
REMARK  2 active torsions:
REMARK  status: ('A' for Active; 'I' for Inactive)
REMARK    1  A    between atoms: N_1  and  N_2 
REMARK    2  A    between atoms: N_2  and  C_3 
ROOT
HETATM    1  C   LIG     1      17.115  37.137  24.777  1.00  0.00     0.042 A 
HETATM    2  C   LIG     1      17.804  37.405  25.972  1.00  0.00     0.030 A 
HETATM    3  C   LIG     1      18.364  36.360  26.713  1.00  0.00     0.002 A 
HETATM    4  C   LIG     1      18.240  35.041  26.269  1.00  0.00     0.000 A 
HETATM    5  C   LIG     1      17.556  34.764  25.083  1.00  0.00     0.002 A 
HETATM    6  C   LIG     1      16.994  35.806  24.337  1.00  0.00     0.030 A 
ENDROOT
BRANCH   1   7
HETATM    7  N   LIG     1      16.545  38.222  24.028  1.00  0.00    -0.324 N 
HETATM    8  H   LIG     1      17.076  39.116  23.928  1.00  0.00     0.180 HD
BRANCH   7   9
HETATM    9  N   LIG     1      15.283  38.109  23.423  1.00  0.00    -0.249 NA
HETATM   10  H   LIG     1      15.205  38.888  22.730  1.00  0.00     0.143 HD
HETATM   11  H   LIG     1      15.278  37.212  22.887  1.00  0.00     0.143 HD
ENDBRANCH   7   9
ENDBRANCH   1   7
TORSDOF 2
ENDMDL
MODEL 2
REMARK VINA RESULT:      -6.3      0.070      1.714
REMARK  2 active torsions:
REMARK  status: ('A' for Active; 'I' for Inactive)
REMARK    1  A    between atoms: N_1  and  N_2 
REMARK    2  A    between atoms: N_2  and  C_3 
ROOT
HETATM    1  C   LIG     1      17.101  37.148  24.723  1.00  0.00     0.042 A 
HETATM    2  C   LIG     1      17.001  35.809  24.310  1.00  0.00     0.030 A 
HETATM    3  C   LIG     1      17.556  34.788  25.086  1.00  0.00     0.002 A 
HETATM    4  C   LIG     1      18.216  35.094  26.280  1.00  0.00     0.000 A 
HETATM    5  C   LIG     1      18.321  36.423  26.699  1.00  0.00     0.002 A 
HETATM    6  C   LIG     1      17.766  37.449  25.926  1.00  0.00     0.030 A 
ENDROOT
BRANCH   1   7
HETATM    7  N   LIG     1      16.525  38.185  23.914  1.00  0.00    -0.324 N 
HETATM    8  H   LIG     1      17.090  39.034  23.683  1.00  0.00     0.180 HD
BRANCH   7   9
HETATM    9  N   LIG     1      15.215  38.086  23.421  1.00  0.00    -0.249 NA
HETATM   10  H   LIG     1      14.660  38.851  23.866  1.00  0.00     0.143 HD
HETATM   11  H   LIG     1      15.256  38.287  22.395  1.00  0.00     0.143 HD
ENDBRANCH   7   9
ENDBRANCH   1   7
TORSDOF 2
ENDMDL
MODEL 3
REMARK VINA RESULT:      -5.7      4.457      5.399
REMARK  2 active torsions:
REMARK  status: ('A' for Active; 'I' for Inactive)
REMARK    1  A    between atoms: N_1  and  N_2 
REMARK    2  A    between atoms: N_2  and  C_3 
ROOT
HETATM    1  C   LIG     1      18.758  38.599  20.612  1.00  0.00     0.042 A 
HETATM    2  C   LIG     1      18.703  37.345  19.981  1.00  0.00     0.030 A 
HETATM    3  C   LIG     1      17.863  36.343  20.476  1.00  0.00     0.002 A 
HETATM    4  C   LIG     1      17.073  36.583  21.603  1.00  0.00     0.000 A 
HETATM    5  C   LIG     1      17.121  37.827  22.238  1.00  0.00     0.002 A 
HETATM    6  C   LIG     1      17.959  38.834  21.746  1.00  0.00     0.030 A 
ENDROOT
BRANCH   1   7
HETATM    7  N   LIG     1      19.626  39.617  20.091  1.00  0.00    -0.324 N 
HETATM    8  H   LIG     1      19.557  40.594  20.459  1.00  0.00     0.180 HD
BRANCH   7   9
HETATM    9  N   LIG     1      20.572  39.333  19.094  1.00  0.00    -0.249 NA
HETATM   10  H   LIG     1      21.430  38.981  19.577  1.00  0.00     0.143 HD
HETATM   11  H   LIG     1      20.190  38.545  18.523  1.00  0.00     0.143 HD
ENDBRANCH   7   9
ENDBRANCH   1   7
TORSDOF 2
ENDMDL
MODEL 4
REMARK VINA RESULT:      -5.5      3.698      4.559
REMARK  2 active torsions:
REMARK  status: ('A' for Active; 'I' for Inactive)
REMARK    1  A    between atoms: N_1  and  N_2 
REMARK    2  A    between atoms: N_2  and  C_3 
ROOT
HETATM    1  C   LIG     1      17.397  38.204  22.013  1.00  0.00     0.042 A 
HETATM    2  C   LIG     1      18.257  39.199  21.521  1.00  0.00     0.030 A 
HETATM    3  C   LIG     1      19.083  38.938  20.423  1.00  0.00     0.002 A 
HETATM    4  C   LIG     1      19.059  37.683  19.810  1.00  0.00     0.000 A 
HETATM    5  C   LIG     1      18.207  36.686  20.293  1.00  0.00     0.002 A 
HETATM    6  C   LIG     1      17.378  36.942  21.391  1.00  0.00     0.030 A 
ENDROOT
BRANCH   1   7
HETATM    7  N   LIG     1      16.556  38.488  23.141  1.00  0.00    -0.324 N 
HETATM    8  H   LIG     1      16.962  38.952  23.986  1.00  0.00     0.180 HD
BRANCH   7   9
HETATM    9  N   LIG     1      15.192  38.158  23.138  1.00  0.00    -0.249 NA
HETATM   10  H   LIG     1      14.753  38.655  23.946  1.00  0.00     0.143 HD
HETATM   11  H   LIG     1      14.780  38.558  22.265  1.00  0.00     0.143 HD
ENDBRANCH   7   9
ENDBRANCH   1   7
TORSDOF 2
ENDMDL
MODEL 5
REMARK VINA RESULT:      -5.4     10.224     11.354
REMARK  2 active torsions:
REMARK  status: ('A' for Active; 'I' for Inactive)
REMARK    1  A    between atoms: N_1  and  N_2 
REMARK    2  A    between atoms: N_2  and  C_3 
ROOT
HETATM    1  C   LIG     1      14.023  31.492  16.452  1.00  0.00     0.042 A 
HETATM    2  C   LIG     1      13.373  30.446  15.777  1.00  0.00     0.030 A 
HETATM    3  C   LIG     1      13.889  29.952  14.575  1.00  0.00     0.002 A 
HETATM    4  C   LIG     1      15.057  30.500  14.037  1.00  0.00     0.000 A 
HETATM    5  C   LIG     1      15.711  31.541  14.700  1.00  0.00     0.002 A 
HETATM    6  C   LIG     1      15.198  32.038  15.904  1.00  0.00     0.030 A 
ENDROOT
BRANCH   1   7
HETATM    7  N   LIG     1      13.479  31.987  17.685  1.00  0.00    -0.324 N 
HETATM    8  H   LIG     1      12.552  32.470  17.684  1.00  0.00     0.180 HD
BRANCH   7   9
HETATM    9  N   LIG     1      14.164  31.836  18.900  1.00  0.00    -0.249 NA
HETATM   10  H   LIG     1      14.999  32.464  18.862  1.00  0.00     0.143 HD
HETATM   11  H   LIG     1      13.537  32.196  19.655  1.00  0.00     0.143 HD
ENDBRANCH   7   9
ENDBRANCH   1   7
TORSDOF 2
ENDMDL
MODEL 6
REMARK VINA RESULT:      -5.4     10.205     11.258
REMARK  2 active torsions:
REMARK  status: ('A' for Active; 'I' for Inactive)
REMARK    1  A    between atoms: N_1  and  N_2 
REMARK    2  A    between atoms: N_2  and  C_3 
ROOT
HETATM    1  C   LIG     1      14.019  31.474  16.439  1.00  0.00     0.042 A 
HETATM    2  C   LIG     1      15.199  32.038  15.927  1.00  0.00     0.030 A 
HETATM    3  C   LIG     1      15.746  31.565  14.730  1.00  0.00     0.002 A 
HETATM    4  C   LIG     1      15.121  30.525  14.036  1.00  0.00     0.000 A 
HETATM    5  C   LIG     1      13.947  29.957  14.538  1.00  0.00     0.002 A 
HETATM    6  C   LIG     1      13.395  30.428  15.735  1.00  0.00     0.030 A 
ENDROOT
BRANCH   1   7
HETATM    7  N   LIG     1      13.471  31.971  17.669  1.00  0.00    -0.324 N 
HETATM    8  H   LIG     1      12.528  32.422  17.670  1.00  0.00     0.180 HD
BRANCH   7   9
HETATM    9  N   LIG     1      14.174  31.864  18.879  1.00  0.00    -0.249 NA
HETATM   10  H   LIG     1      14.336  30.846  19.052  1.00  0.00     0.143 HD
HETATM   11  H   LIG     1      15.109  32.308  18.732  1.00  0.00     0.143 HD
ENDBRANCH   7   9
ENDBRANCH   1   7
TORSDOF 2
ENDMDL
MODEL 7
REMARK VINA RESULT:      -5.3      2.153      3.265
REMARK  2 active torsions:
REMARK  status: ('A' for Active; 'I' for Inactive)
REMARK    1  A    between atoms: N_1  and  N_2 
REMARK    2  A    between atoms: N_2  and  C_3 
ROOT
HETATM    1  C   LIG     1      17.145  36.806  24.022  1.00  0.00     0.042 A 
HETATM    2  C   LIG     1      17.278  37.763  23.003  1.00  0.00     0.030 A 
HETATM    3  C   LIG     1      17.294  37.368  21.662  1.00  0.00     0.002 A 
HETATM    4  C   LIG     1      17.179  36.016  21.327  1.00  0.00     0.000 A 
HETATM    5  C   LIG     1      17.047  35.056  22.334  1.00  0.00     0.002 A 
HETATM    6  C   LIG     1      17.029  35.446  23.678  1.00  0.00     0.030 A 
ENDROOT
BRANCH   1   7
HETATM    7  N   LIG     1      17.131  37.228  25.394  1.00  0.00    -0.324 N 
HETATM    8  H   LIG     1      17.019  36.517  26.153  1.00  0.00     0.180 HD
BRANCH   7   9
HETATM    9  N   LIG     1      17.266  38.580  25.745  1.00  0.00    -0.249 NA
HETATM   10  H   LIG     1      18.131  38.662  26.326  1.00  0.00     0.143 HD
HETATM   11  H   LIG     1      17.432  39.112  24.861  1.00  0.00     0.143 HD
ENDBRANCH   7   9
ENDBRANCH   1   7
TORSDOF 2
ENDMDL
MODEL 8
REMARK VINA RESULT:      -5.2      9.902     10.903
REMARK  2 active torsions:
REMARK  status: ('A' for Active; 'I' for Inactive)
REMARK    1  A    between atoms: N_1  and  N_2 
REMARK    2  A    between atoms: N_2  and  C_3 
ROOT
HETATM    1  C   LIG     1      14.884  32.322  16.360  1.00  0.00     0.042 A 
HETATM    2  C   LIG     1      15.446  31.743  15.210  1.00  0.00     0.030 A 
HETATM    3  C   LIG     1      14.807  30.676  14.573  1.00  0.00     0.002 A 
HETATM    4  C   LIG     1      13.603  30.177  15.077  1.00  0.00     0.000 A 
HETATM    5  C   LIG     1      13.036  30.746  16.221  1.00  0.00     0.002 A 
HETATM    6  C   LIG     1      13.672  31.814  16.862  1.00  0.00     0.030 A 
ENDROOT
BRANCH   1   7
HETATM    7  N   LIG     1      15.554  33.417  17.003  1.00  0.00    -0.324 N 
HETATM    8  H   LIG     1      15.715  33.390  18.036  1.00  0.00     0.180 HD
BRANCH   7   9
HETATM    9  N   LIG     1      16.002  34.529  16.274  1.00  0.00    -0.249 NA
HETATM   10  H   LIG     1      16.005  35.344  16.929  1.00  0.00     0.143 HD
HETATM   11  H   LIG     1      16.994  34.342  16.005  1.00  0.00     0.143 HD
ENDBRANCH   7   9
ENDBRANCH   1   7
TORSDOF 2
ENDMDL
MODEL 9
REMARK VINA RESULT:      -5.2      9.957     10.910
REMARK  2 active torsions:
REMARK  status: ('A' for Active; 'I' for Inactive)
REMARK    1  A    between atoms: N_1  and  N_2 
REMARK    2  A    between atoms: N_2  and  C_3 
ROOT
HETATM    1  C   LIG     1      14.945  32.284  16.299  1.00  0.00     0.042 A 
HETATM    2  C   LIG     1      13.744  31.799  16.842  1.00  0.00     0.030 A 
HETATM    3  C   LIG     1      13.065  30.745  16.225  1.00  0.00     0.002 A 
HETATM    4  C   LIG     1      13.577  30.168  15.060  1.00  0.00     0.000 A 
HETATM    5  C   LIG     1      14.771  30.644  14.511  1.00  0.00     0.002 A 
HETATM    6  C   LIG     1      15.455  31.698  15.126  1.00  0.00     0.030 A 
ENDROOT
BRANCH   1   7
HETATM    7  N   LIG     1      15.630  33.368  16.946  1.00  0.00    -0.324 N 
HETATM    8  H   LIG     1      15.870  33.296  17.961  1.00  0.00     0.180 HD
BRANCH   7   9
HETATM    9  N   LIG     1      15.988  34.529  16.244  1.00  0.00    -0.249 NA
HETATM   10  H   LIG     1      15.240  35.238  16.420  1.00  0.00     0.143 HD
HETATM   11  H   LIG     1      16.868  34.891  16.677  1.00  0.00     0.143 HD
ENDBRANCH   7   9
ENDBRANCH   1   7
TORSDOF 2
ENDMDL
MODEL 10
REMARK VINA RESULT:      -5.1     11.556     12.549
REMARK  2 active torsions:
REMARK  status: ('A' for Active; 'I' for Inactive)
REMARK    1  A    between atoms: N_1  and  N_2 
REMARK    2  A    between atoms: N_2  and  C_3 
ROOT
HETATM    1  C   LIG     1      14.067  29.964  14.559  1.00  0.00     0.042 A 
HETATM    2  C   LIG     1      15.253  30.612  14.178  1.00  0.00     0.030 A 
HETATM    3  C   LIG     1      15.739  31.690  14.924  1.00  0.00     0.002 A 
HETATM    4  C   LIG     1      15.046  32.131  16.054  1.00  0.00     0.000 A 
HETATM    5  C   LIG     1      13.864  31.492  16.441  1.00  0.00     0.002 A 
HETATM    6  C   LIG     1      13.374  30.413  15.699  1.00  0.00     0.030 A 
ENDROOT
BRANCH   1   7
HETATM    7  N   LIG     1      13.581  28.858  13.782  1.00  0.00    -0.324 N 
HETATM    8  H   LIG     1      14.257  28.267  13.246  1.00  0.00     0.180 HD
BRANCH   7   9
HETATM    9  N   LIG     1      12.214  28.549  13.725  1.00  0.00    -0.249 NA
HETATM   10  H   LIG     1      12.034  28.124  12.787  1.00  0.00     0.143 HD
HETATM   11  H   LIG     1      12.035  27.810  14.442  1.00  0.00     0.143 HD
ENDBRANCH   7   9
ENDBRANCH   1   7
TORSDOF 2
ENDMDL
MODEL 11
REMARK VINA RESULT:      -5.1      4.248      5.323
REMARK  2 active torsions:
REMARK  status: ('A' for Active; 'I' for Inactive)
REMARK    1  A    between atoms: N_1  and  N_2 
REMARK    2  A    between atoms: N_2  and  C_3 
ROOT
HETATM    1  C   LIG     1      17.571  37.397  21.343  1.00  0.00     0.042 A 
HETATM    2  C   LIG     1      18.143  36.580  20.352  1.00  0.00     0.030 A 
HETATM    3  C   LIG     1      19.126  37.089  19.499  1.00  0.00     0.002 A 
HETATM    4  C   LIG     1      19.547  38.416  19.626  1.00  0.00     0.000 A 
HETATM    5  C   LIG     1      18.984  39.236  20.608  1.00  0.00     0.002 A 
HETATM    6  C   LIG     1      17.999  38.731  21.464  1.00  0.00     0.030 A 
ENDROOT
BRANCH   1   7
HETATM    7  N   LIG     1      16.562  36.858  22.210  1.00  0.00    -0.324 N 
HETATM    8  H   LIG     1      16.648  36.985  23.245  1.00  0.00     0.180 HD
BRANCH   7   9
HETATM    9  N   LIG     1      15.454  36.164  21.701  1.00  0.00    -0.249 NA
HETATM   10  H   LIG     1      15.602  35.151  21.913  1.00  0.00     0.143 HD
HETATM   11  H   LIG     1      14.617  36.477  22.244  1.00  0.00     0.143 HD
ENDBRANCH   7   9
ENDBRANCH   1   7
TORSDOF 2
ENDMDL
MODEL 12
REMARK VINA RESULT:      -5.0      4.062      4.862
REMARK  2 active torsions:
REMARK  status: ('A' for Active; 'I' for Inactive)
REMARK    1  A    between atoms: N_1  and  N_2 
REMARK    2  A    between atoms: N_2  and  C_3 
ROOT
HETATM    1  C   LIG     1      15.524  35.822  21.493  1.00  0.00     0.042 A 
HETATM    2  C   LIG     1      16.602  35.549  20.635  1.00  0.00     0.030 A 
HETATM    3  C   LIG     1      17.714  36.395  20.608  1.00  0.00     0.002 A 
HETATM    4  C   LIG     1      17.759  37.521  21.434  1.00  0.00     0.000 A 
HETATM    5  C   LIG     1      16.692  37.802  22.291  1.00  0.00     0.002 A 
HETATM    6  C   LIG     1      15.576  36.957  22.323  1.00  0.00     0.030 A 
ENDROOT
BRANCH   1   7
HETATM    7  N   LIG     1      14.389  34.943  21.508  1.00  0.00    -0.324 N 
HETATM    8  H   LIG     1      13.465  35.297  21.849  1.00  0.00     0.180 HD
BRANCH   7   9
HETATM    9  N   LIG     1      14.488  33.613  21.073  1.00  0.00    -0.249 NA
HETATM   10  H   LIG     1      15.449  33.489  20.681  1.00  0.00     0.143 HD
HETATM   11  H   LIG     1      14.416  33.005  21.921  1.00  0.00     0.143 HD
ENDBRANCH   7   9
ENDBRANCH   1   7
TORSDOF 2
ENDMDL
MODEL 13
REMARK VINA RESULT:      -4.9      2.342      3.393
REMARK  2 active torsions:
REMARK  status: ('A' for Active; 'I' for Inactive)
REMARK    1  A    between atoms: N_1  and  N_2 
REMARK    2  A    between atoms: N_2  and  C_3 
ROOT
HETATM    1  C   LIG     1      17.238  36.370  24.518  1.00  0.00     0.042 A 
HETATM    2  C   LIG     1      17.387  37.766  24.470  1.00  0.00     0.030 A 
HETATM    3  C   LIG     1      17.342  38.439  23.246  1.00  0.00     0.002 A 
HETATM    4  C   LIG     1      17.148  37.726  22.060  1.00  0.00     0.000 A 
HETATM    5  C   LIG     1      16.998  36.337  22.097  1.00  0.00     0.002 A 
HETATM    6  C   LIG     1      17.043  35.659  23.320  1.00  0.00     0.030 A 
ENDROOT
BRANCH   1   7
HETATM    7  N   LIG     1      17.288  35.695  25.784  1.00  0.00    -0.324 N 
HETATM    8  H   LIG     1      16.818  34.767  25.894  1.00  0.00     0.180 HD
BRANCH   7   9
HETATM    9  N   LIG     1      17.958  36.251  26.884  1.00  0.00    -0.249 NA
HETATM   10  H   LIG     1      18.053  35.496  27.600  1.00  0.00     0.143 HD
HETATM   11  H   LIG     1      18.921  36.501  26.564  1.00  0.00     0.143 HD
ENDBRANCH   7   9
ENDBRANCH   1   7
TORSDOF 2
ENDMDL
MODEL 14
REMARK VINA RESULT:      -4.9     11.257     12.302
REMARK  2 active torsions:
REMARK  status: ('A' for Active; 'I' for Inactive)
REMARK    1  A    between atoms: N_1  and  N_2 
REMARK    2  A    between atoms: N_2  and  C_3 
ROOT
HETATM    1  C   LIG     1      14.644  30.546  14.528  1.00  0.00     0.042 A 
HETATM    2  C   LIG     1      13.416  30.168  15.096  1.00  0.00     0.030 A 
HETATM    3  C   LIG     1      12.952  30.795  16.256  1.00  0.00     0.002 A 
HETATM    4  C   LIG     1      13.710  31.802  16.860  1.00  0.00     0.000 A 
HETATM    5  C   LIG     1      14.933  32.185  16.303  1.00  0.00     0.002 A 
HETATM    6  C   LIG     1      15.401  31.562  15.141  1.00  0.00     0.030 A 
ENDROOT
BRANCH   1   7
HETATM    7  N   LIG     1      15.106  29.892  13.336  1.00  0.00    -0.324 N 
HETATM    8  H   LIG     1      15.361  30.464  12.499  1.00  0.00     0.180 HD
BRANCH   7   9
HETATM    9  N   LIG     1      15.226  28.496  13.268  1.00  0.00    -0.249 NA
HETATM   10  H   LIG     1      16.018  28.224  13.893  1.00  0.00     0.143 HD
HETATM   11  H   LIG     1      14.353  28.092  13.677  1.00  0.00     0.143 HD
ENDBRANCH   7   9
ENDBRANCH   1   7
TORSDOF 2
ENDMDL
MODEL 15
REMARK VINA RESULT:      -4.7      4.005      4.819
REMARK  2 active torsions:
REMARK  status: ('A' for Active; 'I' for Inactive)
REMARK    1  A    between atoms: N_1  and  N_2 
REMARK    2  A    between atoms: N_2  and  C_3 
ROOT
HETATM    1  C   LIG     1      18.005  37.735  20.991  1.00  0.00     0.042 A 
HETATM    2  C   LIG     1      17.283  36.564  21.278  1.00  0.00     0.030 A 
HETATM    3  C   LIG     1      16.286  36.573  22.258  1.00  0.00     0.002 A 
HETATM    4  C   LIG     1      16.002  37.747  22.959  1.00  0.00     0.000 A 
HETATM    5  C   LIG     1      16.714  38.917  22.681  1.00  0.00     0.002 A 
HETATM    6  C   LIG     1      17.713  38.914  21.701  1.00  0.00     0.030 A 
ENDROOT
BRANCH   1   7
HETATM    7  N   LIG     1      19.026  37.709  19.982  1.00  0.00    -0.324 N 
HETATM    8  H   LIG     1      19.471  38.604  19.673  1.00  0.00     0.180 HD
BRANCH   7   9
HETATM    9  N   LIG     1      19.445  36.505  19.397  1.00  0.00    -0.249 NA
HETATM   10  H   LIG     1      20.467  36.599  19.199  1.00  0.00     0.143 HD
HETATM   11  H   LIG     1      19.335  35.757  20.118  1.00  0.00     0.143 HD
ENDBRANCH   7   9
ENDBRANCH   1   7
TORSDOF 2
ENDMDL
MODEL 16
REMARK VINA RESULT:      -4.6      9.880     10.976
REMARK  2 active torsions:
REMARK  status: ('A' for Active; 'I' for Inactive)
REMARK    1  A    between atoms: N_1  and  N_2 
REMARK    2  A    between atoms: N_2  and  C_3 
ROOT
HETATM    1  C   LIG     1      16.316  32.802  15.459  1.00  0.00     0.042 A 
HETATM    2  C   LIG     1      16.271  31.899  14.384  1.00  0.00     0.030 A 
HETATM    3  C   LIG     1      15.288  30.906  14.336  1.00  0.00     0.002 A 
HETATM    4  C   LIG     1      14.343  30.806  15.361  1.00  0.00     0.000 A 
HETATM    5  C   LIG     1      14.380  31.699  16.435  1.00  0.00     0.002 A 
HETATM    6  C   LIG     1      15.362  32.694  16.487  1.00  0.00     0.030 A 
ENDROOT
BRANCH   1   7
HETATM    7  N   LIG     1      17.333  33.815  15.493  1.00  0.00    -0.324 N 
HETATM    8  H   LIG     1      18.251  33.612  15.951  1.00  0.00     0.180 HD
BRANCH   7   9
HETATM    9  N   LIG     1      17.125  35.079  14.921  1.00  0.00    -0.249 NA
HETATM   10  H   LIG     1      18.022  35.608  15.008  1.00  0.00     0.143 HD
HETATM   11  H   LIG     1      16.949  34.931  13.901  1.00  0.00     0.143 HD
ENDBRANCH   7   9
ENDBRANCH   1   7
TORSDOF 2
ENDMDL
MODEL 17
REMARK VINA RESULT:      -4.5      3.446      4.294
REMARK  2 active torsions:
REMARK  status: ('A' for Active; 'I' for Inactive)
REMARK    1  A    between atoms: N_1  and  N_2 
REMARK    2  A    between atoms: N_2  and  C_3 
ROOT
HETATM    1  C   LIG     1      16.082  37.204  22.383  1.00  0.00     0.042 A 
HETATM    2  C   LIG     1      14.963  36.430  22.033  1.00  0.00     0.030 A 
HETATM    3  C   LIG     1      15.061  35.461  21.030  1.00  0.00     0.002 A 
HETATM    4  C   LIG     1      16.275  35.259  20.367  1.00  0.00     0.000 A 
HETATM    5  C   LIG     1      17.393  36.024  20.708  1.00  0.00     0.002 A 
HETATM    6  C   LIG     1      17.301  36.994  21.712  1.00  0.00     0.030 A 
ENDROOT
BRANCH   1   7
HETATM    7  N   LIG     1      15.964  38.195  23.416  1.00  0.00    -0.324 N 
HETATM    8  H   LIG     1      15.354  38.008  24.245  1.00  0.00     0.180 HD
BRANCH   7   9
HETATM    9  N   LIG     1      16.652  39.415  23.340  1.00  0.00    -0.249 NA
HETATM   10  H   LIG     1      16.720  39.668  22.328  1.00  0.00     0.143 HD
HETATM   11  H   LIG     1      16.052  40.136  23.802  1.00  0.00     0.143 HD
ENDBRANCH   7   9
ENDBRANCH   1   7
TORSDOF 2
ENDMDL
MODEL 18
REMARK VINA RESULT:      -4.3     13.101     14.042
REMARK  2 active torsions:
REMARK  status: ('A' for Active; 'I' for Inactive)
REMARK    1  A    between atoms: N_1  and  N_2 
REMARK    2  A    between atoms: N_2  and  C_3 
ROOT
HETATM    1  C   LIG     1      18.781  34.206  11.930  1.00  0.00     0.042 A 
HETATM    2  C   LIG     1      18.851  34.785  10.652  1.00  0.00     0.030 A 
HETATM    3  C   LIG     1      20.087  35.145  10.107  1.00  0.00     0.002 A 
HETATM    4  C   LIG     1      21.262  34.931  10.832  1.00  0.00     0.000 A 
HETATM    5  C   LIG     1      21.203  34.356  12.104  1.00  0.00     0.002 A 
HETATM    6  C   LIG     1      19.968  33.994  12.654  1.00  0.00     0.030 A 
ENDROOT
BRANCH   1   7
HETATM    7  N   LIG     1      17.503  33.844  12.475  1.00  0.00    -0.324 N 
HETATM    8  H   LIG     1      16.765  34.575  12.594  1.00  0.00     0.180 HD
BRANCH   7   9
HETATM    9  N   LIG     1      17.218  32.523  12.854  1.00  0.00    -0.249 NA
HETATM   10  H   LIG     1      17.909  32.259  13.592  1.00  0.00     0.143 HD
HETATM   11  H   LIG     1      16.273  32.528  13.301  1.00  0.00     0.143 HD
ENDBRANCH   7   9
ENDBRANCH   1   7
TORSDOF 2
ENDMDL
MODEL 19
REMARK VINA RESULT:      -3.8      6.775      7.997
REMARK  2 active torsions:
REMARK  status: ('A' for Active; 'I' for Inactive)
REMARK    1  A    between atoms: N_1  and  N_2 
REMARK    2  A    between atoms: N_2  and  C_3 
ROOT
HETATM    1  C   LIG     1      15.207  33.425  19.334  1.00  0.00     0.042 A 
HETATM    2  C   LIG     1      15.344  34.398  18.330  1.00  0.00     0.030 A 
HETATM    3  C   LIG     1      15.104  34.071  16.993  1.00  0.00     0.002 A 
HETATM    4  C   LIG     1      14.726  32.772  16.645  1.00  0.00     0.000 A 
HETATM    5  C   LIG     1      14.588  31.796  17.636  1.00  0.00     0.002 A 
HETATM    6  C   LIG     1      14.827  32.118  18.977  1.00  0.00     0.030 A 
ENDROOT
BRANCH   1   7
HETATM    7  N   LIG     1      15.459  33.777  20.703  1.00  0.00    -0.324 N 
HETATM    8  H   LIG     1      16.405  33.609  21.115  1.00  0.00     0.180 HD
BRANCH   7   9
HETATM    9  N   LIG     1      14.459  34.347  21.507  1.00  0.00    -0.249 NA
HETATM   10  H   LIG     1      13.815  34.870  20.872  1.00  0.00     0.143 HD
HETATM   11  H   LIG     1      13.914  33.559  21.925  1.00  0.00     0.143 HD
ENDBRANCH   7   9
ENDBRANCH   1   7
TORSDOF 2
ENDMDL
MODEL 20
REMARK VINA RESULT:      -3.7     13.289     14.198
REMARK  2 active torsions:
REMARK  status: ('A' for Active; 'I' for Inactive)
REMARK    1  A    between atoms: N_1  and  N_2 
REMARK    2  A    between atoms: N_2  and  C_3 
ROOT
HETATM    1  C   LIG     1      21.201  34.486  12.286  1.00  0.00     0.042 A 
HETATM    2  C   LIG     1      21.388  35.024  11.002  1.00  0.00     0.030 A 
HETATM    3  C   LIG     1      20.312  35.128  10.116  1.00  0.00     0.002 A 
HETATM    4  C   LIG     1      19.041  34.694  10.503  1.00  0.00     0.000 A 
HETATM    5  C   LIG     1      18.845  34.156  11.778  1.00  0.00     0.002 A 
HETATM    6  C   LIG     1      19.919  34.051  12.669  1.00  0.00     0.030 A 
ENDROOT
BRANCH   1   7
HETATM    7  N   LIG     1      22.317  34.386  13.184  1.00  0.00    -0.324 N 
HETATM    8  H   LIG     1      22.532  33.471  13.643  1.00  0.00     0.180 HD
BRANCH   7   9
HETATM    9  N   LIG     1      23.134  35.493  13.461  1.00  0.00    -0.249 NA
HETATM   10  H   LIG     1      23.569  35.327  14.396  1.00  0.00     0.143 HD
HETATM   11  H   LIG     1      23.904  35.492  12.754  1.00  0.00     0.143 HD
ENDBRANCH   7   9
ENDBRANCH   1   7
TORSDOF 2
ENDMDL
