REMARK  1 active torsions:
REMARK  status: ('A' for Active; 'I' for Inactive)
REMARK    1  A    between atoms: C_2  and  C_3 
ROOT
HETATM    1  C   LIG     1       0.436   0.201   0.013  1.00  0.00    -0.037 A 
HETATM    2  C   LIG     1      -0.186  -1.055  -0.149  1.00  0.00     0.011 A 
HETATM    3  C   LIG     1      -1.572  -1.142  -0.317  1.00  0.00     0.001 A 
HETATM    4  C   LIG     1      -2.351   0.017  -0.332  1.00  0.00     0.000 A 
HETATM    5  C   LIG     1      -1.746   1.266  -0.185  1.00  0.00     0.001 A 
HETATM    6  C   LIG     1      -0.361   1.359  -0.018  1.00  0.00     0.011 A 
ENDROOT
BRANCH   1   7
HETATM    7  C   LIG     1       1.902   0.354   0.186  1.00  0.00     0.001 C 
HETATM    8  C   LIG     1       2.724  -0.636   0.536  1.00  0.00     0.012 C 
ENDBRANCH   1   7
TORSDOF 1
