REMARK  2 active torsions:
REMARK  status: ('A' for Active; 'I' for Inactive)
REMARK    1  A    between atoms: N_1  and  N_2 
REMARK    2  A    between atoms: N_2  and  C_3 
ROOT
HETATM    1  C   LIG     1       0.402  -0.215  -0.008  1.00  0.00     0.042 A 
HETATM    2  C   LIG     1      -0.470  -1.314   0.064  1.00  0.00     0.030 A 
HETATM    3  C   LIG     1      -1.853  -1.116   0.109  1.00  0.00     0.002 A 
HETATM    4  C   LIG     1      -2.377   0.179   0.084  1.00  0.00     0.000 A 
HETATM    5  C   LIG     1      -1.518   1.279   0.013  1.00  0.00     0.002 A 
HETATM    6  C   LIG     1      -0.133   1.086  -0.033  1.00  0.00     0.030 A 
ENDROOT
BRANCH   1   7
HETATM    7  N   LIG     1       1.820  -0.436  -0.053  1.00  0.00    -0.324 N 
HETATM    8  H   LIG     1       2.192  -1.413  -0.033  1.00  0.00     0.180 HD
BRANCH   7   9
HETATM    9  N   LIG     1       2.725   0.634  -0.125  1.00  0.00    -0.249 NA
HETATM   10  H   LIG     1       3.365   0.551   0.697  1.00  0.00     0.143 HD
HETATM   11  H   LIG     1       3.302   0.492  -0.985  1.00  0.00     0.143 HD
ENDBRANCH   7   9
ENDBRANCH   1   7
TORSDOF 2
