MODEL 1
REMARK VINA RESULT:      -5.3      0.000      0.000
REMARK  2 active torsions:
REMARK  status: ('A' for Active; 'I' for Inactive)
REMARK    1  A    between atoms: O_1  and  C_2 
REMARK    2  A    between atoms: C_2  and  C_3 
ROOT
HETATM    1  C   LIG     1      17.177  37.023  24.508  1.00  0.00    -0.017 A 
HETATM    2  C   LIG     1      17.829  37.441  25.677  1.00  0.00     0.012 A 
HETATM    3  C   LIG     1      18.317  36.495  26.580  1.00  0.00     0.020 A 
HETATM    4  C   LIG     1      18.147  35.137  26.307  1.00  0.00     0.116 A 
HETATM    5  N   LIG     1      17.511  34.745  25.171  1.00  0.00    -0.273 NA
HETATM    6  C   LIG     1      17.027  35.647  24.275  1.00  0.00     0.125 A 
ENDROOT
BRANCH   1   7
HETATM    7  C   LIG     1      16.646  38.037  23.530  1.00  0.00     0.204 C 
BRANCH   7   8
HETATM    8  O   LIG     1      15.248  38.096  23.604  1.00  0.00    -0.396 OA
HETATM    9  H   LIG     1      15.006  37.902  24.548  1.00  0.00     0.209 HD
ENDBRANCH   7   8
ENDBRANCH   1   7
TORSDOF 2
ENDMDL
MODEL 2
REMARK VINA RESULT:      -5.0      3.174      4.401
REMARK  2 active torsions:
REMARK  status: ('A' for Active; 'I' for Inactive)
REMARK    1  A    between atoms: O_1  and  C_2 
REMARK    2  A    between atoms: C_2  and  C_3 
ROOT
HETATM    1  C   LIG     1      17.245  37.559  22.010  1.00  0.00    -0.017 A 
HETATM    2  C   LIG     1      18.010  38.679  21.655  1.00  0.00     0.012 A 
HETATM    3  C   LIG     1      18.812  38.644  20.514  1.00  0.00     0.020 A 
HETATM    4  C   LIG     1      18.842  37.486  19.734  1.00  0.00     0.116 A 
HETATM    5  N   LIG     1      18.096  36.406  20.090  1.00  0.00    -0.273 NA
HETATM    6  C   LIG     1      17.307  36.416  21.198  1.00  0.00     0.125 A 
ENDROOT
BRANCH   1   7
HETATM    7  C   LIG     1      16.380  37.589  23.241  1.00  0.00     0.204 C 
BRANCH   7   8
HETATM    8  O   LIG     1      15.184  38.269  22.978  1.00  0.00    -0.396 OA
HETATM    9  H   LIG     1      14.912  38.702  23.830  1.00  0.00     0.209 HD
ENDBRANCH   7   8
ENDBRANCH   1   7
TORSDOF 2
ENDMDL
MODEL 3
REMARK VINA RESULT:      -4.8      4.481      5.530
REMARK  2 active torsions:
REMARK  status: ('A' for Active; 'I' for Inactive)
REMARK    1  A    between atoms: O_1  and  C_2 
REMARK    2  A    between atoms: C_2  and  C_3 
ROOT
HETATM    1  C   LIG     1      17.879  36.944  20.762  1.00  0.00    -0.017 A 
HETATM    2  C   LIG     1      18.814  36.922  19.717  1.00  0.00     0.012 A 
HETATM    3  C   LIG     1      19.633  38.028  19.489  1.00  0.00     0.020 A 
HETATM    4  C   LIG     1      19.510  39.151  20.308  1.00  0.00     0.116 A 
HETATM    5  N   LIG     1      18.599  39.162  21.318  1.00  0.00    -0.273 NA
HETATM    6  C   LIG     1      17.789  38.095  21.561  1.00  0.00     0.125 A 
ENDROOT
BRANCH   1   7
HETATM    7  C   LIG     1      16.991  35.756  21.013  1.00  0.00     0.204 C 
BRANCH   7   8
HETATM    8  O   LIG     1      16.471  35.275  19.804  1.00  0.00    -0.396 OA
HETATM    9  H   LIG     1      17.058  35.627  19.084  1.00  0.00     0.209 HD
ENDBRANCH   7   8
ENDBRANCH   1   7
TORSDOF 2
ENDMDL
MODEL 4
REMARK VINA RESULT:      -4.7      2.153      3.312
REMARK  2 active torsions:
REMARK  status: ('A' for Active; 'I' for Inactive)
REMARK    1  A    between atoms: O_1  and  C_2 
REMARK    2  A    between atoms: C_2  and  C_3 
ROOT
HETATM    1  C   LIG     1      17.269  36.973  24.319  1.00  0.00    -0.017 A 
HETATM    2  C   LIG     1      17.168  35.601  24.049  1.00  0.00     0.012 A 
HETATM    3  C   LIG     1      16.940  35.161  22.744  1.00  0.00     0.020 A 
HETATM    4  C   LIG     1      16.813  36.100  21.718  1.00  0.00     0.116 A 
HETATM    5  N   LIG     1      16.912  37.428  21.994  1.00  0.00    -0.273 NA
HETATM    6  C   LIG     1      17.134  37.881  23.258  1.00  0.00     0.125 A 
ENDROOT
BRANCH   1   7
HETATM    7  C   LIG     1      17.512  37.455  25.724  1.00  0.00     0.204 C 
BRANCH   7   8
HETATM    8  O   LIG     1      17.266  38.831  25.815  1.00  0.00    -0.396 OA
HETATM    9  H   LIG     1      17.189  39.041  26.783  1.00  0.00     0.209 HD
ENDBRANCH   7   8
ENDBRANCH   1   7
TORSDOF 2
ENDMDL
MODEL 5
REMARK VINA RESULT:      -4.7      4.461      5.432
REMARK  2 active torsions:
REMARK  status: ('A' for Active; 'I' for Inactive)
REMARK    1  A    between atoms: O_1  and  C_2 
REMARK    2  A    between atoms: C_2  and  C_3 
ROOT
HETATM    1  C   LIG     1      18.961  38.167  20.273  1.00  0.00    -0.017 A 
HETATM    2  C   LIG     1      18.611  36.842  19.975  1.00  0.00     0.012 A 
HETATM    3  C   LIG     1      17.596  36.210  20.694  1.00  0.00     0.020 A 
HETATM    4  C   LIG     1      16.938  36.909  21.708  1.00  0.00     0.116 A 
HETATM    5  N   LIG     1      17.289  38.192  21.989  1.00  0.00    -0.273 NA
HETATM    6  C   LIG     1      18.275  38.831  21.302  1.00  0.00     0.125 A 
ENDROOT
BRANCH   1   7
HETATM    7  C   LIG     1      20.057  38.854  19.504  1.00  0.00     0.204 C 
BRANCH   7   8
HETATM    8  O   LIG     1      19.544  39.421  18.330  1.00  0.00    -0.396 OA
HETATM    9  H   LIG     1      19.766  38.794  17.593  1.00  0.00     0.209 HD
ENDBRANCH   7   8
ENDBRANCH   1   7
TORSDOF 2
ENDMDL
MODEL 6
REMARK VINA RESULT:      -4.7      3.691      4.226
REMARK  2 active torsions:
REMARK  status: ('A' for Active; 'I' for Inactive)
REMARK    1  A    between atoms: O_1  and  C_2 
REMARK    2  A    between atoms: C_2  and  C_3 
ROOT
HETATM    1  C   LIG     1      16.274  36.696  21.884  1.00  0.00    -0.017 A 
HETATM    2  C   LIG     1      17.473  37.031  21.239  1.00  0.00     0.012 A 
HETATM    3  C   LIG     1      18.093  38.252  21.508  1.00  0.00     0.020 A 
HETATM    4  C   LIG     1      17.507  39.130  22.422  1.00  0.00     0.116 A 
HETATM    5  N   LIG     1      16.343  38.794  23.039  1.00  0.00    -0.273 NA
HETATM    6  C   LIG     1      15.719  37.610  22.793  1.00  0.00     0.125 A 
ENDROOT
BRANCH   1   7
HETATM    7  C   LIG     1      15.598  35.383  21.596  1.00  0.00     0.204 C 
BRANCH   7   8
HETATM    8  O   LIG     1      14.260  35.593  21.239  1.00  0.00    -0.396 OA
HETATM    9  H   LIG     1      13.731  35.546  22.079  1.00  0.00     0.209 HD
ENDBRANCH   7   8
ENDBRANCH   1   7
TORSDOF 2
ENDMDL
MODEL 7
REMARK VINA RESULT:      -4.6     10.372     11.492
REMARK  2 active torsions:
REMARK  status: ('A' for Active; 'I' for Inactive)
REMARK    1  A    between atoms: O_1  and  C_2 
REMARK    2  A    between atoms: C_2  and  C_3 
ROOT
HETATM    1  C   LIG     1      14.695  31.729  15.924  1.00  0.00    -0.017 A 
HETATM    2  C   LIG     1      13.853  30.657  15.593  1.00  0.00     0.012 A 
HETATM    3  C   LIG     1      14.136  29.865  14.480  1.00  0.00     0.020 A 
HETATM    4  C   LIG     1      15.259  30.151  13.703  1.00  0.00     0.116 A 
HETATM    5  N   LIG     1      16.067  31.195  14.033  1.00  0.00    -0.273 NA
HETATM    6  C   LIG     1      15.813  31.982  15.114  1.00  0.00     0.125 A 
ENDROOT
BRANCH   1   7
HETATM    7  C   LIG     1      14.396  32.589  17.121  1.00  0.00     0.204 C 
BRANCH   7   8
HETATM    8  O   LIG     1      13.693  31.853  18.084  1.00  0.00    -0.396 OA
HETATM    9  H   LIG     1      13.522  32.472  18.843  1.00  0.00     0.209 HD
ENDBRANCH   7   8
ENDBRANCH   1   7
TORSDOF 2
ENDMDL
MODEL 8
REMARK VINA RESULT:      -4.6      3.886      4.611
REMARK  2 active torsions:
REMARK  status: ('A' for Active; 'I' for Inactive)
REMARK    1  A    between atoms: O_1  and  C_2 
REMARK    2  A    between atoms: C_2  and  C_3 
ROOT
HETATM    1  C   LIG     1      18.360  38.027  20.763  1.00  0.00    -0.017 A 
HETATM    2  C   LIG     1      17.929  39.030  21.643  1.00  0.00     0.012 A 
HETATM    3  C   LIG     1      16.917  38.762  22.565  1.00  0.00     0.020 A 
HETATM    4  C   LIG     1      16.341  37.491  22.600  1.00  0.00     0.116 A 
HETATM    5  N   LIG     1      16.767  36.527  21.739  1.00  0.00    -0.273 NA
HETATM    6  C   LIG     1      17.752  36.763  20.831  1.00  0.00     0.125 A 
ENDROOT
BRANCH   1   7
HETATM    7  C   LIG     1      19.449  38.309  19.764  1.00  0.00     0.204 C 
BRANCH   7   8
HETATM    8  O   LIG     1      20.015  39.568  20.006  1.00  0.00    -0.396 OA
HETATM    9  H   LIG     1      19.985  40.062  19.144  1.00  0.00     0.209 HD
ENDBRANCH   7   8
ENDBRANCH   1   7
TORSDOF 2
ENDMDL
MODEL 9
REMARK VINA RESULT:      -4.6      4.405      5.114
REMARK  2 active torsions:
REMARK  status: ('A' for Active; 'I' for Inactive)
REMARK    1  A    between atoms: O_1  and  C_2 
REMARK    2  A    between atoms: C_2  and  C_3 
ROOT
HETATM    1  C   LIG     1      17.768  36.853  20.859  1.00  0.00    -0.017 A 
HETATM    2  C   LIG     1      17.622  37.961  21.706  1.00  0.00     0.012 A 
HETATM    3  C   LIG     1      18.419  39.092  21.521  1.00  0.00     0.020 A 
HETATM    4  C   LIG     1      19.358  39.105  20.489  1.00  0.00     0.116 A 
HETATM    5  N   LIG     1      19.491  38.023  19.675  1.00  0.00    -0.273 NA
HETATM    6  C   LIG     1      18.726  36.909  19.835  1.00  0.00     0.125 A 
ENDROOT
BRANCH   1   7
HETATM    7  C   LIG     1      16.914  35.630  21.055  1.00  0.00     0.204 C 
BRANCH   7   8
HETATM    8  O   LIG     1      17.203  35.027  22.286  1.00  0.00    -0.396 OA
HETATM    9  H   LIG     1      17.838  35.632  22.755  1.00  0.00     0.209 HD
ENDBRANCH   7   8
ENDBRANCH   1   7
TORSDOF 2
ENDMDL
MODEL 10
REMARK VINA RESULT:      -4.6     10.680     11.707
REMARK  2 active torsions:
REMARK  status: ('A' for Active; 'I' for Inactive)
REMARK    1  A    between atoms: O_1  and  C_2 
REMARK    2  A    between atoms: C_2  and  C_3 
ROOT
HETATM    1  C   LIG     1      14.022  30.458  15.177  1.00  0.00    -0.017 A 
HETATM    2  C   LIG     1      15.121  31.328  15.215  1.00  0.00     0.012 A 
HETATM    3  C   LIG     1      15.168  32.353  16.162  1.00  0.00     0.020 A 
HETATM    4  C   LIG     1      14.114  32.499  17.065  1.00  0.00     0.116 A 
HETATM    5  N   LIG     1      13.053  31.649  17.017  1.00  0.00    -0.273 NA
HETATM    6  C   LIG     1      12.984  30.643  16.103  1.00  0.00     0.125 A 
ENDROOT
BRANCH   1   7
HETATM    7  C   LIG     1      13.963  29.353  14.157  1.00  0.00     0.204 C 
BRANCH   7   8
HETATM    8  O   LIG     1      12.648  28.890  14.019  1.00  0.00    -0.396 OA
HETATM    9  H   LIG     1      12.486  28.785  13.045  1.00  0.00     0.209 HD
ENDBRANCH   7   8
ENDBRANCH   1   7
TORSDOF 2
ENDMDL
MODEL 11
REMARK VINA RESULT:      -4.5     10.672     11.725
REMARK  2 active torsions:
REMARK  status: ('A' for Active; 'I' for Inactive)
REMARK    1  A    between atoms: O_1  and  C_2 
REMARK    2  A    between atoms: C_2  and  C_3 
ROOT
HETATM    1  C   LIG     1      14.195  30.515  15.100  1.00  0.00    -0.017 A 
HETATM    2  C   LIG     1      13.230  30.741  16.091  1.00  0.00     0.012 A 
HETATM    3  C   LIG     1      13.366  31.821  16.965  1.00  0.00     0.020 A 
HETATM    4  C   LIG     1      14.469  32.667  16.840  1.00  0.00     0.116 A 
HETATM    5  N   LIG     1      15.399  32.435  15.875  1.00  0.00    -0.273 NA
HETATM    6  C   LIG     1      15.289  31.390  15.012  1.00  0.00     0.125 A 
ENDROOT
BRANCH   1   7
HETATM    7  C   LIG     1      14.056  29.351  14.156  1.00  0.00     0.204 C 
BRANCH   7   8
HETATM    8  O   LIG     1      12.716  28.955  14.067  1.00  0.00    -0.396 OA
HETATM    9  H   LIG     1      12.676  28.016  14.389  1.00  0.00     0.209 HD
ENDBRANCH   7   8
ENDBRANCH   1   7
TORSDOF 2
ENDMDL
MODEL 12
REMARK VINA RESULT:      -4.5      9.936     10.965
REMARK  2 active torsions:
REMARK  status: ('A' for Active; 'I' for Inactive)
REMARK    1  A    between atoms: O_1  and  C_2 
REMARK    2  A    between atoms: C_2  and  C_3 
ROOT
HETATM    1  C   LIG     1      15.304  31.664  15.024  1.00  0.00    -0.017 A 
HETATM    2  C   LIG     1      14.220  30.919  15.510  1.00  0.00     0.012 A 
HETATM    3  C   LIG     1      13.777  31.104  16.820  1.00  0.00     0.020 A 
HETATM    4  C   LIG     1      14.423  32.034  17.636  1.00  0.00     0.116 A 
HETATM    5  N   LIG     1      15.474  32.750  17.153  1.00  0.00    -0.273 NA
HETATM    6  C   LIG     1      15.925  32.588  15.879  1.00  0.00     0.125 A 
ENDROOT
BRANCH   1   7
HETATM    7  C   LIG     1      15.790  31.468  13.613  1.00  0.00     0.204 C 
BRANCH   7   8
HETATM    8  O   LIG     1      16.139  32.700  13.044  1.00  0.00    -0.396 OA
HETATM    9  H   LIG     1      15.375  32.974  12.472  1.00  0.00     0.209 HD
ENDBRANCH   7   8
ENDBRANCH   1   7
TORSDOF 2
ENDMDL
MODEL 13
REMARK VINA RESULT:      -4.4      9.665     10.708
REMARK  2 active torsions:
REMARK  status: ('A' for Active; 'I' for Inactive)
REMARK    1  A    between atoms: O_1  and  C_2 
REMARK    2  A    between atoms: C_2  and  C_3 
ROOT
HETATM    1  C   LIG     1      15.248  32.277  15.832  1.00  0.00    -0.017 A 
HETATM    2  C   LIG     1      14.979  31.192  14.985  1.00  0.00     0.012 A 
HETATM    3  C   LIG     1      13.861  30.388  15.212  1.00  0.00     0.020 A 
HETATM    4  C   LIG     1      13.019  30.676  16.287  1.00  0.00     0.116 A 
HETATM    5  N   LIG     1      13.291  31.730  17.103  1.00  0.00    -0.273 NA
HETATM    6  C   LIG     1      14.375  32.528  16.902  1.00  0.00     0.125 A 
ENDROOT
BRANCH   1   7
HETATM    7  C   LIG     1      16.453  33.146  15.596  1.00  0.00     0.204 C 
BRANCH   7   8
HETATM    8  O   LIG     1      16.208  34.449  16.046  1.00  0.00    -0.396 OA
HETATM    9  H   LIG     1      16.906  34.650  16.724  1.00  0.00     0.209 HD
ENDBRANCH   7   8
ENDBRANCH   1   7
TORSDOF 2
ENDMDL
MODEL 14
REMARK VINA RESULT:      -4.4      9.454     10.525
REMARK  2 active torsions:
REMARK  status: ('A' for Active; 'I' for Inactive)
REMARK    1  A    between atoms: O_1  and  C_2 
REMARK    2  A    between atoms: C_2  and  C_3 
ROOT
HETATM    1  C   LIG     1      14.621  32.657  16.527  1.00  0.00    -0.017 A 
HETATM    2  C   LIG     1      15.294  32.021  15.473  1.00  0.00     0.012 A 
HETATM    3  C   LIG     1      14.804  30.821  14.956  1.00  0.00     0.020 A 
HETATM    4  C   LIG     1      13.644  30.265  15.498  1.00  0.00     0.116 A 
HETATM    5  N   LIG     1      13.002  30.891  16.520  1.00  0.00    -0.273 NA
HETATM    6  C   LIG     1      13.459  32.062  17.042  1.00  0.00     0.125 A 
ENDROOT
BRANCH   1   7
HETATM    7  C   LIG     1      15.144  33.950  17.091  1.00  0.00     0.204 C 
BRANCH   7   8
HETATM    8  O   LIG     1      16.046  34.541  16.197  1.00  0.00    -0.396 OA
HETATM    9  H   LIG     1      16.492  35.279  16.691  1.00  0.00     0.209 HD
ENDBRANCH   7   8
ENDBRANCH   1   7
TORSDOF 2
ENDMDL
MODEL 15
REMARK VINA RESULT:      -4.3      9.806     10.943
REMARK  2 active torsions:
REMARK  status: ('A' for Active; 'I' for Inactive)
REMARK    1  A    between atoms: O_1  and  C_2 
REMARK    2  A    between atoms: C_2  and  C_3 
ROOT
HETATM    1  C   LIG     1      14.261  31.360  15.965  1.00  0.00    -0.017 A 
HETATM    2  C   LIG     1      14.901  30.953  14.786  1.00  0.00     0.012 A 
HETATM    3  C   LIG     1      16.110  31.540  14.409  1.00  0.00     0.020 A 
HETATM    4  C   LIG     1      16.670  32.532  15.216  1.00  0.00     0.116 A 
HETATM    5  N   LIG     1      16.038  32.919  16.357  1.00  0.00    -0.273 NA
HETATM    6  C   LIG     1      14.859  32.362  16.745  1.00  0.00     0.125 A 
ENDROOT
BRANCH   1   7
HETATM    7  C   LIG     1      12.956  30.734  16.377  1.00  0.00     0.204 C 
BRANCH   7   8
HETATM    8  O   LIG     1      12.236  31.609  17.200  1.00  0.00    -0.396 OA
HETATM    9  H   LIG     1      11.906  31.069  17.967  1.00  0.00     0.209 HD
ENDBRANCH   7   8
ENDBRANCH   1   7
TORSDOF 2
ENDMDL
MODEL 16
REMARK VINA RESULT:      -4.3      2.050      3.270
REMARK  2 active torsions:
REMARK  status: ('A' for Active; 'I' for Inactive)
REMARK    1  A    between atoms: O_1  and  C_2 
REMARK    2  A    between atoms: C_2  and  C_3 
ROOT
HETATM    1  C   LIG     1      17.425  37.158  24.531  1.00  0.00    -0.017 A 
HETATM    2  C   LIG     1      17.454  38.269  23.676  1.00  0.00     0.012 A 
HETATM    3  C   LIG     1      17.188  38.110  22.315  1.00  0.00     0.020 A 
HETATM    4  C   LIG     1      16.896  36.838  21.820  1.00  0.00     0.116 A 
HETATM    5  N   LIG     1      16.873  35.768  22.660  1.00  0.00    -0.273 NA
HETATM    6  C   LIG     1      17.128  35.898  23.990  1.00  0.00     0.125 A 
ENDROOT
BRANCH   1   7
HETATM    7  C   LIG     1      17.713  37.322  25.999  1.00  0.00     0.204 C 
BRANCH   7   8
HETATM    8  O   LIG     1      17.477  36.119  26.678  1.00  0.00    -0.396 OA
HETATM    9  H   LIG     1      17.918  36.204  27.564  1.00  0.00     0.209 HD
ENDBRANCH   7   8
ENDBRANCH   1   7
TORSDOF 2
ENDMDL
MODEL 17
REMARK VINA RESULT:      -4.2      2.515      3.239
REMARK  2 active torsions:
REMARK  status: ('A' for Active; 'I' for Inactive)
REMARK    1  A    between atoms: O_1  and  C_2 
REMARK    2  A    between atoms: C_2  and  C_3 
ROOT
HETATM    1  C   LIG     1      16.813  36.077  21.956  1.00  0.00    -0.017 A 
HETATM    2  C   LIG     1      16.818  37.449  22.243  1.00  0.00     0.012 A 
HETATM    3  C   LIG     1      17.016  37.888  23.553  1.00  0.00     0.020 A 
HETATM    4  C   LIG     1      17.207  36.949  24.568  1.00  0.00     0.116 A 
HETATM    5  N   LIG     1      17.199  35.620  24.276  1.00  0.00    -0.273 NA
HETATM    6  C   LIG     1      17.008  35.168  23.007  1.00  0.00     0.125 A 
ENDROOT
BRANCH   1   7
HETATM    7  C   LIG     1      16.598  35.596  20.547  1.00  0.00     0.204 C 
BRANCH   7   8
HETATM    8  O   LIG     1      16.240  34.242  20.545  1.00  0.00    -0.396 OA
HETATM    9  H   LIG     1      16.541  33.871  19.673  1.00  0.00     0.209 HD
ENDBRANCH   7   8
ENDBRANCH   1   7
TORSDOF 2
ENDMDL
MODEL 18
REMARK VINA RESULT:      -4.1     11.352     12.074
REMARK  2 active torsions:
REMARK  status: ('A' for Active; 'I' for Inactive)
REMARK    1  A    between atoms: O_1  and  C_2 
REMARK    2  A    between atoms: C_2  and  C_3 
ROOT
HETATM    1  C   LIG     1      16.059  32.094  14.184  1.00  0.00    -0.017 A 
HETATM    2  C   LIG     1      15.556  32.264  15.482  1.00  0.00     0.012 A 
HETATM    3  C   LIG     1      14.566  31.406  15.964  1.00  0.00     0.020 A 
HETATM    4  C   LIG     1      14.086  30.384  15.143  1.00  0.00     0.116 A 
HETATM    5  N   LIG     1      14.582  30.232  13.886  1.00  0.00    -0.273 NA
HETATM    6  C   LIG     1      15.546  31.055  13.392  1.00  0.00     0.125 A 
ENDROOT
BRANCH   1   7
HETATM    7  C   LIG     1      17.124  33.017  13.655  1.00  0.00     0.204 C 
BRANCH   7   8
HETATM    8  O   LIG     1      17.697  32.483  12.494  1.00  0.00    -0.396 OA
HETATM    9  H   LIG     1      17.784  31.504  12.646  1.00  0.00     0.209 HD
ENDBRANCH   7   8
ENDBRANCH   1   7
TORSDOF 2
ENDMDL
MODEL 19
REMARK VINA RESULT:      -4.1     11.549     12.627
REMARK  2 active torsions:
REMARK  status: ('A' for Active; 'I' for Inactive)
REMARK    1  A    between atoms: O_1  and  C_2 
REMARK    2  A    between atoms: C_2  and  C_3 
ROOT
HETATM    1  C   LIG     1      14.040  29.798  14.532  1.00  0.00    -0.017 A 
HETATM    2  C   LIG     1      15.135  30.323  13.831  1.00  0.00     0.012 A 
HETATM    3  C   LIG     1      15.786  31.464  14.304  1.00  0.00     0.020 A 
HETATM    4  C   LIG     1      15.335  32.072  15.476  1.00  0.00     0.116 A 
HETATM    5  N   LIG     1      14.270  31.554  16.146  1.00  0.00    -0.273 NA
HETATM    6  C   LIG     1      13.620  30.443  15.706  1.00  0.00     0.125 A 
ENDROOT
BRANCH   1   7
HETATM    7  C   LIG     1      13.332  28.571  14.026  1.00  0.00     0.204 C 
BRANCH   7   8
HETATM    8  O   LIG     1      12.004  28.875  13.703  1.00  0.00    -0.396 OA
HETATM    9  H   LIG     1      11.699  28.174  13.069  1.00  0.00     0.209 HD
ENDBRANCH   7   8
ENDBRANCH   1   7
TORSDOF 2
ENDMDL
MODEL 20
REMARK VINA RESULT:      -3.9     10.823     11.876
REMARK  2 active torsions:
REMARK  status: ('A' for Active; 'I' for Inactive)
REMARK    1  A    between atoms: O_1  and  C_2 
REMARK    2  A    between atoms: C_2  and  C_3 
ROOT
HETATM    1  C   LIG     1      15.239  31.429  14.791  1.00  0.00    -0.017 A 
HETATM    2  C   LIG     1      15.862  31.684  13.561  1.00  0.00     0.012 A 
HETATM    3  C   LIG     1      16.849  32.667  13.468  1.00  0.00     0.020 A 
HETATM    4  C   LIG     1      17.206  33.387  14.609  1.00  0.00     0.116 A 
HETATM    5  N   LIG     1      16.594  33.131  15.796  1.00  0.00    -0.273 NA
HETATM    6  C   LIG     1      15.629  32.179  15.912  1.00  0.00     0.125 A 
ENDROOT
BRANCH   1   7
HETATM    7  C   LIG     1      14.172  30.374  14.898  1.00  0.00     0.204 C 
BRANCH   7   8
HETATM    8  O   LIG     1      14.191  29.548  13.767  1.00  0.00    -0.396 OA
HETATM    9  H   LIG     1      14.842  29.950  13.134  1.00  0.00     0.209 HD
ENDBRANCH   7   8
ENDBRANCH   1   7
TORSDOF 2
ENDMDL
