MODEL 1
REMARK VINA RESULT:      -6.0      0.000      0.000
REMARK  1 active torsions:
REMARK  status: ('A' for Active; 'I' for Inactive)
REMARK    1  A    between atoms: C_2  and  C_3 
ROOT
HETATM    1  C   LIG     1      17.217  36.507  24.177  1.00  0.00    -0.044 A 
HETATM    2  C   LIG     1      17.765  37.487  25.022  1.00  0.00     0.008 A 
HETATM    3  C   LIG     1      18.310  37.128  26.259  1.00  0.00     0.001 A 
HETATM    4  C   LIG     1      18.309  35.788  26.662  1.00  0.00     0.000 A 
HETATM    5  C   LIG     1      17.762  34.808  25.830  1.00  0.00     0.001 A 
HETATM    6  C   LIG     1      17.217  35.164  24.592  1.00  0.00     0.008 A 
ENDROOT
BRANCH   1   7
HETATM    7  C   LIG     1      16.624  36.885  22.850  1.00  0.00     0.153 C 
HETATM    8 CL   LIG     1      17.642  38.107  22.045  1.00  0.00    -0.126 Cl
ENDBRANCH   1   7
TORSDOF 1
ENDMDL
MODEL 2
REMARK VINA RESULT:      -6.0      0.071      1.715
REMARK  1 active torsions:
REMARK  status: ('A' for Active; 'I' for Inactive)
REMARK    1  A    between atoms: C_2  and  C_3 
ROOT
HETATM    1  C   LIG     1      17.226  36.503  24.202  1.00  0.00    -0.044 A 
HETATM    2  C   LIG     1      17.230  35.158  24.611  1.00  0.00     0.008 A 
HETATM    3  C   LIG     1      17.780  34.798  25.846  1.00  0.00     0.001 A 
HETATM    4  C   LIG     1      18.332  35.777  26.679  1.00  0.00     0.000 A 
HETATM    5  C   LIG     1      18.337  37.116  26.277  1.00  0.00     0.001 A 
HETATM    6  C   LIG     1      17.787  37.479  25.043  1.00  0.00     0.008 A 
ENDROOT
BRANCH   1   7
HETATM    7  C   LIG     1      16.643  36.897  22.875  1.00  0.00     0.153 C 
HETATM    8 CL   LIG     1      17.580  38.235  22.161  1.00  0.00    -0.126 Cl
ENDBRANCH   1   7
TORSDOF 1
ENDMDL
MODEL 3
REMARK VINA RESULT:      -5.8      3.413      4.981
REMARK  1 active torsions:
REMARK  status: ('A' for Active; 'I' for Inactive)
REMARK    1  A    between atoms: C_2  and  C_3 
ROOT
HETATM    1  C   LIG     1      17.668  37.458  21.325  1.00  0.00    -0.044 A 
HETATM    2  C   LIG     1      18.153  38.773  21.437  1.00  0.00     0.008 A 
HETATM    3  C   LIG     1      19.146  39.235  20.566  1.00  0.00     0.001 A 
HETATM    4  C   LIG     1      19.663  38.388  19.580  1.00  0.00     0.000 A 
HETATM    5  C   LIG     1      19.189  37.078  19.465  1.00  0.00     0.001 A 
HETATM    6  C   LIG     1      18.196  36.613  20.334  1.00  0.00     0.008 A 
ENDROOT
BRANCH   1   7
HETATM    7  C   LIG     1      16.606  36.953  22.259  1.00  0.00     0.153 C 
HETATM    8 CL   LIG     1      16.937  35.261  22.712  1.00  0.00    -0.126 Cl
ENDBRANCH   1   7
TORSDOF 1
ENDMDL
MODEL 4
REMARK VINA RESULT:      -5.8      3.472      5.210
REMARK  1 active torsions:
REMARK  status: ('A' for Active; 'I' for Inactive)
REMARK    1  A    between atoms: C_2  and  C_3 
ROOT
HETATM    1  C   LIG     1      17.600  37.378  21.309  1.00  0.00    -0.044 A 
HETATM    2  C   LIG     1      18.160  36.597  20.283  1.00  0.00     0.008 A 
HETATM    3  C   LIG     1      19.166  37.123  19.466  1.00  0.00     0.001 A 
HETATM    4  C   LIG     1      19.617  38.432  19.665  1.00  0.00     0.000 A 
HETATM    5  C   LIG     1      19.063  39.216  20.680  1.00  0.00     0.001 A 
HETATM    6  C   LIG     1      18.057  38.693  21.500  1.00  0.00     0.008 A 
ENDROOT
BRANCH   1   7
HETATM    7  C   LIG     1      16.515  36.823  22.188  1.00  0.00     0.153 C 
HETATM    8 CL   LIG     1      17.001  35.238  22.843  1.00  0.00    -0.126 Cl
ENDBRANCH   1   7
TORSDOF 1
ENDMDL
MODEL 5
REMARK VINA RESULT:      -5.6      3.300      5.211
REMARK  1 active torsions:
REMARK  status: ('A' for Active; 'I' for Inactive)
REMARK    1  A    between atoms: C_2  and  C_3 
ROOT
HETATM    1  C   LIG     1      17.671  37.631  21.394  1.00  0.00    -0.044 A 
HETATM    2  C   LIG     1      18.087  36.676  20.450  1.00  0.00     0.008 A 
HETATM    3  C   LIG     1      19.072  36.995  19.510  1.00  0.00     0.001 A 
HETATM    4  C   LIG     1      19.646  38.270  19.503  1.00  0.00     0.000 A 
HETATM    5  C   LIG     1      19.235  39.228  20.435  1.00  0.00     0.001 A 
HETATM    6  C   LIG     1      18.251  38.911  21.378  1.00  0.00     0.008 A 
ENDROOT
BRANCH   1   7
HETATM    7  C   LIG     1      16.610  37.298  22.404  1.00  0.00     0.153 C 
HETATM    8 CL   LIG     1      17.151  37.750  24.041  1.00  0.00    -0.126 Cl
ENDBRANCH   1   7
TORSDOF 1
ENDMDL
MODEL 6
REMARK VINA RESULT:      -5.5      3.358      4.264
REMARK  1 active torsions:
REMARK  status: ('A' for Active; 'I' for Inactive)
REMARK    1  A    between atoms: C_2  and  C_3 
ROOT
HETATM    1  C   LIG     1      18.272  38.305  20.998  1.00  0.00    -0.044 A 
HETATM    2  C   LIG     1      17.462  38.569  22.116  1.00  0.00     0.008 A 
HETATM    3  C   LIG     1      16.639  37.568  22.643  1.00  0.00     0.001 A 
HETATM    4  C   LIG     1      16.617  36.299  22.056  1.00  0.00     0.000 A 
HETATM    5  C   LIG     1      17.416  36.029  20.942  1.00  0.00     0.001 A 
HETATM    6  C   LIG     1      18.241  37.027  20.413  1.00  0.00     0.008 A 
ENDROOT
BRANCH   1   7
HETATM    7  C   LIG     1      19.155  39.375  20.422  1.00  0.00     0.153 C 
HETATM    8 CL   LIG     1      20.489  38.643  19.493  1.00  0.00    -0.126 Cl
ENDBRANCH   1   7
TORSDOF 1
ENDMDL
MODEL 7
REMARK VINA RESULT:      -5.4      3.410      4.526
REMARK  1 active torsions:
REMARK  status: ('A' for Active; 'I' for Inactive)
REMARK    1  A    between atoms: C_2  and  C_3 
ROOT
HETATM    1  C   LIG     1      18.296  38.314  20.957  1.00  0.00    -0.044 A 
HETATM    2  C   LIG     1      18.260  37.026  20.395  1.00  0.00     0.008 A 
HETATM    3  C   LIG     1      17.413  36.048  20.927  1.00  0.00     0.001 A 
HETATM    4  C   LIG     1      16.599  36.347  22.023  1.00  0.00     0.000 A 
HETATM    5  C   LIG     1      16.631  37.624  22.591  1.00  0.00     0.001 A 
HETATM    6  C   LIG     1      17.477  38.605  22.062  1.00  0.00     0.008 A 
ENDROOT
BRANCH   1   7
HETATM    7  C   LIG     1      19.207  39.368  20.397  1.00  0.00     0.153 C 
HETATM    8 CL   LIG     1      20.529  38.614  19.471  1.00  0.00    -0.126 Cl
ENDBRANCH   1   7
TORSDOF 1
ENDMDL
MODEL 8
REMARK VINA RESULT:      -5.4      2.231      3.920
REMARK  1 active torsions:
REMARK  status: ('A' for Active; 'I' for Inactive)
REMARK    1  A    between atoms: C_2  and  C_3 
ROOT
HETATM    1  C   LIG     1      17.306  37.255  23.988  1.00  0.00    -0.044 A 
HETATM    2  C   LIG     1      16.998  35.926  23.650  1.00  0.00     0.008 A 
HETATM    3  C   LIG     1      16.972  35.528  22.309  1.00  0.00     0.001 A 
HETATM    4  C   LIG     1      17.249  36.453  21.298  1.00  0.00     0.000 A 
HETATM    5  C   LIG     1      17.552  37.777  21.626  1.00  0.00     0.001 A 
HETATM    6  C   LIG     1      17.580  38.179  22.965  1.00  0.00     0.008 A 
ENDROOT
BRANCH   1   7
HETATM    7  C   LIG     1      17.331  37.693  25.425  1.00  0.00     0.153 C 
HETATM    8 CL   LIG     1      18.573  36.786  26.326  1.00  0.00    -0.126 Cl
ENDBRANCH   1   7
TORSDOF 1
ENDMDL
MODEL 9
REMARK VINA RESULT:      -5.1     10.359     11.605
REMARK  1 active torsions:
REMARK  status: ('A' for Active; 'I' for Inactive)
REMARK    1  A    between atoms: C_2  and  C_3 
ROOT
HETATM    1  C   LIG     1      14.741  30.717  14.755  1.00  0.00    -0.044 A 
HETATM    2  C   LIG     1      15.417  31.773  15.390  1.00  0.00     0.008 A 
HETATM    3  C   LIG     1      14.852  32.403  16.504  1.00  0.00     0.001 A 
HETATM    4  C   LIG     1      13.609  31.985  16.990  1.00  0.00     0.000 A 
HETATM    5  C   LIG     1      12.928  30.939  16.361  1.00  0.00     0.001 A 
HETATM    6  C   LIG     1      13.490  30.307  15.247  1.00  0.00     0.008 A 
ENDROOT
BRANCH   1   7
HETATM    7  C   LIG     1      15.337  30.039  13.554  1.00  0.00     0.153 C 
HETATM    8 CL   LIG     1      15.303  28.269  13.764  1.00  0.00    -0.126 Cl
ENDBRANCH   1   7
TORSDOF 1
ENDMDL
MODEL 10
REMARK VINA RESULT:      -5.0      9.206     10.907
REMARK  1 active torsions:
REMARK  status: ('A' for Active; 'I' for Inactive)
REMARK    1  A    between atoms: C_2  and  C_3 
ROOT
HETATM    1  C   LIG     1      14.709  32.029  16.321  1.00  0.00    -0.044 A 
HETATM    2  C   LIG     1      15.610  31.820  15.262  1.00  0.00     0.008 A 
HETATM    3  C   LIG     1      15.355  30.833  14.304  1.00  0.00     0.001 A 
HETATM    4  C   LIG     1      14.202  30.048  14.397  1.00  0.00     0.000 A 
HETATM    5  C   LIG     1      13.303  30.246  15.449  1.00  0.00     0.001 A 
HETATM    6  C   LIG     1      13.554  31.232  16.409  1.00  0.00     0.008 A 
ENDROOT
BRANCH   1   7
HETATM    7  C   LIG     1      14.977  33.082  17.358  1.00  0.00     0.153 C 
HETATM    8 CL   LIG     1      15.312  32.325  18.936  1.00  0.00    -0.126 Cl
ENDBRANCH   1   7
TORSDOF 1
ENDMDL
MODEL 11
REMARK VINA RESULT:      -5.0      9.142     10.892
REMARK  1 active torsions:
REMARK  status: ('A' for Active; 'I' for Inactive)
REMARK    1  A    between atoms: C_2  and  C_3 
ROOT
HETATM    1  C   LIG     1      14.689  32.053  16.394  1.00  0.00    -0.044 A 
HETATM    2  C   LIG     1      13.526  31.267  16.479  1.00  0.00     0.008 A 
HETATM    3  C   LIG     1      13.267  30.285  15.517  1.00  0.00     0.001 A 
HETATM    4  C   LIG     1      14.163  30.083  14.463  1.00  0.00     0.000 A 
HETATM    5  C   LIG     1      15.319  30.863  14.369  1.00  0.00     0.001 A 
HETATM    6  C   LIG     1      15.582  31.845  15.330  1.00  0.00     0.008 A 
ENDROOT
BRANCH   1   7
HETATM    7  C   LIG     1      14.973  33.113  17.420  1.00  0.00     0.153 C 
HETATM    8 CL   LIG     1      15.332  32.366  18.998  1.00  0.00    -0.126 Cl
ENDBRANCH   1   7
TORSDOF 1
ENDMDL
MODEL 12
REMARK VINA RESULT:      -4.9      9.935     10.998
REMARK  1 active torsions:
REMARK  status: ('A' for Active; 'I' for Inactive)
REMARK    1  A    between atoms: C_2  and  C_3 
ROOT
HETATM    1  C   LIG     1      15.432  31.878  15.491  1.00  0.00    -0.044 A 
HETATM    2  C   LIG     1      14.704  32.367  16.590  1.00  0.00     0.008 A 
HETATM    3  C   LIG     1      13.475  31.793  16.933  1.00  0.00     0.001 A 
HETATM    4  C   LIG     1      12.964  30.731  16.181  1.00  0.00     0.000 A 
HETATM    5  C   LIG     1      13.680  30.241  15.085  1.00  0.00     0.001 A 
HETATM    6  C   LIG     1      14.909  30.812  14.739  1.00  0.00     0.008 A 
ENDROOT
BRANCH   1   7
HETATM    7  C   LIG     1      16.750  32.491  15.112  1.00  0.00     0.153 C 
HETATM    8 CL   LIG     1      16.811  32.786  13.355  1.00  0.00    -0.126 Cl
ENDBRANCH   1   7
TORSDOF 1
ENDMDL
MODEL 13
REMARK VINA RESULT:      -4.9      1.979      2.552
REMARK  1 active torsions:
REMARK  status: ('A' for Active; 'I' for Inactive)
REMARK    1  A    between atoms: C_2  and  C_3 
ROOT
HETATM    1  C   LIG     1      17.087  36.201  22.094  1.00  0.00    -0.044 A 
HETATM    2  C   LIG     1      17.160  37.522  22.569  1.00  0.00     0.008 A 
HETATM    3  C   LIG     1      17.242  37.774  23.943  1.00  0.00     0.001 A 
HETATM    4  C   LIG     1      17.250  36.710  24.850  1.00  0.00     0.000 A 
HETATM    5  C   LIG     1      17.174  35.394  24.386  1.00  0.00     0.001 A 
HETATM    6  C   LIG     1      17.092  35.139  23.013  1.00  0.00     0.008 A 
ENDROOT
BRANCH   1   7
HETATM    7  C   LIG     1      16.992  35.922  20.621  1.00  0.00     0.153 C 
HETATM    8 CL   LIG     1      15.590  34.876  20.279  1.00  0.00    -0.126 Cl
ENDBRANCH   1   7
TORSDOF 1
ENDMDL
MODEL 14
REMARK VINA RESULT:      -4.9      9.937     11.096
REMARK  1 active torsions:
REMARK  status: ('A' for Active; 'I' for Inactive)
REMARK    1  A    between atoms: C_2  and  C_3 
ROOT
HETATM    1  C   LIG     1      15.432  31.882  15.480  1.00  0.00    -0.044 A 
HETATM    2  C   LIG     1      14.909  30.814  14.728  1.00  0.00     0.008 A 
HETATM    3  C   LIG     1      13.682  30.241  15.077  1.00  0.00     0.001 A 
HETATM    4  C   LIG     1      12.970  30.726  16.178  1.00  0.00     0.000 A 
HETATM    5  C   LIG     1      13.484  31.784  16.933  1.00  0.00     0.001 A 
HETATM    6  C   LIG     1      14.711  32.360  16.587  1.00  0.00     0.008 A 
ENDROOT
BRANCH   1   7
HETATM    7  C   LIG     1      16.751  32.499  15.116  1.00  0.00     0.153 C 
HETATM    8 CL   LIG     1      16.836  32.787  13.359  1.00  0.00    -0.126 Cl
ENDBRANCH   1   7
TORSDOF 1
ENDMDL
MODEL 15
REMARK VINA RESULT:      -4.2     11.631     12.934
REMARK  1 active torsions:
REMARK  status: ('A' for Active; 'I' for Inactive)
REMARK    1  A    between atoms: C_2  and  C_3 
ROOT
HETATM    1  C   LIG     1      13.570  29.285  14.385  1.00  0.00    -0.044 A 
HETATM    2  C   LIG     1      14.844  29.640  13.909  1.00  0.00     0.008 A 
HETATM    3  C   LIG     1      15.514  30.745  14.445  1.00  0.00     0.001 A 
HETATM    4  C   LIG     1      14.916  31.504  15.456  1.00  0.00     0.000 A 
HETATM    5  C   LIG     1      13.648  31.160  15.931  1.00  0.00     0.001 A 
HETATM    6  C   LIG     1      12.976  30.055  15.399  1.00  0.00     0.008 A 
ENDROOT
BRANCH   1   7
HETATM    7  C   LIG     1      12.841  28.103  13.812  1.00  0.00     0.153 C 
HETATM    8 CL   LIG     1      11.255  28.606  13.172  1.00  0.00    -0.126 Cl
ENDBRANCH   1   7
TORSDOF 1
ENDMDL
MODEL 16
REMARK VINA RESULT:      -4.2     12.638     13.789
REMARK  1 active torsions:
REMARK  status: ('A' for Active; 'I' for Inactive)
REMARK    1  A    between atoms: C_2  and  C_3 
ROOT
HETATM    1  C   LIG     1      20.973  34.329  12.189  1.00  0.00    -0.044 A 
HETATM    2  C   LIG     1      19.636  34.094  12.555  1.00  0.00     0.008 A 
HETATM    3  C   LIG     1      18.600  34.377  11.658  1.00  0.00     0.001 A 
HETATM    4  C   LIG     1      18.891  34.898  10.394  1.00  0.00     0.000 A 
HETATM    5  C   LIG     1      20.217  35.139  10.025  1.00  0.00     0.001 A 
HETATM    6  C   LIG     1      21.255  34.857  10.918  1.00  0.00     0.008 A 
ENDROOT
BRANCH   1   7
HETATM    7  C   LIG     1      22.091  34.034  13.148  1.00  0.00     0.153 C 
HETATM    8 CL   LIG     1      23.052  35.505  13.448  1.00  0.00    -0.126 Cl
ENDBRANCH   1   7
TORSDOF 1
ENDMDL
MODEL 17
REMARK VINA RESULT:      -4.2     10.101     11.264
REMARK  1 active torsions:
REMARK  status: ('A' for Active; 'I' for Inactive)
REMARK    1  A    between atoms: C_2  and  C_3 
ROOT
HETATM    1  C   LIG     1      14.907  31.391  15.337  1.00  0.00    -0.044 A 
HETATM    2  C   LIG     1      15.598  32.421  15.999  1.00  0.00     0.008 A 
HETATM    3  C   LIG     1      16.614  33.124  15.343  1.00  0.00     0.001 A 
HETATM    4  C   LIG     1      16.949  32.802  14.024  1.00  0.00     0.000 A 
HETATM    5  C   LIG     1      16.270  31.776  13.360  1.00  0.00     0.001 A 
HETATM    6  C   LIG     1      15.253  31.072  14.013  1.00  0.00     0.008 A 
ENDROOT
BRANCH   1   7
HETATM    7  C   LIG     1      13.818  30.627  16.035  1.00  0.00     0.153 C 
HETATM    8 CL   LIG     1      12.685  31.752  16.827  1.00  0.00    -0.126 Cl
ENDBRANCH   1   7
TORSDOF 1
ENDMDL
MODEL 18
REMARK VINA RESULT:      -4.2     10.488     11.694
REMARK  1 active torsions:
REMARK  status: ('A' for Active; 'I' for Inactive)
REMARK    1  A    between atoms: C_2  and  C_3 
ROOT
HETATM    1  C   LIG     1      16.354  32.293  14.534  1.00  0.00    -0.044 A 
HETATM    2  C   LIG     1      16.065  31.523  13.393  1.00  0.00     0.008 A 
HETATM    3  C   LIG     1      15.034  30.579  13.422  1.00  0.00     0.001 A 
HETATM    4  C   LIG     1      14.286  30.394  14.589  1.00  0.00     0.000 A 
HETATM    5  C   LIG     1      14.569  31.152  15.729  1.00  0.00     0.001 A 
HETATM    6  C   LIG     1      15.599  32.098  15.703  1.00  0.00     0.008 A 
ENDROOT
BRANCH   1   7
HETATM    7  C   LIG     1      17.463  33.306  14.513  1.00  0.00     0.153 C 
HETATM    8 CL   LIG     1      17.572  34.071  12.907  1.00  0.00    -0.126 Cl
ENDBRANCH   1   7
TORSDOF 1
ENDMDL
MODEL 19
REMARK VINA RESULT:      -4.0      5.041      6.862
REMARK  1 active torsions:
REMARK  status: ('A' for Active; 'I' for Inactive)
REMARK    1  A    between atoms: C_2  and  C_3 
ROOT
HETATM    1  C   LIG     1      15.628  34.028  20.084  1.00  0.00    -0.044 A 
HETATM    2  C   LIG     1      15.575  34.799  18.909  1.00  0.00     0.008 A 
HETATM    3  C   LIG     1      15.230  34.205  17.691  1.00  0.00     0.001 A 
HETATM    4  C   LIG     1      14.939  32.838  17.635  1.00  0.00     0.000 A 
HETATM    5  C   LIG     1      14.993  32.064  18.797  1.00  0.00     0.001 A 
HETATM    6  C   LIG     1      15.337  32.654  20.017  1.00  0.00     0.008 A 
ENDROOT
BRANCH   1   7
HETATM    7  C   LIG     1      16.004  34.656  21.395  1.00  0.00     0.153 C 
HETATM    8 CL   LIG     1      17.299  35.857  21.157  1.00  0.00    -0.126 Cl
ENDBRANCH   1   7
TORSDOF 1
ENDMDL
MODEL 20
REMARK VINA RESULT:      -3.9     12.063     13.260
REMARK  1 active torsions:
REMARK  status: ('A' for Active; 'I' for Inactive)
REMARK    1  A    between atoms: C_2  and  C_3 
ROOT
HETATM    1  C   LIG     1      18.869  34.041  12.276  1.00  0.00    -0.044 A 
HETATM    2  C   LIG     1      18.791  34.611  10.992  1.00  0.00     0.008 A 
HETATM    3  C   LIG     1      19.955  35.013  10.328  1.00  0.00     0.001 A 
HETATM    4  C   LIG     1      21.202  34.853  10.940  1.00  0.00     0.000 A 
HETATM    5  C   LIG     1      21.287  34.292  12.217  1.00  0.00     0.001 A 
HETATM    6  C   LIG     1      20.126  33.888  12.884  1.00  0.00     0.008 A 
ENDROOT
BRANCH   1   7
HETATM    7  C   LIG     1      17.625  33.612  12.999  1.00  0.00     0.153 C 
HETATM    8 CL   LIG     1      18.009  33.173  14.683  1.00  0.00    -0.126 Cl
ENDBRANCH   1   7
TORSDOF 1
ENDMDL
