MODEL 1
REMARK VINA RESULT:      -6.0      0.000      0.000
REMARK  1 active torsions:
REMARK  status: ('A' for Active; 'I' for Inactive)
REMARK    1  A    between atoms: N_2  and  C_3 
ROOT
HETATM    1  C   LIG     1      17.284  37.316  24.870  1.00  0.00     0.027 A 
HETATM    2  C   LIG     1      17.041  36.063  24.272  1.00  0.00     0.029 A 
HETATM    3  C   LIG     1      17.420  34.884  24.923  1.00  0.00     0.002 A 
HETATM    4  C   LIG     1      18.041  34.942  26.172  1.00  0.00     0.000 A 
HETATM    5  C   LIG     1      18.286  36.177  26.774  1.00  0.00     0.002 A 
HETATM    6  C   LIG     1      17.910  37.359  26.127  1.00  0.00     0.029 A 
ENDROOT
BRANCH   1   7
HETATM    7  N   LIG     1      16.908  38.548  24.228  1.00  0.00    -0.394 N 
HETATM    8  C   LIG     1      16.947  38.748  22.783  1.00  0.00     0.146 C 
HETATM    9  H   LIG     1      16.589  39.349  24.818  1.00  0.00     0.159 HD
ENDBRANCH   1   7
TORSDOF 1
ENDMDL
MODEL 2
REMARK VINA RESULT:      -6.0      0.142      1.718
REMARK  1 active torsions:
REMARK  status: ('A' for Active; 'I' for Inactive)
REMARK    1  A    between atoms: N_2  and  C_3 
ROOT
HETATM    1  C   LIG     1      17.274  37.296  24.864  1.00  0.00     0.027 A 
HETATM    2  C   LIG     1      17.923  37.358  26.114  1.00  0.00     0.029 A 
HETATM    3  C   LIG     1      18.313  36.183  26.766  1.00  0.00     0.002 A 
HETATM    4  C   LIG     1      18.061  34.940  26.182  1.00  0.00     0.000 A 
HETATM    5  C   LIG     1      17.419  34.868  24.944  1.00  0.00     0.002 A 
HETATM    6  C   LIG     1      17.028  36.040  24.288  1.00  0.00     0.029 A 
ENDROOT
BRANCH   1   7
HETATM    7  N   LIG     1      16.860  38.485  24.166  1.00  0.00    -0.394 N 
HETATM    8  C   LIG     1      16.631  38.535  22.726  1.00  0.00     0.146 C 
HETATM    9  H   LIG     1      16.714  39.365  24.710  1.00  0.00     0.159 HD
ENDBRANCH   1   7
TORSDOF 1
ENDMDL
MODEL 3
REMARK VINA RESULT:      -5.4      3.011      5.060
REMARK  1 active torsions:
REMARK  status: ('A' for Active; 'I' for Inactive)
REMARK    1  A    between atoms: N_2  and  C_3 
ROOT
HETATM    1  C   LIG     1      17.650  37.566  21.386  1.00  0.00     0.027 A 
HETATM    2  C   LIG     1      18.111  36.641  20.428  1.00  0.00     0.029 A 
HETATM    3  C   LIG     1      19.108  37.006  19.517  1.00  0.00     0.002 A 
HETATM    4  C   LIG     1      19.654  38.291  19.552  1.00  0.00     0.000 A 
HETATM    5  C   LIG     1      19.204  39.214  20.497  1.00  0.00     0.002 A 
HETATM    6  C   LIG     1      18.207  38.855  21.410  1.00  0.00     0.029 A 
ENDROOT
BRANCH   1   7
HETATM    7  N   LIG     1      16.625  37.224  22.338  1.00  0.00    -0.394 N 
HETATM    8  C   LIG     1      16.722  37.512  23.765  1.00  0.00     0.146 C 
HETATM    9  H   LIG     1      15.762  36.742  22.000  1.00  0.00     0.159 HD
ENDBRANCH   1   7
TORSDOF 1
ENDMDL
MODEL 4
REMARK VINA RESULT:      -5.4      2.937      5.226
REMARK  1 active torsions:
REMARK  status: ('A' for Active; 'I' for Inactive)
REMARK    1  A    between atoms: N_2  and  C_3 
ROOT
HETATM    1  C   LIG     1      17.588  37.606  21.475  1.00  0.00     0.027 A 
HETATM    2  C   LIG     1      18.182  38.884  21.469  1.00  0.00     0.029 A 
HETATM    3  C   LIG     1      19.172  39.199  20.531  1.00  0.00     0.002 A 
HETATM    4  C   LIG     1      19.578  38.246  19.595  1.00  0.00     0.000 A 
HETATM    5  C   LIG     1      18.996  36.977  19.592  1.00  0.00     0.002 A 
HETATM    6  C   LIG     1      18.006  36.658  20.527  1.00  0.00     0.029 A 
ENDROOT
BRANCH   1   7
HETATM    7  N   LIG     1      16.568  37.250  22.425  1.00  0.00    -0.394 N 
HETATM    8  C   LIG     1      16.617  37.617  23.837  1.00  0.00     0.146 C 
HETATM    9  H   LIG     1      15.743  36.698  22.098  1.00  0.00     0.159 HD
ENDBRANCH   1   7
TORSDOF 1
ENDMDL
MODEL 5
REMARK VINA RESULT:      -5.2      4.334      5.457
REMARK  1 active torsions:
REMARK  status: ('A' for Active; 'I' for Inactive)
REMARK    1  A    between atoms: N_2  and  C_3 
ROOT
HETATM    1  C   LIG     1      17.903  36.778  20.496  1.00  0.00     0.027 A 
HETATM    2  C   LIG     1      18.916  36.984  19.539  1.00  0.00     0.029 A 
HETATM    3  C   LIG     1      19.668  38.164  19.549  1.00  0.00     0.002 A 
HETATM    4  C   LIG     1      19.419  39.145  20.510  1.00  0.00     0.000 A 
HETATM    5  C   LIG     1      18.418  38.951  21.463  1.00  0.00     0.002 A 
HETATM    6  C   LIG     1      17.663  37.774  21.457  1.00  0.00     0.029 A 
ENDROOT
BRANCH   1   7
HETATM    7  N   LIG     1      17.110  35.576  20.514  1.00  0.00    -0.394 N 
HETATM    8  C   LIG     1      15.784  35.494  21.117  1.00  0.00     0.146 C 
HETATM    9  H   LIG     1      17.496  34.710  20.076  1.00  0.00     0.159 HD
ENDBRANCH   1   7
TORSDOF 1
ENDMDL
MODEL 6
REMARK VINA RESULT:      -5.1      1.741      3.475
REMARK  1 active torsions:
REMARK  status: ('A' for Active; 'I' for Inactive)
REMARK    1  A    between atoms: N_2  and  C_3 
ROOT
HETATM    1  C   LIG     1      17.182  36.561  24.106  1.00  0.00     0.027 A 
HETATM    2  C   LIG     1      17.065  35.308  23.471  1.00  0.00     0.029 A 
HETATM    3  C   LIG     1      17.053  35.222  22.075  1.00  0.00     0.002 A 
HETATM    4  C   LIG     1      17.158  36.380  21.301  1.00  0.00     0.000 A 
HETATM    5  C   LIG     1      17.275  37.625  21.919  1.00  0.00     0.002 A 
HETATM    6  C   LIG     1      17.287  37.717  23.315  1.00  0.00     0.029 A 
ENDROOT
BRANCH   1   7
HETATM    7  N   LIG     1      17.197  36.685  25.540  1.00  0.00    -0.394 N 
HETATM    8  C   LIG     1      18.421  36.720  26.334  1.00  0.00     0.146 C 
HETATM    9  H   LIG     1      16.288  36.754  26.051  1.00  0.00     0.159 HD
ENDBRANCH   1   7
TORSDOF 1
ENDMDL
MODEL 7
REMARK VINA RESULT:      -5.1      3.672      4.809
REMARK  1 active torsions:
REMARK  status: ('A' for Active; 'I' for Inactive)
REMARK    1  A    between atoms: N_2  and  C_3 
ROOT
HETATM    1  C   LIG     1      18.519  38.560  20.927  1.00  0.00     0.027 A 
HETATM    2  C   LIG     1      17.721  39.007  22.000  1.00  0.00     0.029 A 
HETATM    3  C   LIG     1      16.778  38.154  22.582  1.00  0.00     0.002 A 
HETATM    4  C   LIG     1      16.622  36.851  22.104  1.00  0.00     0.000 A 
HETATM    5  C   LIG     1      17.406  36.398  21.042  1.00  0.00     0.002 A 
HETATM    6  C   LIG     1      18.351  37.248  20.456  1.00  0.00     0.029 A 
ENDROOT
BRANCH   1   7
HETATM    7  N   LIG     1      19.498  39.412  20.305  1.00  0.00    -0.394 N 
HETATM    8  C   LIG     1      20.441  38.950  19.291  1.00  0.00     0.146 C 
HETATM    9  H   LIG     1      19.546  40.417  20.586  1.00  0.00     0.159 HD
ENDBRANCH   1   7
TORSDOF 1
ENDMDL
MODEL 8
REMARK VINA RESULT:      -5.0     10.141     11.248
REMARK  1 active torsions:
REMARK  status: ('A' for Active; 'I' for Inactive)
REMARK    1  A    between atoms: N_2  and  C_3 
ROOT
HETATM    1  C   LIG     1      14.065  31.483  16.701  1.00  0.00     0.027 A 
HETATM    2  C   LIG     1      13.165  30.545  16.157  1.00  0.00     0.029 A 
HETATM    3  C   LIG     1      13.402  29.987  14.896  1.00  0.00     0.002 A 
HETATM    4  C   LIG     1      14.535  30.357  14.168  1.00  0.00     0.000 A 
HETATM    5  C   LIG     1      15.433  31.285  14.697  1.00  0.00     0.002 A 
HETATM    6  C   LIG     1      15.200  31.845  15.958  1.00  0.00     0.029 A 
ENDROOT
BRANCH   1   7
HETATM    7  N   LIG     1      13.851  32.076  17.995  1.00  0.00    -0.394 N 
HETATM    8  C   LIG     1      14.862  32.100  19.047  1.00  0.00     0.146 C 
HETATM    9  H   LIG     1      12.926  32.514  18.203  1.00  0.00     0.159 HD
ENDBRANCH   1   7
TORSDOF 1
ENDMDL
MODEL 9
REMARK VINA RESULT:      -5.0     11.963     13.052
REMARK  1 active torsions:
REMARK  status: ('A' for Active; 'I' for Inactive)
REMARK    1  A    between atoms: N_2  and  C_3 
ROOT
HETATM    1  C   LIG     1      13.473  29.782  14.589  1.00  0.00     0.027 A 
HETATM    2  C   LIG     1      13.116  30.496  15.750  1.00  0.00     0.029 A 
HETATM    3  C   LIG     1      13.977  31.464  16.278  1.00  0.00     0.002 A 
HETATM    4  C   LIG     1      15.199  31.728  15.655  1.00  0.00     0.000 A 
HETATM    5  C   LIG     1      15.563  31.027  14.505  1.00  0.00     0.002 A 
HETATM    6  C   LIG     1      14.705  30.058  13.973  1.00  0.00     0.029 A 
ENDROOT
BRANCH   1   7
HETATM    7  N   LIG     1      12.611  28.780  14.020  1.00  0.00    -0.394 N 
HETATM    8  C   LIG     1      13.046  27.421  13.712  1.00  0.00     0.146 C 
HETATM    9  H   LIG     1      11.617  29.027  13.811  1.00  0.00     0.159 HD
ENDBRANCH   1   7
TORSDOF 1
ENDMDL
MODEL 10
REMARK VINA RESULT:      -4.8     11.292     12.384
REMARK  1 active torsions:
REMARK  status: ('A' for Active; 'I' for Inactive)
REMARK    1  A    between atoms: N_2  and  C_3 
ROOT
HETATM    1  C   LIG     1      14.579  30.384  14.612  1.00  0.00     0.027 A 
HETATM    2  C   LIG     1      15.432  31.416  15.053  1.00  0.00     0.029 A 
HETATM    3  C   LIG     1      15.062  32.226  16.133  1.00  0.00     0.002 A 
HETATM    4  C   LIG     1      13.844  32.014  16.782  1.00  0.00     0.000 A 
HETATM    5  C   LIG     1      12.992  30.995  16.354  1.00  0.00     0.002 A 
HETATM    6  C   LIG     1      13.357  30.183  15.275  1.00  0.00     0.029 A 
ENDROOT
BRANCH   1   7
HETATM    7  N   LIG     1      14.928  29.533  13.505  1.00  0.00    -0.394 N 
HETATM    8  C   LIG     1      15.253  28.118  13.647  1.00  0.00     0.146 C 
HETATM    9  H   LIG     1      14.955  29.941  12.543  1.00  0.00     0.159 HD
ENDBRANCH   1   7
TORSDOF 1
ENDMDL
MODEL 11
REMARK VINA RESULT:      -4.8     10.029     10.986
REMARK  1 active torsions:
REMARK  status: ('A' for Active; 'I' for Inactive)
REMARK    1  A    between atoms: N_2  and  C_3 
ROOT
HETATM    1  C   LIG     1      15.471  32.258  15.829  1.00  0.00     0.027 A 
HETATM    2  C   LIG     1      15.289  31.215  14.898  1.00  0.00     0.029 A 
HETATM    3  C   LIG     1      14.146  30.411  14.954  1.00  0.00     0.002 A 
HETATM    4  C   LIG     1      13.177  30.637  15.933  1.00  0.00     0.000 A 
HETATM    5  C   LIG     1      13.347  31.668  16.859  1.00  0.00     0.002 A 
HETATM    6  C   LIG     1      14.489  32.474  16.808  1.00  0.00     0.029 A 
ENDROOT
BRANCH   1   7
HETATM    7  N   LIG     1      16.636  33.104  15.800  1.00  0.00    -0.394 N 
HETATM    8  C   LIG     1      17.517  33.223  14.642  1.00  0.00     0.146 C 
HETATM    9  H   LIG     1      16.873  33.667  16.648  1.00  0.00     0.159 HD
ENDBRANCH   1   7
TORSDOF 1
ENDMDL
MODEL 12
REMARK VINA RESULT:      -4.7     10.345     11.395
REMARK  1 active torsions:
REMARK  status: ('A' for Active; 'I' for Inactive)
REMARK    1  A    between atoms: N_2  and  C_3 
ROOT
HETATM    1  C   LIG     1      15.666  32.086  15.584  1.00  0.00     0.027 A 
HETATM    2  C   LIG     1      14.637  32.116  16.546  1.00  0.00     0.029 A 
HETATM    3  C   LIG     1      13.543  31.250  16.438  1.00  0.00     0.002 A 
HETATM    4  C   LIG     1      13.466  30.349  15.373  1.00  0.00     0.000 A 
HETATM    5  C   LIG     1      14.480  30.311  14.415  1.00  0.00     0.002 A 
HETATM    6  C   LIG     1      15.575  31.175  14.519  1.00  0.00     0.029 A 
ENDROOT
BRANCH   1   7
HETATM    7  N   LIG     1      16.805  32.963  15.665  1.00  0.00    -0.394 N 
HETATM    8  C   LIG     1      17.615  33.341  14.512  1.00  0.00     0.146 C 
HETATM    9  H   LIG     1      17.075  33.356  16.595  1.00  0.00     0.159 HD
ENDBRANCH   1   7
TORSDOF 1
ENDMDL
MODEL 13
REMARK VINA RESULT:      -4.1      8.967     10.057
REMARK  1 active torsions:
REMARK  status: ('A' for Active; 'I' for Inactive)
REMARK    1  A    between atoms: N_2  and  C_3 
ROOT
HETATM    1  C   LIG     1      14.966  32.510  17.381  1.00  0.00     0.027 A 
HETATM    2  C   LIG     1      15.810  32.615  16.257  1.00  0.00     0.029 A 
HETATM    3  C   LIG     1      15.578  31.828  15.124  1.00  0.00     0.002 A 
HETATM    4  C   LIG     1      14.507  30.932  15.100  1.00  0.00     0.000 A 
HETATM    5  C   LIG     1      13.665  30.821  16.208  1.00  0.00     0.002 A 
HETATM    6  C   LIG     1      13.893  31.606  17.343  1.00  0.00     0.029 A 
ENDROOT
BRANCH   1   7
HETATM    7  N   LIG     1      15.176  33.305  18.563  1.00  0.00    -0.394 N 
HETATM    8  C   LIG     1      15.510  34.725  18.530  1.00  0.00     0.146 C 
HETATM    9  H   LIG     1      15.087  32.851  19.500  1.00  0.00     0.159 HD
ENDBRANCH   1   7
TORSDOF 1
ENDMDL
MODEL 14
REMARK VINA RESULT:      -4.1     13.770     14.771
REMARK  1 active torsions:
REMARK  status: ('A' for Active; 'I' for Inactive)
REMARK    1  A    between atoms: N_2  and  C_3 
ROOT
HETATM    1  C   LIG     1      13.051  28.200  13.710  1.00  0.00     0.027 A 
HETATM    2  C   LIG     1      14.284  27.566  13.454  1.00  0.00     0.029 A 
HETATM    3  C   LIG     1      15.486  28.197  13.792  1.00  0.00     0.002 A 
HETATM    4  C   LIG     1      15.472  29.460  14.387  1.00  0.00     0.000 A 
HETATM    5  C   LIG     1      14.257  30.096  14.646  1.00  0.00     0.002 A 
HETATM    6  C   LIG     1      13.052  29.470  14.309  1.00  0.00     0.029 A 
ENDROOT
BRANCH   1   7
HETATM    7  N   LIG     1      11.797  27.580  13.375  1.00  0.00    -0.394 N 
HETATM    8  C   LIG     1      11.688  26.350  12.596  1.00  0.00     0.146 C 
HETATM    9  H   LIG     1      10.909  28.026  13.700  1.00  0.00     0.159 HD
ENDBRANCH   1   7
TORSDOF 1
ENDMDL
MODEL 15
REMARK VINA RESULT:      -4.0     12.389     13.887
REMARK  1 active torsions:
REMARK  status: ('A' for Active; 'I' for Inactive)
REMARK    1  A    between atoms: N_2  and  C_3 
ROOT
HETATM    1  C   LIG     1      18.844  34.149  11.922  1.00  0.00     0.027 A 
HETATM    2  C   LIG     1      18.846  34.735  10.640  1.00  0.00     0.029 A 
HETATM    3  C   LIG     1      20.045  35.164  10.062  1.00  0.00     0.002 A 
HETATM    4  C   LIG     1      21.249  35.014  10.752  1.00  0.00     0.000 A 
HETATM    5  C   LIG     1      21.259  34.435  12.022  1.00  0.00     0.002 A 
HETATM    6  C   LIG     1      20.062  34.004  12.605  1.00  0.00     0.029 A 
ENDROOT
BRANCH   1   7
HETATM    7  N   LIG     1      17.628  33.697  12.547  1.00  0.00    -0.394 N 
HETATM    8  C   LIG     1      17.529  33.349  13.961  1.00  0.00     0.146 C 
HETATM    9  H   LIG     1      16.764  33.608  11.966  1.00  0.00     0.159 HD
ENDBRANCH   1   7
TORSDOF 1
ENDMDL
MODEL 16
REMARK VINA RESULT:      -3.8      6.492      7.562
REMARK  1 active torsions:
REMARK  status: ('A' for Active; 'I' for Inactive)
REMARK    1  A    between atoms: N_2  and  C_3 
ROOT
HETATM    1  C   LIG     1      15.507  33.978  19.234  1.00  0.00     0.027 A 
HETATM    2  C   LIG     1      15.155  34.046  17.870  1.00  0.00     0.029 A 
HETATM    3  C   LIG     1      14.610  32.930  17.225  1.00  0.00     0.002 A 
HETATM    4  C   LIG     1      14.411  31.741  17.930  1.00  0.00     0.000 A 
HETATM    5  C   LIG     1      14.755  31.663  19.280  1.00  0.00     0.002 A 
HETATM    6  C   LIG     1      15.301  32.775  19.930  1.00  0.00     0.029 A 
ENDROOT
BRANCH   1   7
HETATM    7  N   LIG     1      16.070  35.106  19.928  1.00  0.00    -0.394 N 
HETATM    8  C   LIG     1      15.504  35.664  21.152  1.00  0.00     0.146 C 
HETATM    9  H   LIG     1      16.930  35.559  19.544  1.00  0.00     0.159 HD
ENDBRANCH   1   7
TORSDOF 1
ENDMDL
MODEL 17
REMARK VINA RESULT:      -3.7     10.493     11.564
REMARK  1 active torsions:
REMARK  status: ('A' for Active; 'I' for Inactive)
REMARK    1  A    between atoms: N_2  and  C_3 
ROOT
HETATM    1  C   LIG     1      14.960  31.702  15.727  1.00  0.00     0.027 A 
HETATM    2  C   LIG     1      14.850  30.946  14.542  1.00  0.00     0.029 A 
HETATM    3  C   LIG     1      15.682  31.218  13.451  1.00  0.00     0.002 A 
HETATM    4  C   LIG     1      16.629  32.241  13.529  1.00  0.00     0.000 A 
HETATM    5  C   LIG     1      16.747  32.996  14.698  1.00  0.00     0.002 A 
HETATM    6  C   LIG     1      15.917  32.728  15.791  1.00  0.00     0.029 A 
ENDROOT
BRANCH   1   7
HETATM    7  N   LIG     1      14.120  31.450  16.868  1.00  0.00    -0.394 N 
HETATM    8  C   LIG     1      12.676  31.657  16.867  1.00  0.00     0.146 C 
HETATM    9  H   LIG     1      14.557  31.099  17.750  1.00  0.00     0.159 HD
ENDBRANCH   1   7
TORSDOF 1
ENDMDL
MODEL 18
REMARK VINA RESULT:      -3.5     13.437     14.329
REMARK  1 active torsions:
REMARK  status: ('A' for Active; 'I' for Inactive)
REMARK    1  A    between atoms: N_2  and  C_3 
ROOT
HETATM    1  C   LIG     1      21.034  35.238  10.831  1.00  0.00     0.027 A 
HETATM    2  C   LIG     1      19.666  35.103  10.519  1.00  0.00     0.029 A 
HETATM    3  C   LIG     1      18.829  34.333  11.334  1.00  0.00     0.002 A 
HETATM    4  C   LIG     1      19.344  33.693  12.462  1.00  0.00     0.000 A 
HETATM    5  C   LIG     1      20.697  33.820  12.780  1.00  0.00     0.002 A 
HETATM    6  C   LIG     1      21.539  34.588  11.969  1.00  0.00     0.029 A 
ENDROOT
BRANCH   1   7
HETATM    7  N   LIG     1      21.923  36.022  10.014  1.00  0.00    -0.394 N 
HETATM    8  C   LIG     1      23.007  36.836  10.555  1.00  0.00     0.146 C 
HETATM    9  H   LIG     1      21.795  36.016   8.977  1.00  0.00     0.159 HD
ENDBRANCH   1   7
TORSDOF 1
ENDMDL
MODEL 19
REMARK VINA RESULT:      -3.4     12.223     13.562
REMARK  1 active torsions:
REMARK  status: ('A' for Active; 'I' for Inactive)
REMARK    1  A    between atoms: N_2  and  C_3 
ROOT
HETATM    1  C   LIG     1      19.140  33.757  12.767  1.00  0.00     0.027 A 
HETATM    2  C   LIG     1      20.464  34.233  12.854  1.00  0.00     0.029 A 
HETATM    3  C   LIG     1      21.411  33.868  11.892  1.00  0.00     0.002 A 
HETATM    4  C   LIG     1      21.050  33.027  10.837  1.00  0.00     0.000 A 
HETATM    5  C   LIG     1      19.742  32.550  10.741  1.00  0.00     0.002 A 
HETATM    6  C   LIG     1      18.791  32.912  11.701  1.00  0.00     0.029 A 
ENDROOT
BRANCH   1   7
HETATM    7  N   LIG     1      18.141  34.113  13.740  1.00  0.00    -0.394 N 
HETATM    8  C   LIG     1      17.597  33.176  14.717  1.00  0.00     0.146 C 
HETATM    9  H   LIG     1      17.779  35.093  13.757  1.00  0.00     0.159 HD
ENDBRANCH   1   7
TORSDOF 1
ENDMDL
MODEL 20
REMARK VINA RESULT:      -3.4     17.022     17.622
REMARK  1 active torsions:
REMARK  status: ('A' for Active; 'I' for Inactive)
REMARK    1  A    between atoms: N_2  and  C_3 
ROOT
HETATM    1  C   LIG     1      22.196  23.589  35.140  1.00  0.00     0.027 A 
HETATM    2  C   LIG     1      21.335  23.843  36.228  1.00  0.00     0.029 A 
HETATM    3  C   LIG     1      19.972  23.545  36.133  1.00  0.00     0.002 A 
HETATM    4  C   LIG     1      19.455  22.994  34.959  1.00  0.00     0.000 A 
HETATM    5  C   LIG     1      20.298  22.739  33.876  1.00  0.00     0.002 A 
HETATM    6  C   LIG     1      21.662  23.035  33.966  1.00  0.00     0.029 A 
ENDROOT
BRANCH   1   7
HETATM    7  N   LIG     1      23.604  23.883  35.204  1.00  0.00    -0.394 N 
HETATM    8  C   LIG     1      24.539  23.166  36.065  1.00  0.00     0.146 C 
HETATM    9  H   LIG     1      23.988  24.650  34.607  1.00  0.00     0.159 HD
ENDBRANCH   1   7
TORSDOF 1
ENDMDL
