MODEL 1
REMARK VINA RESULT:      -5.8      0.000      0.000
REMARK  1 active torsions:
REMARK  status: ('A' for Active; 'I' for Inactive)
REMARK    1  A    between atoms: S_2  and  C_3 
ROOT
HETATM    1  C   LIG     1      17.186  36.616  24.179  1.00  0.00    -0.000 A 
HETATM    2  C   LIG     1      17.157  35.252  24.494  1.00  0.00     0.018 A 
HETATM    3  C   LIG     1      17.724  34.797  25.688  1.00  0.00     0.001 A 
HETATM    4  C   LIG     1      18.325  35.704  26.568  1.00  0.00     0.000 A 
HETATM    5  C   LIG     1      18.359  37.066  26.253  1.00  0.00     0.001 A 
HETATM    6  C   LIG     1      17.791  37.523  25.059  1.00  0.00     0.018 A 
ENDROOT
BRANCH   1   7
HETATM    7  S   LIG     1      16.462  37.200  22.644  1.00  0.00    -0.134 SA
HETATM    8  C   LIG     1      17.201  38.857  22.784  1.00  0.00     0.095 C 
ENDBRANCH   1   7
TORSDOF 1
ENDMDL
MODEL 2
REMARK VINA RESULT:      -5.8      0.090      1.715
REMARK  1 active torsions:
REMARK  status: ('A' for Active; 'I' for Inactive)
REMARK    1  A    between atoms: S_2  and  C_3 
ROOT
HETATM    1  C   LIG     1      17.206  36.552  24.213  1.00  0.00    -0.000 A 
HETATM    2  C   LIG     1      17.789  37.496  25.067  1.00  0.00     0.018 A 
HETATM    3  C   LIG     1      18.353  37.089  26.280  1.00  0.00     0.001 A 
HETATM    4  C   LIG     1      18.333  35.738  26.642  1.00  0.00     0.000 A 
HETATM    5  C   LIG     1      17.748  34.794  25.792  1.00  0.00     0.001 A 
HETATM    6  C   LIG     1      17.183  35.200  24.579  1.00  0.00     0.018 A 
ENDROOT
BRANCH   1   7
HETATM    7  S   LIG     1      16.477  37.074  22.658  1.00  0.00    -0.134 SA
HETATM    8  C   LIG     1      17.153  38.760  22.769  1.00  0.00     0.095 C 
ENDBRANCH   1   7
TORSDOF 1
ENDMDL
MODEL 3
REMARK VINA RESULT:      -5.4      2.725      5.052
REMARK  1 active torsions:
REMARK  status: ('A' for Active; 'I' for Inactive)
REMARK    1  A    between atoms: S_2  and  C_3 
ROOT
HETATM    1  C   LIG     1      17.637  37.746  21.561  1.00  0.00    -0.000 A 
HETATM    2  C   LIG     1      18.296  38.978  21.465  1.00  0.00     0.018 A 
HETATM    3  C   LIG     1      19.257  39.183  20.471  1.00  0.00     0.001 A 
HETATM    4  C   LIG     1      19.563  38.156  19.572  1.00  0.00     0.000 A 
HETATM    5  C   LIG     1      18.909  36.923  19.668  1.00  0.00     0.001 A 
HETATM    6  C   LIG     1      17.947  36.717  20.663  1.00  0.00     0.018 A 
ENDROOT
BRANCH   1   7
HETATM    7  S   LIG     1      16.406  37.481  22.841  1.00  0.00    -0.134 SA
HETATM    8  C   LIG     1      17.455  38.166  24.161  1.00  0.00     0.095 C 
ENDBRANCH   1   7
TORSDOF 1
ENDMDL
MODEL 4
REMARK VINA RESULT:      -5.4      2.834      4.838
REMARK  1 active torsions:
REMARK  status: ('A' for Active; 'I' for Inactive)
REMARK    1  A    between atoms: S_2  and  C_3 
ROOT
HETATM    1  C   LIG     1      17.672  37.566  21.367  1.00  0.00    -0.000 A 
HETATM    2  C   LIG     1      18.115  36.657  20.399  1.00  0.00     0.018 A 
HETATM    3  C   LIG     1      19.115  37.028  19.494  1.00  0.00     0.001 A 
HETATM    4  C   LIG     1      19.672  38.310  19.554  1.00  0.00     0.000 A 
HETATM    5  C   LIG     1      19.228  39.221  20.518  1.00  0.00     0.001 A 
HETATM    6  C   LIG     1      18.228  38.851  21.423  1.00  0.00     0.018 A 
ENDROOT
BRANCH   1   7
HETATM    7  S   LIG     1      16.386  37.092  22.525  1.00  0.00    -0.134 SA
HETATM    8  C   LIG     1      17.117  38.023  23.906  1.00  0.00     0.095 C 
ENDBRANCH   1   7
TORSDOF 1
ENDMDL
MODEL 5
REMARK VINA RESULT:      -4.9      1.924      3.591
REMARK  1 active torsions:
REMARK  status: ('A' for Active; 'I' for Inactive)
REMARK    1  A    between atoms: S_2  and  C_3 
ROOT
HETATM    1  C   LIG     1      17.399  36.571  24.378  1.00  0.00    -0.000 A 
HETATM    2  C   LIG     1      17.166  35.316  23.803  1.00  0.00     0.018 A 
HETATM    3  C   LIG     1      16.757  35.222  22.469  1.00  0.00     0.001 A 
HETATM    4  C   LIG     1      16.576  36.382  21.709  1.00  0.00     0.000 A 
HETATM    5  C   LIG     1      16.805  37.637  22.283  1.00  0.00     0.001 A 
HETATM    6  C   LIG     1      17.215  37.733  23.616  1.00  0.00     0.018 A 
ENDROOT
BRANCH   1   7
HETATM    7  S   LIG     1      17.919  36.693  26.091  1.00  0.00    -0.134 SA
HETATM    8  C   LIG     1      18.163  34.898  26.271  1.00  0.00     0.095 C 
ENDBRANCH   1   7
TORSDOF 1
ENDMDL
MODEL 6
REMARK VINA RESULT:      -4.9      3.344      4.030
REMARK  1 active torsions:
REMARK  status: ('A' for Active; 'I' for Inactive)
REMARK    1  A    between atoms: S_2  and  C_3 
ROOT
HETATM    1  C   LIG     1      18.026  37.508  20.853  1.00  0.00    -0.000 A 
HETATM    2  C   LIG     1      17.235  36.435  21.280  1.00  0.00     0.018 A 
HETATM    3  C   LIG     1      16.337  36.604  22.339  1.00  0.00     0.001 A 
HETATM    4  C   LIG     1      16.231  37.845  22.975  1.00  0.00     0.000 A 
HETATM    5  C   LIG     1      17.022  38.918  22.552  1.00  0.00     0.001 A 
HETATM    6  C   LIG     1      17.920  38.750  21.493  1.00  0.00     0.018 A 
ENDROOT
BRANCH   1   7
HETATM    7  S   LIG     1      19.181  37.290  19.497  1.00  0.00    -0.134 SA
HETATM    8  C   LIG     1      20.003  38.889  19.781  1.00  0.00     0.095 C 
ENDBRANCH   1   7
TORSDOF 1
ENDMDL
MODEL 7
REMARK VINA RESULT:      -4.9      1.760      2.124
REMARK  1 active torsions:
REMARK  status: ('A' for Active; 'I' for Inactive)
REMARK    1  A    between atoms: S_2  and  C_3 
ROOT
HETATM    1  C   LIG     1      16.973  36.057  22.892  1.00  0.00    -0.000 A 
HETATM    2  C   LIG     1      17.166  35.067  23.864  1.00  0.00     0.018 A 
HETATM    3  C   LIG     1      17.432  35.429  25.188  1.00  0.00     0.001 A 
HETATM    4  C   LIG     1      17.509  36.780  25.542  1.00  0.00     0.000 A 
HETATM    5  C   LIG     1      17.321  37.769  24.572  1.00  0.00     0.001 A 
HETATM    6  C   LIG     1      17.054  37.409  23.248  1.00  0.00     0.018 A 
ENDROOT
BRANCH   1   7
HETATM    7  S   LIG     1      16.636  35.594  21.191  1.00  0.00    -0.134 SA
HETATM    8  C   LIG     1      14.835  35.778  21.370  1.00  0.00     0.095 C 
ENDBRANCH   1   7
TORSDOF 1
ENDMDL
MODEL 8
REMARK VINA RESULT:      -4.6     10.070     11.077
REMARK  1 active torsions:
REMARK  status: ('A' for Active; 'I' for Inactive)
REMARK    1  A    between atoms: S_2  and  C_3 
ROOT
HETATM    1  C   LIG     1      15.420  31.927  15.522  1.00  0.00    -0.000 A 
HETATM    2  C   LIG     1      14.939  30.858  14.756  1.00  0.00     0.018 A 
HETATM    3  C   LIG     1      13.717  30.259  15.078  1.00  0.00     0.001 A 
HETATM    4  C   LIG     1      12.976  30.724  16.169  1.00  0.00     0.000 A 
HETATM    5  C   LIG     1      13.456  31.789  16.938  1.00  0.00     0.001 A 
HETATM    6  C   LIG     1      14.677  32.390  16.617  1.00  0.00     0.018 A 
ENDROOT
BRANCH   1   7
HETATM    7  S   LIG     1      16.989  32.694  15.112  1.00  0.00    -0.134 SA
HETATM    8  C   LIG     1      16.678  32.656  13.320  1.00  0.00     0.095 C 
ENDBRANCH   1   7
TORSDOF 1
ENDMDL
MODEL 9
REMARK VINA RESULT:      -4.6     10.071     11.176
REMARK  1 active torsions:
REMARK  status: ('A' for Active; 'I' for Inactive)
REMARK    1  A    between atoms: S_2  and  C_3 
ROOT
HETATM    1  C   LIG     1      15.423  31.929  15.523  1.00  0.00    -0.000 A 
HETATM    2  C   LIG     1      14.675  32.393  16.612  1.00  0.00     0.018 A 
HETATM    3  C   LIG     1      13.456  31.789  16.934  1.00  0.00     0.001 A 
HETATM    4  C   LIG     1      12.980  30.721  16.165  1.00  0.00     0.000 A 
HETATM    5  C   LIG     1      13.724  30.258  15.075  1.00  0.00     0.001 A 
HETATM    6  C   LIG     1      14.943  30.862  14.753  1.00  0.00     0.018 A 
ENDROOT
BRANCH   1   7
HETATM    7  S   LIG     1      16.985  32.707  15.107  1.00  0.00    -0.134 SA
HETATM    8  C   LIG     1      16.675  32.651  13.315  1.00  0.00     0.095 C 
ENDBRANCH   1   7
TORSDOF 1
ENDMDL
MODEL 10
REMARK VINA RESULT:      -4.6      9.994     11.221
REMARK  1 active torsions:
REMARK  status: ('A' for Active; 'I' for Inactive)
REMARK    1  A    between atoms: S_2  and  C_3 
ROOT
HETATM    1  C   LIG     1      14.700  31.890  15.973  1.00  0.00    -0.000 A 
HETATM    2  C   LIG     1      13.552  31.106  16.137  1.00  0.00     0.018 A 
HETATM    3  C   LIG     1      13.313  30.025  15.282  1.00  0.00     0.001 A 
HETATM    4  C   LIG     1      14.220  29.729  14.259  1.00  0.00     0.000 A 
HETATM    5  C   LIG     1      15.366  30.514  14.091  1.00  0.00     0.001 A 
HETATM    6  C   LIG     1      15.605  31.595  14.946  1.00  0.00     0.018 A 
ENDROOT
BRANCH   1   7
HETATM    7  S   LIG     1      15.003  33.280  17.067  1.00  0.00    -0.134 SA
HETATM    8  C   LIG     1      14.959  32.260  18.574  1.00  0.00     0.095 C 
ENDBRANCH   1   7
TORSDOF 1
ENDMDL
MODEL 11
REMARK VINA RESULT:      -4.6      9.981     11.246
REMARK  1 active torsions:
REMARK  status: ('A' for Active; 'I' for Inactive)
REMARK    1  A    between atoms: S_2  and  C_3 
ROOT
HETATM    1  C   LIG     1      14.710  31.917  15.976  1.00  0.00    -0.000 A 
HETATM    2  C   LIG     1      15.613  31.623  14.946  1.00  0.00     0.018 A 
HETATM    3  C   LIG     1      15.368  30.549  14.085  1.00  0.00     0.001 A 
HETATM    4  C   LIG     1      14.222  29.765  14.253  1.00  0.00     0.000 A 
HETATM    5  C   LIG     1      13.321  30.055  15.282  1.00  0.00     0.001 A 
HETATM    6  C   LIG     1      13.564  31.128  16.144  1.00  0.00     0.018 A 
ENDROOT
BRANCH   1   7
HETATM    7  S   LIG     1      15.027  33.292  17.084  1.00  0.00    -0.134 SA
HETATM    8  C   LIG     1      14.945  32.261  18.582  1.00  0.00     0.095 C 
ENDBRANCH   1   7
TORSDOF 1
ENDMDL
MODEL 12
REMARK VINA RESULT:      -4.5      3.350      4.466
REMARK  1 active torsions:
REMARK  status: ('A' for Active; 'I' for Inactive)
REMARK    1  A    between atoms: S_2  and  C_3 
ROOT
HETATM    1  C   LIG     1      17.047  36.663  21.605  1.00  0.00    -0.000 A 
HETATM    2  C   LIG     1      17.967  36.541  20.556  1.00  0.00     0.018 A 
HETATM    3  C   LIG     1      18.866  37.578  20.290  1.00  0.00     0.001 A 
HETATM    4  C   LIG     1      18.846  38.739  21.070  1.00  0.00     0.000 A 
HETATM    5  C   LIG     1      17.926  38.864  22.116  1.00  0.00     0.001 A 
HETATM    6  C   LIG     1      17.026  37.828  22.383  1.00  0.00     0.018 A 
ENDROOT
BRANCH   1   7
HETATM    7  S   LIG     1      15.889  35.334  21.944  1.00  0.00    -0.134 SA
HETATM    8  C   LIG     1      15.633  34.945  20.185  1.00  0.00     0.095 C 
ENDBRANCH   1   7
TORSDOF 1
ENDMDL
MODEL 13
REMARK VINA RESULT:      -4.4     10.410     11.532
REMARK  1 active torsions:
REMARK  status: ('A' for Active; 'I' for Inactive)
REMARK    1  A    between atoms: S_2  and  C_3 
ROOT
HETATM    1  C   LIG     1      14.097  30.541  15.255  1.00  0.00    -0.000 A 
HETATM    2  C   LIG     1      15.241  31.262  14.893  1.00  0.00     0.018 A 
HETATM    3  C   LIG     1      15.656  32.351  15.665  1.00  0.00     0.001 A 
HETATM    4  C   LIG     1      14.926  32.724  16.799  1.00  0.00     0.000 A 
HETATM    5  C   LIG     1      13.781  32.007  17.160  1.00  0.00     0.001 A 
HETATM    6  C   LIG     1      13.365  30.917  16.389  1.00  0.00     0.018 A 
ENDROOT
BRANCH   1   7
HETATM    7  S   LIG     1      13.561  29.145  14.262  1.00  0.00    -0.134 SA
HETATM    8  C   LIG     1      15.257  28.647  13.829  1.00  0.00     0.095 C 
ENDBRANCH   1   7
TORSDOF 1
ENDMDL
MODEL 14
REMARK VINA RESULT:      -3.9     10.286     11.364
REMARK  1 active torsions:
REMARK  status: ('A' for Active; 'I' for Inactive)
REMARK    1  A    between atoms: S_2  and  C_3 
ROOT
HETATM    1  C   LIG     1      14.988  31.777  15.858  1.00  0.00    -0.000 A 
HETATM    2  C   LIG     1      14.600  30.747  14.991  1.00  0.00     0.018 A 
HETATM    3  C   LIG     1      15.183  30.641  13.725  1.00  0.00     0.001 A 
HETATM    4  C   LIG     1      16.152  31.565  13.321  1.00  0.00     0.000 A 
HETATM    5  C   LIG     1      16.538  32.596  14.183  1.00  0.00     0.001 A 
HETATM    6  C   LIG     1      15.956  32.704  15.450  1.00  0.00     0.018 A 
ENDROOT
BRANCH   1   7
HETATM    7  S   LIG     1      14.237  31.917  17.481  1.00  0.00    -0.134 SA
HETATM    8  C   LIG     1      12.538  31.797  16.840  1.00  0.00     0.095 C 
ENDBRANCH   1   7
TORSDOF 1
ENDMDL
MODEL 15
REMARK VINA RESULT:      -3.8     10.824     11.910
REMARK  1 active torsions:
REMARK  status: ('A' for Active; 'I' for Inactive)
REMARK    1  A    between atoms: S_2  and  C_3 
ROOT
HETATM    1  C   LIG     1      15.068  31.102  14.589  1.00  0.00    -0.000 A 
HETATM    2  C   LIG     1      15.853  31.506  13.502  1.00  0.00     0.018 A 
HETATM    3  C   LIG     1      16.719  32.597  13.630  1.00  0.00     0.001 A 
HETATM    4  C   LIG     1      16.799  33.288  14.843  1.00  0.00     0.000 A 
HETATM    5  C   LIG     1      16.013  32.889  15.929  1.00  0.00     0.001 A 
HETATM    6  C   LIG     1      15.148  31.798  15.803  1.00  0.00     0.018 A 
ENDROOT
BRANCH   1   7
HETATM    7  S   LIG     1      13.954  29.706  14.425  1.00  0.00    -0.134 SA
HETATM    8  C   LIG     1      15.256  28.581  13.832  1.00  0.00     0.095 C 
ENDBRANCH   1   7
TORSDOF 1
ENDMDL
MODEL 16
REMARK VINA RESULT:      -3.6      8.149      9.226
REMARK  1 active torsions:
REMARK  status: ('A' for Active; 'I' for Inactive)
REMARK    1  A    between atoms: S_2  and  C_3 
ROOT
HETATM    1  C   LIG     1      14.125  31.981  17.310  1.00  0.00    -0.000 A 
HETATM    2  C   LIG     1      14.457  33.240  16.796  1.00  0.00     0.018 A 
HETATM    3  C   LIG     1      15.155  34.159  17.587  1.00  0.00     0.001 A 
HETATM    4  C   LIG     1      15.519  33.821  18.895  1.00  0.00     0.000 A 
HETATM    5  C   LIG     1      15.185  32.565  19.411  1.00  0.00     0.001 A 
HETATM    6  C   LIG     1      14.487  31.646  18.621  1.00  0.00     0.018 A 
ENDROOT
BRANCH   1   7
HETATM    7  S   LIG     1      13.225  30.804  16.297  1.00  0.00    -0.134 SA
HETATM    8  C   LIG     1      14.538  30.698  15.041  1.00  0.00     0.095 C 
ENDBRANCH   1   7
TORSDOF 1
ENDMDL
MODEL 17
REMARK VINA RESULT:      -3.3     13.307     14.399
REMARK  1 active torsions:
REMARK  status: ('A' for Active; 'I' for Inactive)
REMARK    1  A    between atoms: S_2  and  C_3 
ROOT
HETATM    1  C   LIG     1      13.316  27.887  13.630  1.00  0.00    -0.000 A 
HETATM    2  C   LIG     1      14.651  27.496  13.469  1.00  0.00     0.018 A 
HETATM    3  C   LIG     1      15.684  28.345  13.877  1.00  0.00     0.001 A 
HETATM    4  C   LIG     1      15.385  29.588  14.446  1.00  0.00     0.000 A 
HETATM    5  C   LIG     1      14.052  29.981  14.605  1.00  0.00     0.001 A 
HETATM    6  C   LIG     1      13.018  29.133  14.197  1.00  0.00     0.018 A 
ENDROOT
BRANCH   1   7
HETATM    7  S   LIG     1      11.990  26.800  13.102  1.00  0.00    -0.134 SA
HETATM    8  C   LIG     1      10.837  28.168  12.768  1.00  0.00     0.095 C 
ENDBRANCH   1   7
TORSDOF 1
ENDMDL
MODEL 18
REMARK VINA RESULT:      -3.1     15.290     16.250
REMARK  1 active torsions:
REMARK  status: ('A' for Active; 'I' for Inactive)
REMARK    1  A    between atoms: S_2  and  C_3 
ROOT
HETATM    1  C   LIG     1      26.710  28.978  35.897  1.00  0.00    -0.000 A 
HETATM    2  C   LIG     1      26.319  30.082  35.130  1.00  0.00     0.018 A 
HETATM    3  C   LIG     1      25.926  31.268  35.758  1.00  0.00     0.001 A 
HETATM    4  C   LIG     1      25.921  31.351  37.154  1.00  0.00     0.000 A 
HETATM    5  C   LIG     1      26.308  30.249  37.922  1.00  0.00     0.001 A 
HETATM    6  C   LIG     1      26.702  29.062  37.295  1.00  0.00     0.018 A 
ENDROOT
BRANCH   1   7
HETATM    7  S   LIG     1      27.210  27.455  35.091  1.00  0.00    -0.134 SA
HETATM    8  C   LIG     1      26.524  27.941  33.477  1.00  0.00     0.095 C 
ENDBRANCH   1   7
TORSDOF 1
ENDMDL
MODEL 19
REMARK VINA RESULT:      -3.1     16.953     18.369
REMARK  1 active torsions:
REMARK  status: ('A' for Active; 'I' for Inactive)
REMARK    1  A    between atoms: S_2  and  C_3 
ROOT
HETATM    1  C   LIG     1      21.671  23.012  36.016  1.00  0.00    -0.000 A 
HETATM    2  C   LIG     1      20.412  22.412  36.149  1.00  0.00     0.018 A 
HETATM    3  C   LIG     1      19.563  22.315  35.042  1.00  0.00     0.001 A 
HETATM    4  C   LIG     1      19.968  22.819  33.802  1.00  0.00     0.000 A 
HETATM    5  C   LIG     1      21.223  23.422  33.669  1.00  0.00     0.001 A 
HETATM    6  C   LIG     1      22.074  23.520  34.774  1.00  0.00     0.018 A 
ENDROOT
BRANCH   1   7
HETATM    7  S   LIG     1      22.759  23.142  37.437  1.00  0.00    -0.134 SA
HETATM    8  C   LIG     1      22.863  21.341  37.675  1.00  0.00     0.095 C 
ENDBRANCH   1   7
TORSDOF 1
ENDMDL
MODEL 20
REMARK VINA RESULT:      -3.1     15.420     16.318
REMARK  1 active torsions:
REMARK  status: ('A' for Active; 'I' for Inactive)
REMARK    1  A    between atoms: S_2  and  C_3 
ROOT
HETATM    1  C   LIG     1      27.694  30.924  35.554  1.00  0.00    -0.000 A 
HETATM    2  C   LIG     1      28.790  31.379  36.297  1.00  0.00     0.018 A 
HETATM    3  C   LIG     1      28.589  32.002  37.533  1.00  0.00     0.001 A 
HETATM    4  C   LIG     1      27.291  32.174  38.026  1.00  0.00     0.000 A 
HETATM    5  C   LIG     1      26.195  31.724  37.284  1.00  0.00     0.001 A 
HETATM    6  C   LIG     1      26.395  31.101  36.048  1.00  0.00     0.018 A 
ENDROOT
BRANCH   1   7
HETATM    7  S   LIG     1      27.951  30.130  33.966  1.00  0.00    -0.134 SA
HETATM    8  C   LIG     1      26.657  28.881  34.245  1.00  0.00     0.095 C 
ENDBRANCH   1   7
TORSDOF 1
ENDMDL
