MODEL 1
REMARK VINA RESULT:      -6.1      0.000      0.000
REMARK  2 active torsions:
REMARK  status: ('A' for Active; 'I' for Inactive)
REMARK    1  A    between atoms: N_1  and  C_2 
REMARK    2  A    between atoms: C_2  and  C_3 
ROOT
HETATM    1  C   LIG     1      17.169  36.720  24.240  1.00  0.00    -0.031 A 
HETATM    2  C   LIG     1      17.112  35.336  24.487  1.00  0.00     0.009 A 
HETATM    3  C   LIG     1      17.692  34.802  25.641  1.00  0.00     0.001 A 
HETATM    4  C   LIG     1      18.334  35.641  26.557  1.00  0.00     0.000 A 
HETATM    5  C   LIG     1      18.398  37.017  26.317  1.00  0.00     0.001 A 
HETATM    6  C   LIG     1      17.820  37.555  25.163  1.00  0.00     0.009 A 
ENDROOT
BRANCH   1   7
HETATM    7  C   LIG     1      16.549  37.301  22.993  1.00  0.00     0.305 C 
BRANCH   7   8
HETATM    8  N   LIG     1      15.388  38.129  23.313  1.00  0.00     0.082 N 
HETATM    9  H   LIG     1      14.663  38.009  22.568  1.00  0.00     0.313 HD
HETATM   10  H   LIG     1      15.681  39.134  23.314  1.00  0.00     0.313 HD
ENDBRANCH   7   8
ENDBRANCH   1   7
TORSDOF 2
ENDMDL
MODEL 2
REMARK VINA RESULT:      -6.1      0.039      1.713
REMARK  2 active torsions:
REMARK  status: ('A' for Active; 'I' for Inactive)
REMARK    1  A    between atoms: N_1  and  C_2 
REMARK    2  A    between atoms: C_2  and  C_3 
ROOT
HETATM    1  C   LIG     1      17.152  36.691  24.223  1.00  0.00    -0.031 A 
HETATM    2  C   LIG     1      17.773  37.549  25.148  1.00  0.00     0.009 A 
HETATM    3  C   LIG     1      18.358  37.031  26.307  1.00  0.00     0.001 A 
HETATM    4  C   LIG     1      18.326  35.656  26.555  1.00  0.00     0.000 A 
HETATM    5  C   LIG     1      17.706  34.796  25.643  1.00  0.00     0.001 A 
HETATM    6  C   LIG     1      17.119  35.311  24.483  1.00  0.00     0.009 A 
ENDROOT
BRANCH   1   7
HETATM    7  C   LIG     1      16.514  37.246  22.973  1.00  0.00     0.305 C 
BRANCH   7   8
HETATM    8  N   LIG     1      15.387  38.120  23.294  1.00  0.00     0.082 N 
HETATM    9  H   LIG     1      14.508  37.555  23.312  1.00  0.00     0.313 HD
HETATM   10  H   LIG     1      15.291  38.837  22.537  1.00  0.00     0.313 HD
ENDBRANCH   7   8
ENDBRANCH   1   7
TORSDOF 2
ENDMDL
MODEL 3
REMARK VINA RESULT:      -5.6      2.783      4.452
REMARK  2 active torsions:
REMARK  status: ('A' for Active; 'I' for Inactive)
REMARK    1  A    between atoms: N_1  and  C_2 
REMARK    2  A    between atoms: C_2  and  C_3 
ROOT
HETATM    1  C   LIG     1      17.473  37.853  22.067  1.00  0.00    -0.031 A 
HETATM    2  C   LIG     1      17.557  36.746  21.204  1.00  0.00     0.009 A 
HETATM    3  C   LIG     1      18.349  36.808  20.054  1.00  0.00     0.001 A 
HETATM    4  C   LIG     1      19.061  37.973  19.754  1.00  0.00     0.000 A 
HETATM    5  C   LIG     1      18.978  39.080  20.603  1.00  0.00     0.001 A 
HETATM    6  C   LIG     1      18.186  39.022  21.754  1.00  0.00     0.009 A 
ENDROOT
BRANCH   1   7
HETATM    7  C   LIG     1      16.615  37.793  23.307  1.00  0.00     0.305 C 
BRANCH   7   8
HETATM    8  N   LIG     1      15.231  38.163  23.014  1.00  0.00     0.082 N 
HETATM    9  H   LIG     1      15.191  39.178  22.768  1.00  0.00     0.313 HD
HETATM   10  H   LIG     1      14.655  38.020  23.876  1.00  0.00     0.313 HD
ENDBRANCH   7   8
ENDBRANCH   1   7
TORSDOF 2
ENDMDL
MODEL 4
REMARK VINA RESULT:      -5.5      4.122      5.326
REMARK  2 active torsions:
REMARK  status: ('A' for Active; 'I' for Inactive)
REMARK    1  A    between atoms: N_1  and  C_2 
REMARK    2  A    between atoms: C_2  and  C_3 
ROOT
HETATM    1  C   LIG     1      17.826  36.937  20.817  1.00  0.00    -0.031 A 
HETATM    2  C   LIG     1      17.735  38.102  21.600  1.00  0.00     0.009 A 
HETATM    3  C   LIG     1      18.558  39.199  21.329  1.00  0.00     0.001 A 
HETATM    4  C   LIG     1      19.478  39.143  20.278  1.00  0.00     0.000 A 
HETATM    5  C   LIG     1      19.577  37.987  19.498  1.00  0.00     0.001 A 
HETATM    6  C   LIG     1      18.757  36.888  19.767  1.00  0.00     0.009 A 
ENDROOT
BRANCH   1   7
HETATM    7  C   LIG     1      16.943  35.748  21.109  1.00  0.00     0.305 C 
BRANCH   7   8
HETATM    8  N   LIG     1      16.370  35.198  19.883  1.00  0.00     0.082 N 
HETATM    9  H   LIG     1      15.669  34.463  20.130  1.00  0.00     0.313 HD
HETATM   10  H   LIG     1      17.132  34.739  19.331  1.00  0.00     0.313 HD
ENDBRANCH   7   8
ENDBRANCH   1   7
TORSDOF 2
ENDMDL
MODEL 5
REMARK VINA RESULT:      -5.5      4.352      5.555
REMARK  2 active torsions:
REMARK  status: ('A' for Active; 'I' for Inactive)
REMARK    1  A    between atoms: N_1  and  C_2 
REMARK    2  A    between atoms: C_2  and  C_3 
ROOT
HETATM    1  C   LIG     1      19.244  38.276  20.146  1.00  0.00    -0.031 A 
HETATM    2  C   LIG     1      18.639  38.962  21.214  1.00  0.00     0.009 A 
HETATM    3  C   LIG     1      17.608  38.361  21.943  1.00  0.00     0.001 A 
HETATM    4  C   LIG     1      17.172  37.075  21.614  1.00  0.00     0.000 A 
HETATM    5  C   LIG     1      17.765  36.388  20.550  1.00  0.00     0.001 A 
HETATM    6  C   LIG     1      18.796  36.986  19.818  1.00  0.00     0.009 A 
ENDROOT
BRANCH   1   7
HETATM    7  C   LIG     1      20.353  38.922  19.352  1.00  0.00     0.305 C 
BRANCH   7   8
HETATM    8  N   LIG     1      19.845  39.519  18.118  1.00  0.00     0.082 N 
HETATM    9  H   LIG     1      20.650  39.841  17.535  1.00  0.00     0.313 HD
HETATM   10  H   LIG     1      19.270  40.359  18.362  1.00  0.00     0.313 HD
ENDBRANCH   7   8
ENDBRANCH   1   7
TORSDOF 2
ENDMDL
MODEL 6
REMARK VINA RESULT:      -5.3      1.725      3.656
REMARK  2 active torsions:
REMARK  status: ('A' for Active; 'I' for Inactive)
REMARK    1  A    between atoms: N_1  and  C_2 
REMARK    2  A    between atoms: C_2  and  C_3 
ROOT
HETATM    1  C   LIG     1      17.266  36.879  23.997  1.00  0.00    -0.031 A 
HETATM    2  C   LIG     1      17.407  37.872  23.010  1.00  0.00     0.009 A 
HETATM    3  C   LIG     1      17.335  37.534  21.656  1.00  0.00     0.001 A 
HETATM    4  C   LIG     1      17.124  36.206  21.274  1.00  0.00     0.000 A 
HETATM    5  C   LIG     1      16.987  35.213  22.248  1.00  0.00     0.001 A 
HETATM    6  C   LIG     1      17.060  35.547  23.604  1.00  0.00     0.009 A 
ENDROOT
BRANCH   1   7
HETATM    7  C   LIG     1      17.348  37.238  25.461  1.00  0.00     0.305 C 
BRANCH   7   8
HETATM    8  N   LIG     1      17.289  38.685  25.657  1.00  0.00     0.082 N 
HETATM    9  H   LIG     1      16.360  39.039  25.330  1.00  0.00     0.313 HD
HETATM   10  H   LIG     1      18.028  39.136  25.069  1.00  0.00     0.313 HD
ENDBRANCH   7   8
ENDBRANCH   1   7
TORSDOF 2
ENDMDL
MODEL 7
REMARK VINA RESULT:      -5.1      9.841     11.217
REMARK  2 active torsions:
REMARK  status: ('A' for Active; 'I' for Inactive)
REMARK    1  A    between atoms: N_1  and  C_2 
REMARK    2  A    between atoms: C_2  and  C_3 
ROOT
HETATM    1  C   LIG     1      14.566  31.730  16.226  1.00  0.00    -0.031 A 
HETATM    2  C   LIG     1      13.568  30.762  16.018  1.00  0.00     0.009 A 
HETATM    3  C   LIG     1      13.602  29.947  14.883  1.00  0.00     0.001 A 
HETATM    4  C   LIG     1      14.629  30.091  13.946  1.00  0.00     0.000 A 
HETATM    5  C   LIG     1      15.623  31.055  14.143  1.00  0.00     0.001 A 
HETATM    6  C   LIG     1      15.591  31.873  15.277  1.00  0.00     0.009 A 
ENDROOT
BRANCH   1   7
HETATM    7  C   LIG     1      14.530  32.616  17.447  1.00  0.00     0.305 C 
BRANCH   7   8
HETATM    8  N   LIG     1      14.095  31.875  18.629  1.00  0.00     0.082 N 
HETATM    9  H   LIG     1      14.907  31.346  19.022  1.00  0.00     0.313 HD
HETATM   10  H   LIG     1      13.369  31.178  18.341  1.00  0.00     0.313 HD
ENDBRANCH   7   8
ENDBRANCH   1   7
TORSDOF 2
ENDMDL
MODEL 8
REMARK VINA RESULT:      -5.1      9.856     11.304
REMARK  2 active torsions:
REMARK  status: ('A' for Active; 'I' for Inactive)
REMARK    1  A    between atoms: N_1  and  C_2 
REMARK    2  A    between atoms: C_2  and  C_3 
ROOT
HETATM    1  C   LIG     1      14.531  31.717  16.226  1.00  0.00    -0.031 A 
HETATM    2  C   LIG     1      15.565  31.831  15.280  1.00  0.00     0.009 A 
HETATM    3  C   LIG     1      15.586  31.001  14.156  1.00  0.00     0.001 A 
HETATM    4  C   LIG     1      14.579  30.051  13.966  1.00  0.00     0.000 A 
HETATM    5  C   LIG     1      13.549  29.928  14.904  1.00  0.00     0.001 A 
HETATM    6  C   LIG     1      13.525  30.756  16.030  1.00  0.00     0.009 A 
ENDROOT
BRANCH   1   7
HETATM    7  C   LIG     1      14.506  32.608  17.444  1.00  0.00     0.305 C 
BRANCH   7   8
HETATM    8  N   LIG     1      14.095  31.867  18.635  1.00  0.00     0.082 N 
HETATM    9  H   LIG     1      14.936  31.665  19.223  1.00  0.00     0.313 HD
HETATM   10  H   LIG     1      13.686  30.951  18.338  1.00  0.00     0.313 HD
ENDBRANCH   7   8
ENDBRANCH   1   7
TORSDOF 2
ENDMDL
MODEL 9
REMARK VINA RESULT:      -5.1      3.686      4.734
REMARK  2 active torsions:
REMARK  status: ('A' for Active; 'I' for Inactive)
REMARK    1  A    between atoms: N_1  and  C_2 
REMARK    2  A    between atoms: C_2  and  C_3 
ROOT
HETATM    1  C   LIG     1      17.192  36.318  21.013  1.00  0.00    -0.031 A 
HETATM    2  C   LIG     1      16.938  37.151  22.117  1.00  0.00     0.009 A 
HETATM    3  C   LIG     1      17.631  38.356  22.264  1.00  0.00     0.001 A 
HETATM    4  C   LIG     1      18.582  38.739  21.314  1.00  0.00     0.000 A 
HETATM    5  C   LIG     1      18.844  37.915  20.216  1.00  0.00     0.001 A 
HETATM    6  C   LIG     1      18.153  36.708  20.066  1.00  0.00     0.009 A 
ENDROOT
BRANCH   1   7
HETATM    7  C   LIG     1      16.450  35.013  20.852  1.00  0.00     0.305 C 
BRANCH   7   8
HETATM    8  N   LIG     1      15.690  34.985  19.604  1.00  0.00     0.082 N 
HETATM    9  H   LIG     1      16.325  34.711  18.820  1.00  0.00     0.313 HD
HETATM   10  H   LIG     1      15.333  35.948  19.405  1.00  0.00     0.313 HD
ENDBRANCH   7   8
ENDBRANCH   1   7
TORSDOF 2
ENDMDL
MODEL 10
REMARK VINA RESULT:      -5.0      1.772      2.769
REMARK  2 active torsions:
REMARK  status: ('A' for Active; 'I' for Inactive)
REMARK    1  A    between atoms: N_1  and  C_2 
REMARK    2  A    between atoms: C_2  and  C_3 
ROOT
HETATM    1  C   LIG     1      17.275  37.671  23.088  1.00  0.00    -0.031 A 
HETATM    2  C   LIG     1      17.481  37.511  24.469  1.00  0.00     0.009 A 
HETATM    3  C   LIG     1      17.428  36.239  25.047  1.00  0.00     0.001 A 
HETATM    4  C   LIG     1      17.169  35.118  24.253  1.00  0.00     0.000 A 
HETATM    5  C   LIG     1      16.958  35.269  22.879  1.00  0.00     0.001 A 
HETATM    6  C   LIG     1      17.009  36.540  22.298  1.00  0.00     0.009 A 
ENDROOT
BRANCH   1   7
HETATM    7  C   LIG     1      17.326  39.043  22.460  1.00  0.00     0.305 C 
BRANCH   7   8
HETATM    8  N   LIG     1      18.683  39.385  22.040  1.00  0.00     0.082 N 
HETATM    9  H   LIG     1      18.828  40.415  22.151  1.00  0.00     0.313 HD
HETATM   10  H   LIG     1      18.790  39.155  21.024  1.00  0.00     0.313 HD
ENDBRANCH   7   8
ENDBRANCH   1   7
TORSDOF 2
ENDMDL
MODEL 11
REMARK VINA RESULT:      -5.0     10.370     11.631
REMARK  2 active torsions:
REMARK  status: ('A' for Active; 'I' for Inactive)
REMARK    1  A    between atoms: N_1  and  C_2 
REMARK    2  A    between atoms: C_2  and  C_3 
ROOT
HETATM    1  C   LIG     1      14.262  30.490  15.073  1.00  0.00    -0.031 A 
HETATM    2  C   LIG     1      15.365  31.356  14.978  1.00  0.00     0.009 A 
HETATM    3  C   LIG     1      15.487  32.439  15.853  1.00  0.00     0.001 A 
HETATM    4  C   LIG     1      14.511  32.669  16.827  1.00  0.00     0.000 A 
HETATM    5  C   LIG     1      13.408  31.815  16.925  1.00  0.00     0.001 A 
HETATM    6  C   LIG     1      13.282  30.730  16.051  1.00  0.00     0.009 A 
ENDROOT
BRANCH   1   7
HETATM    7  C   LIG     1      14.122  29.321  14.127  1.00  0.00     0.305 C 
BRANCH   7   8
HETATM    8  N   LIG     1      12.738  28.855  14.059  1.00  0.00     0.082 N 
HETATM    9  H   LIG     1      12.243  29.359  13.288  1.00  0.00     0.313 HD
HETATM   10  H   LIG     1      12.258  29.095  14.958  1.00  0.00     0.313 HD
ENDBRANCH   7   8
ENDBRANCH   1   7
TORSDOF 2
ENDMDL
MODEL 12
REMARK VINA RESULT:      -5.0     10.396     11.609
REMARK  2 active torsions:
REMARK  status: ('A' for Active; 'I' for Inactive)
REMARK    1  A    between atoms: N_1  and  C_2 
REMARK    2  A    between atoms: C_2  and  C_3 
ROOT
HETATM    1  C   LIG     1      14.252  30.468  15.054  1.00  0.00    -0.031 A 
HETATM    2  C   LIG     1      13.294  30.710  16.054  1.00  0.00     0.009 A 
HETATM    3  C   LIG     1      13.440  31.797  16.921  1.00  0.00     0.001 A 
HETATM    4  C   LIG     1      14.542  32.648  16.800  1.00  0.00     0.000 A 
HETATM    5  C   LIG     1      15.502  32.411  15.812  1.00  0.00     0.001 A 
HETATM    6  C   LIG     1      15.360  31.324  14.943  1.00  0.00     0.009 A 
ENDROOT
BRANCH   1   7
HETATM    7  C   LIG     1      14.102  29.293  14.119  1.00  0.00     0.305 C 
BRANCH   7   8
HETATM    8  N   LIG     1      12.712  28.844  14.048  1.00  0.00     0.082 N 
HETATM    9  H   LIG     1      12.596  28.212  13.223  1.00  0.00     0.313 HD
HETATM   10  H   LIG     1      12.096  29.678  13.901  1.00  0.00     0.313 HD
ENDBRANCH   7   8
ENDBRANCH   1   7
TORSDOF 2
ENDMDL
MODEL 13
REMARK VINA RESULT:      -4.8      1.826      2.986
REMARK  2 active torsions:
REMARK  status: ('A' for Active; 'I' for Inactive)
REMARK    1  A    between atoms: N_1  and  C_2 
REMARK    2  A    between atoms: C_2  and  C_3 
ROOT
HETATM    1  C   LIG     1      16.612  36.416  22.439  1.00  0.00    -0.031 A 
HETATM    2  C   LIG     1      16.855  37.785  22.226  1.00  0.00     0.009 A 
HETATM    3  C   LIG     1      17.391  38.572  23.249  1.00  0.00     0.001 A 
HETATM    4  C   LIG     1      17.687  38.003  24.491  1.00  0.00     0.000 A 
HETATM    5  C   LIG     1      17.444  36.645  24.712  1.00  0.00     0.001 A 
HETATM    6  C   LIG     1      16.907  35.854  23.692  1.00  0.00     0.009 A 
ENDROOT
BRANCH   1   7
HETATM    7  C   LIG     1      16.028  35.562  21.340  1.00  0.00     0.305 C 
BRANCH   7   8
HETATM    8  N   LIG     1      14.576  35.715  21.263  1.00  0.00     0.082 N 
HETATM    9  H   LIG     1      14.348  36.556  20.686  1.00  0.00     0.313 HD
HETATM   10  H   LIG     1      14.203  35.878  22.228  1.00  0.00     0.313 HD
ENDBRANCH   7   8
ENDBRANCH   1   7
TORSDOF 2
ENDMDL
MODEL 14
REMARK VINA RESULT:      -4.8      9.849     11.036
REMARK  2 active torsions:
REMARK  status: ('A' for Active; 'I' for Inactive)
REMARK    1  A    between atoms: N_1  and  C_2 
REMARK    2  A    between atoms: C_2  and  C_3 
ROOT
HETATM    1  C   LIG     1      15.546  31.877  15.406  1.00  0.00    -0.031 A 
HETATM    2  C   LIG     1      14.811  32.321  16.519  1.00  0.00     0.009 A 
HETATM    3  C   LIG     1      13.592  31.719  16.843  1.00  0.00     0.001 A 
HETATM    4  C   LIG     1      13.095  30.672  16.060  1.00  0.00     0.000 A 
HETATM    5  C   LIG     1      13.818  30.229  14.949  1.00  0.00     0.001 A 
HETATM    6  C   LIG     1      15.037  30.830  14.621  1.00  0.00     0.009 A 
ENDROOT
BRANCH   1   7
HETATM    7  C   LIG     1      16.860  32.528  15.048  1.00  0.00     0.305 C 
BRANCH   7   8
HETATM    8  N   LIG     1      16.956  33.875  15.608  1.00  0.00     0.082 N 
HETATM    9  H   LIG     1      16.336  34.518  15.065  1.00  0.00     0.313 HD
HETATM   10  H   LIG     1      17.941  34.215  15.501  1.00  0.00     0.313 HD
ENDBRANCH   7   8
ENDBRANCH   1   7
TORSDOF 2
ENDMDL
MODEL 15
REMARK VINA RESULT:      -4.8      9.775     10.831
REMARK  2 active torsions:
REMARK  status: ('A' for Active; 'I' for Inactive)
REMARK    1  A    between atoms: N_1  and  C_2 
REMARK    2  A    between atoms: C_2  and  C_3 
ROOT
HETATM    1  C   LIG     1      15.685  32.044  15.340  1.00  0.00    -0.031 A 
HETATM    2  C   LIG     1      15.166  30.948  14.629  1.00  0.00     0.009 A 
HETATM    3  C   LIG     1      13.980  30.336  15.046  1.00  0.00     0.001 A 
HETATM    4  C   LIG     1      13.304  30.811  16.174  1.00  0.00     0.000 A 
HETATM    5  C   LIG     1      13.817  31.897  16.889  1.00  0.00     0.001 A 
HETATM    6  C   LIG     1      15.003  32.511  16.476  1.00  0.00     0.009 A 
ENDROOT
BRANCH   1   7
HETATM    7  C   LIG     1      16.969  32.705  14.897  1.00  0.00     0.305 C 
BRANCH   7   8
HETATM    8  N   LIG     1      17.126  34.023  15.509  1.00  0.00     0.082 N 
HETATM    9  H   LIG     1      16.218  34.314  15.938  1.00  0.00     0.313 HD
HETATM   10  H   LIG     1      17.362  34.715  14.760  1.00  0.00     0.313 HD
ENDBRANCH   7   8
ENDBRANCH   1   7
TORSDOF 2
ENDMDL
MODEL 16
REMARK VINA RESULT:      -4.8     10.167     11.462
REMARK  2 active torsions:
REMARK  status: ('A' for Active; 'I' for Inactive)
REMARK    1  A    between atoms: N_1  and  C_2 
REMARK    2  A    between atoms: C_2  and  C_3 
ROOT
HETATM    1  C   LIG     1      14.249  31.286  15.908  1.00  0.00    -0.031 A 
HETATM    2  C   LIG     1      15.241  32.269  15.745  1.00  0.00     0.009 A 
HETATM    3  C   LIG     1      16.069  32.253  14.619  1.00  0.00     0.001 A 
HETATM    4  C   LIG     1      15.917  31.257  13.650  1.00  0.00     0.000 A 
HETATM    5  C   LIG     1      14.937  30.273  13.808  1.00  0.00     0.001 A 
HETATM    6  C   LIG     1      14.107  30.285  14.933  1.00  0.00     0.009 A 
ENDROOT
BRANCH   1   7
HETATM    7  C   LIG     1      13.355  31.295  17.125  1.00  0.00     0.305 C 
BRANCH   7   8
HETATM    8  N   LIG     1      14.024  31.909  18.271  1.00  0.00     0.082 N 
HETATM    9  H   LIG     1      15.041  31.666  18.247  1.00  0.00     0.313 HD
HETATM   10  H   LIG     1      13.620  31.509  19.150  1.00  0.00     0.313 HD
ENDBRANCH   7   8
ENDBRANCH   1   7
TORSDOF 2
ENDMDL
MODEL 17
REMARK VINA RESULT:      -4.6      2.904      3.700
REMARK  2 active torsions:
REMARK  status: ('A' for Active; 'I' for Inactive)
REMARK    1  A    between atoms: N_1  and  C_2 
REMARK    2  A    between atoms: C_2  and  C_3 
ROOT
HETATM    1  C   LIG     1      17.376  36.913  21.429  1.00  0.00    -0.031 A 
HETATM    2  C   LIG     1      16.822  36.382  22.607  1.00  0.00     0.009 A 
HETATM    3  C   LIG     1      16.795  37.143  23.778  1.00  0.00     0.001 A 
HETATM    4  C   LIG     1      17.322  38.438  23.786  1.00  0.00     0.000 A 
HETATM    5  C   LIG     1      17.879  38.972  22.620  1.00  0.00     0.001 A 
HETATM    6  C   LIG     1      17.909  38.212  21.446  1.00  0.00     0.009 A 
ENDROOT
BRANCH   1   7
HETATM    7  C   LIG     1      17.413  36.092  20.162  1.00  0.00     0.305 C 
BRANCH   7   8
HETATM    8  N   LIG     1      18.450  36.569  19.250  1.00  0.00     0.082 N 
HETATM    9  H   LIG     1      18.893  37.427  19.651  1.00  0.00     0.313 HD
HETATM   10  H   LIG     1      18.003  36.835  18.341  1.00  0.00     0.313 HD
ENDBRANCH   7   8
ENDBRANCH   1   7
TORSDOF 2
ENDMDL
MODEL 18
REMARK VINA RESULT:      -4.6      3.653      4.386
REMARK  2 active torsions:
REMARK  status: ('A' for Active; 'I' for Inactive)
REMARK    1  A    between atoms: N_1  and  C_2 
REMARK    2  A    between atoms: C_2  and  C_3 
ROOT
HETATM    1  C   LIG     1      17.540  37.949  21.818  1.00  0.00    -0.031 A 
HETATM    2  C   LIG     1      18.080  37.194  20.761  1.00  0.00     0.009 A 
HETATM    3  C   LIG     1      17.447  36.023  20.336  1.00  0.00     0.001 A 
HETATM    4  C   LIG     1      16.272  35.594  20.961  1.00  0.00     0.000 A 
HETATM    5  C   LIG     1      15.730  36.336  22.015  1.00  0.00     0.001 A 
HETATM    6  C   LIG     1      16.362  37.508  22.443  1.00  0.00     0.009 A 
ENDROOT
BRANCH   1   7
HETATM    7  C   LIG     1      18.223  39.212  22.284  1.00  0.00     0.305 C 
BRANCH   7   8
HETATM    8  N   LIG     1      18.989  39.831  21.204  1.00  0.00     0.082 N 
HETATM    9  H   LIG     1      19.371  40.747  21.535  1.00  0.00     0.313 HD
HETATM   10  H   LIG     1      18.344  40.025  20.402  1.00  0.00     0.313 HD
ENDBRANCH   7   8
ENDBRANCH   1   7
TORSDOF 2
ENDMDL
MODEL 19
REMARK VINA RESULT:      -3.2     15.045     16.096
REMARK  2 active torsions:
REMARK  status: ('A' for Active; 'I' for Inactive)
REMARK    1  A    between atoms: N_1  and  C_2 
REMARK    2  A    between atoms: C_2  and  C_3 
ROOT
HETATM    1  C   LIG     1      26.646  28.979  35.541  1.00  0.00    -0.031 A 
HETATM    2  C   LIG     1      26.186  30.188  34.989  1.00  0.00     0.009 A 
HETATM    3  C   LIG     1      25.895  31.275  35.818  1.00  0.00     0.001 A 
HETATM    4  C   LIG     1      26.060  31.167  37.201  1.00  0.00     0.000 A 
HETATM    5  C   LIG     1      26.513  29.967  37.759  1.00  0.00     0.001 A 
HETATM    6  C   LIG     1      26.803  28.877  36.933  1.00  0.00     0.009 A 
ENDROOT
BRANCH   1   7
HETATM    7  C   LIG     1      26.956  27.800  34.651  1.00  0.00     0.305 C 
BRANCH   7   8
HETATM    8  N   LIG     1      26.136  27.818  33.441  1.00  0.00     0.082 N 
HETATM    9  H   LIG     1      25.886  26.837  33.180  1.00  0.00     0.313 HD
HETATM   10  H   LIG     1      26.700  28.223  32.657  1.00  0.00     0.313 HD
ENDBRANCH   7   8
ENDBRANCH   1   7
TORSDOF 2
ENDMDL
