MODEL 1
REMARK VINA RESULT:      -6.4      0.000      0.000
REMARK  0 active torsions:
REMARK  status: ('A' for Active; 'I' for Inactive)
ROOT
HETATM    1  N   LIG     1      16.379  38.873  22.853  1.00  0.00    -0.191 NA
HETATM    2  C   LIG     1      16.773  38.089  23.607  1.00  0.00     0.099 C 
HETATM    3  C   LIG     1      17.263  37.113  24.544  1.00  0.00     0.044 A 
HETATM    4  C   LIG     1      17.051  35.747  24.313  1.00  0.00     0.022 A 
HETATM    5  C   LIG     1      17.529  34.800  25.224  1.00  0.00     0.002 A 
HETATM    6  C   LIG     1      18.219  35.214  26.368  1.00  0.00     0.000 A 
HETATM    7  C   LIG     1      18.432  36.576  26.601  1.00  0.00     0.002 A 
HETATM    8  C   LIG     1      17.955  37.526  25.691  1.00  0.00     0.022 A 
ENDROOT
TORSDOF 0
ENDMDL
MODEL 2
REMARK VINA RESULT:      -6.1      3.118      4.930
REMARK  0 active torsions:
REMARK  status: ('A' for Active; 'I' for Inactive)
ROOT
HETATM    1  N   LIG     1      16.141  37.984  24.093  1.00  0.00    -0.191 NA
HETATM    2  C   LIG     1      16.793  37.991  23.137  1.00  0.00     0.099 C 
HETATM    3  C   LIG     1      17.605  38.000  21.949  1.00  0.00     0.044 A 
HETATM    4  C   LIG     1      18.334  39.146  21.603  1.00  0.00     0.022 A 
HETATM    5  C   LIG     1      19.122  39.153  20.448  1.00  0.00     0.002 A 
HETATM    6  C   LIG     1      19.185  38.015  19.637  1.00  0.00     0.000 A 
HETATM    7  C   LIG     1      18.460  36.870  19.979  1.00  0.00     0.002 A 
HETATM    8  C   LIG     1      17.670  36.861  21.134  1.00  0.00     0.022 A 
ENDROOT
TORSDOF 0
ENDMDL
MODEL 3
REMARK VINA RESULT:      -6.0      1.559      2.147
REMARK  0 active torsions:
REMARK  status: ('A' for Active; 'I' for Inactive)
ROOT
HETATM    1  N   LIG     1      16.324  34.959  21.761  1.00  0.00    -0.191 NA
HETATM    2  C   LIG     1      16.716  35.310  22.791  1.00  0.00     0.099 C 
HETATM    3  C   LIG     1      17.204  35.747  24.073  1.00  0.00     0.044 A 
HETATM    4  C   LIG     1      17.534  34.806  25.058  1.00  0.00     0.022 A 
HETATM    5  C   LIG     1      18.009  35.232  26.302  1.00  0.00     0.002 A 
HETATM    6  C   LIG     1      18.155  36.598  26.566  1.00  0.00     0.000 A 
HETATM    7  C   LIG     1      17.828  37.539  25.585  1.00  0.00     0.002 A 
HETATM    8  C   LIG     1      17.352  37.116  24.339  1.00  0.00     0.022 A 
ENDROOT
TORSDOF 0
ENDMDL
MODEL 4
REMARK VINA RESULT:      -5.9      3.863      4.731
REMARK  0 active torsions:
REMARK  status: ('A' for Active; 'I' for Inactive)
ROOT
HETATM    1  N   LIG     1      20.498  39.359  19.160  1.00  0.00    -0.191 NA
HETATM    2  C   LIG     1      19.686  38.794  19.760  1.00  0.00     0.099 C 
HETATM    3  C   LIG     1      18.676  38.092  20.508  1.00  0.00     0.044 A 
HETATM    4  C   LIG     1      18.346  36.771  20.175  1.00  0.00     0.022 A 
HETATM    5  C   LIG     1      17.365  36.090  20.902  1.00  0.00     0.002 A 
HETATM    6  C   LIG     1      16.713  36.725  21.964  1.00  0.00     0.000 A 
HETATM    7  C   LIG     1      17.040  38.043  22.298  1.00  0.00     0.002 A 
HETATM    8  C   LIG     1      18.021  38.727  21.572  1.00  0.00     0.022 A 
ENDROOT
TORSDOF 0
ENDMDL
MODEL 5
REMARK VINA RESULT:      -5.8      4.031      5.427
REMARK  0 active torsions:
REMARK  status: ('A' for Active; 'I' for Inactive)
ROOT
HETATM    1  N   LIG     1      16.443  34.854  21.565  1.00  0.00    -0.191 NA
HETATM    2  C   LIG     1      17.075  35.779  21.275  1.00  0.00     0.099 C 
HETATM    3  C   LIG     1      17.861  36.930  20.915  1.00  0.00     0.044 A 
HETATM    4  C   LIG     1      17.743  38.119  21.647  1.00  0.00     0.022 A 
HETATM    5  C   LIG     1      18.508  39.236  21.296  1.00  0.00     0.002 A 
HETATM    6  C   LIG     1      19.391  39.167  20.214  1.00  0.00     0.000 A 
HETATM    7  C   LIG     1      19.511  37.983  19.482  1.00  0.00     0.002 A 
HETATM    8  C   LIG     1      18.747  36.864  19.830  1.00  0.00     0.022 A 
ENDROOT
TORSDOF 0
ENDMDL
MODEL 6
REMARK VINA RESULT:      -5.5      2.202      3.690
REMARK  0 active torsions:
REMARK  status: ('A' for Active; 'I' for Inactive)
ROOT
HETATM    1  N   LIG     1      17.009  38.475  25.634  1.00  0.00    -0.191 NA
HETATM    2  C   LIG     1      17.086  37.915  24.624  1.00  0.00     0.099 C 
HETATM    3  C   LIG     1      17.182  37.220  23.367  1.00  0.00     0.044 A 
HETATM    4  C   LIG     1      17.527  37.917  22.202  1.00  0.00     0.022 A 
HETATM    5  C   LIG     1      17.621  37.240  20.982  1.00  0.00     0.002 A 
HETATM    6  C   LIG     1      17.371  35.866  20.923  1.00  0.00     0.000 A 
HETATM    7  C   LIG     1      17.026  35.167  22.084  1.00  0.00     0.002 A 
HETATM    8  C   LIG     1      16.932  35.842  23.306  1.00  0.00     0.022 A 
ENDROOT
TORSDOF 0
ENDMDL
MODEL 7
REMARK VINA RESULT:      -5.4     10.094     11.164
REMARK  0 active torsions:
REMARK  status: ('A' for Active; 'I' for Inactive)
ROOT
HETATM    1  N   LIG     1      17.806  32.770  15.036  1.00  0.00    -0.191 NA
HETATM    2  C   LIG     1      16.760  32.327  15.256  1.00  0.00     0.099 C 
HETATM    3  C   LIG     1      15.459  31.775  15.528  1.00  0.00     0.044 A 
HETATM    4  C   LIG     1      14.933  30.771  14.705  1.00  0.00     0.022 A 
HETATM    5  C   LIG     1      13.670  30.235  14.971  1.00  0.00     0.002 A 
HETATM    6  C   LIG     1      12.928  30.702  16.061  1.00  0.00     0.000 A 
HETATM    7  C   LIG     1      13.448  31.704  16.885  1.00  0.00     0.002 A 
HETATM    8  C   LIG     1      14.713  32.241  16.621  1.00  0.00     0.022 A 
ENDROOT
TORSDOF 0
ENDMDL
MODEL 8
REMARK VINA RESULT:      -5.3      9.789     10.954
REMARK  0 active torsions:
REMARK  status: ('A' for Active; 'I' for Inactive)
ROOT
HETATM    1  N   LIG     1      15.484  34.474  17.335  1.00  0.00    -0.191 NA
HETATM    2  C   LIG     1      15.136  33.505  16.807  1.00  0.00     0.099 C 
HETATM    3  C   LIG     1      14.702  32.299  16.150  1.00  0.00     0.044 A 
HETATM    4  C   LIG     1      13.504  31.682  16.533  1.00  0.00     0.022 A 
HETATM    5  C   LIG     1      13.083  30.512  15.894  1.00  0.00     0.002 A 
HETATM    6  C   LIG     1      13.858  29.955  14.871  1.00  0.00     0.000 A 
HETATM    7  C   LIG     1      15.055  30.568  14.487  1.00  0.00     0.002 A 
HETATM    8  C   LIG     1      15.478  31.740  15.125  1.00  0.00     0.022 A 
ENDROOT
TORSDOF 0
ENDMDL
MODEL 9
REMARK VINA RESULT:      -5.3      2.198      3.079
REMARK  0 active torsions:
REMARK  status: ('A' for Active; 'I' for Inactive)
ROOT
HETATM    1  N   LIG     1      16.683  35.511  19.898  1.00  0.00    -0.191 NA
HETATM    2  C   LIG     1      16.816  35.766  21.019  1.00  0.00     0.099 C 
HETATM    3  C   LIG     1      16.982  36.083  22.413  1.00  0.00     0.044 A 
HETATM    4  C   LIG     1      16.997  37.419  22.834  1.00  0.00     0.022 A 
HETATM    5  C   LIG     1      17.157  37.725  24.189  1.00  0.00     0.002 A 
HETATM    6  C   LIG     1      17.302  36.698  25.126  1.00  0.00     0.000 A 
HETATM    7  C   LIG     1      17.287  35.363  24.710  1.00  0.00     0.002 A 
HETATM    8  C   LIG     1      17.127  35.054  23.355  1.00  0.00     0.022 A 
ENDROOT
TORSDOF 0
ENDMDL
MODEL 10
REMARK VINA RESULT:      -5.2      2.402      4.041
REMARK  0 active torsions:
REMARK  status: ('A' for Active; 'I' for Inactive)
ROOT
HETATM    1  N   LIG     1      17.269  34.489  26.343  1.00  0.00    -0.191 NA
HETATM    2  C   LIG     1      17.236  35.106  25.364  1.00  0.00     0.099 C 
HETATM    3  C   LIG     1      17.195  35.873  24.147  1.00  0.00     0.044 A 
HETATM    4  C   LIG     1      17.305  37.269  24.191  1.00  0.00     0.022 A 
HETATM    5  C   LIG     1      17.266  38.013  23.008  1.00  0.00     0.002 A 
HETATM    6  C   LIG     1      17.116  37.365  21.778  1.00  0.00     0.000 A 
HETATM    7  C   LIG     1      17.006  35.972  21.730  1.00  0.00     0.002 A 
HETATM    8  C   LIG     1      17.045  35.225  22.913  1.00  0.00     0.022 A 
ENDROOT
TORSDOF 0
ENDMDL
MODEL 11
REMARK VINA RESULT:      -5.1      2.570      3.619
REMARK  0 active torsions:
REMARK  status: ('A' for Active; 'I' for Inactive)
ROOT
HETATM    1  N   LIG     1      16.366  35.094  19.769  1.00  0.00    -0.191 NA
HETATM    2  C   LIG     1      16.654  35.756  20.673  1.00  0.00     0.099 C 
HETATM    3  C   LIG     1      17.012  36.580  21.798  1.00  0.00     0.044 A 
HETATM    4  C   LIG     1      16.822  36.109  23.104  1.00  0.00     0.022 A 
HETATM    5  C   LIG     1      17.171  36.909  24.196  1.00  0.00     0.002 A 
HETATM    6  C   LIG     1      17.711  38.182  23.986  1.00  0.00     0.000 A 
HETATM    7  C   LIG     1      17.903  38.655  22.684  1.00  0.00     0.002 A 
HETATM    8  C   LIG     1      17.554  37.856  21.590  1.00  0.00     0.022 A 
ENDROOT
TORSDOF 0
ENDMDL
MODEL 12
REMARK VINA RESULT:      -5.0      3.843      4.620
REMARK  0 active torsions:
REMARK  status: ('A' for Active; 'I' for Inactive)
ROOT
HETATM    1  N   LIG     1      15.934  33.906  20.353  1.00  0.00    -0.191 NA
HETATM    2  C   LIG     1      16.237  34.943  20.767  1.00  0.00     0.099 C 
HETATM    3  C   LIG     1      16.615  36.233  21.281  1.00  0.00     0.044 A 
HETATM    4  C   LIG     1      17.748  36.886  20.779  1.00  0.00     0.022 A 
HETATM    5  C   LIG     1      18.113  38.140  21.279  1.00  0.00     0.002 A 
HETATM    6  C   LIG     1      17.347  38.744  22.281  1.00  0.00     0.000 A 
HETATM    7  C   LIG     1      16.216  38.095  22.784  1.00  0.00     0.002 A 
HETATM    8  C   LIG     1      15.848  36.841  22.286  1.00  0.00     0.022 A 
ENDROOT
TORSDOF 0
ENDMDL
MODEL 13
REMARK VINA RESULT:      -4.9     11.835     12.972
REMARK  0 active torsions:
REMARK  status: ('A' for Active; 'I' for Inactive)
ROOT
HETATM    1  N   LIG     1      12.540  27.513  13.704  1.00  0.00    -0.191 NA
HETATM    2  C   LIG     1      13.109  28.447  14.084  1.00  0.00     0.099 C 
HETATM    3  C   LIG     1      13.817  29.607  14.557  1.00  0.00     0.044 A 
HETATM    4  C   LIG     1      13.347  30.311  15.674  1.00  0.00     0.022 A 
HETATM    5  C   LIG     1      14.036  31.438  16.133  1.00  0.00     0.002 A 
HETATM    6  C   LIG     1      15.196  31.864  15.477  1.00  0.00     0.000 A 
HETATM    7  C   LIG     1      15.668  31.164  14.363  1.00  0.00     0.002 A 
HETATM    8  C   LIG     1      14.980  30.036  13.902  1.00  0.00     0.022 A 
ENDROOT
TORSDOF 0
ENDMDL
MODEL 14
REMARK VINA RESULT:      -4.8     10.609     11.697
REMARK  0 active torsions:
REMARK  status: ('A' for Active; 'I' for Inactive)
ROOT
HETATM    1  N   LIG     1      15.283  28.774  13.430  1.00  0.00    -0.191 NA
HETATM    2  C   LIG     1      15.040  29.625  14.175  1.00  0.00     0.099 C 
HETATM    3  C   LIG     1      14.738  30.683  15.103  1.00  0.00     0.044 A 
HETATM    4  C   LIG     1      13.573  30.627  15.879  1.00  0.00     0.022 A 
HETATM    5  C   LIG     1      13.281  31.655  16.780  1.00  0.00     0.002 A 
HETATM    6  C   LIG     1      14.152  32.741  16.909  1.00  0.00     0.000 A 
HETATM    7  C   LIG     1      15.316  32.800  16.137  1.00  0.00     0.002 A 
HETATM    8  C   LIG     1      15.611  31.773  15.234  1.00  0.00     0.022 A 
ENDROOT
TORSDOF 0
ENDMDL
MODEL 15
REMARK VINA RESULT:      -4.7     10.470     11.619
REMARK  0 active torsions:
REMARK  status: ('A' for Active; 'I' for Inactive)
ROOT
HETATM    1  N   LIG     1      13.798  31.445  18.254  1.00  0.00    -0.191 NA
HETATM    2  C   LIG     1      14.237  31.421  17.184  1.00  0.00     0.099 C 
HETATM    3  C   LIG     1      14.782  31.390  15.852  1.00  0.00     0.044 A 
HETATM    4  C   LIG     1      14.424  30.363  14.969  1.00  0.00     0.022 A 
HETATM    5  C   LIG     1      14.954  30.335  13.675  1.00  0.00     0.002 A 
HETATM    6  C   LIG     1      15.842  31.333  13.261  1.00  0.00     0.000 A 
HETATM    7  C   LIG     1      16.200  32.359  14.139  1.00  0.00     0.002 A 
HETATM    8  C   LIG     1      15.672  32.390  15.434  1.00  0.00     0.022 A 
ENDROOT
TORSDOF 0
ENDMDL
MODEL 16
REMARK VINA RESULT:      -4.6      3.870      4.999
REMARK  0 active torsions:
REMARK  status: ('A' for Active; 'I' for Inactive)
ROOT
HETATM    1  N   LIG     1      15.424  32.566  19.764  1.00  0.00    -0.191 NA
HETATM    2  C   LIG     1      15.600  33.532  20.377  1.00  0.00     0.099 C 
HETATM    3  C   LIG     1      15.818  34.732  21.141  1.00  0.00     0.044 A 
HETATM    4  C   LIG     1      14.793  35.680  21.270  1.00  0.00     0.022 A 
HETATM    5  C   LIG     1      15.006  36.845  22.012  1.00  0.00     0.002 A 
HETATM    6  C   LIG     1      16.242  37.067  22.628  1.00  0.00     0.000 A 
HETATM    7  C   LIG     1      17.266  36.124  22.502  1.00  0.00     0.002 A 
HETATM    8  C   LIG     1      17.056  34.957  21.759  1.00  0.00     0.022 A 
ENDROOT
TORSDOF 0
ENDMDL
MODEL 17
REMARK VINA RESULT:      -4.4     11.988     13.082
REMARK  0 active torsions:
REMARK  status: ('A' for Active; 'I' for Inactive)
ROOT
HETATM    1  N   LIG     1      15.573  27.460  12.704  1.00  0.00    -0.191 NA
HETATM    2  C   LIG     1      15.228  28.337  13.376  1.00  0.00     0.099 C 
HETATM    3  C   LIG     1      14.799  29.427  14.211  1.00  0.00     0.044 A 
HETATM    4  C   LIG     1      13.506  29.433  14.751  1.00  0.00     0.022 A 
HETATM    5  C   LIG     1      13.090  30.492  15.564  1.00  0.00     0.002 A 
HETATM    6  C   LIG     1      13.965  31.548  15.839  1.00  0.00     0.000 A 
HETATM    7  C   LIG     1      15.256  31.546  15.302  1.00  0.00     0.002 A 
HETATM    8  C   LIG     1      15.674  30.487  14.488  1.00  0.00     0.022 A 
ENDROOT
TORSDOF 0
ENDMDL
MODEL 18
REMARK VINA RESULT:      -4.1     11.267     12.474
REMARK  0 active torsions:
REMARK  status: ('A' for Active; 'I' for Inactive)
ROOT
HETATM    1  N   LIG     1      12.354  31.955  17.201  1.00  0.00    -0.191 NA
HETATM    2  C   LIG     1      13.002  31.411  16.412  1.00  0.00     0.099 C 
HETATM    3  C   LIG     1      13.808  30.734  15.430  1.00  0.00     0.044 A 
HETATM    4  C   LIG     1      15.079  31.225  15.104  1.00  0.00     0.022 A 
HETATM    5  C   LIG     1      15.861  30.566  14.151  1.00  0.00     0.002 A 
HETATM    6  C   LIG     1      15.376  29.416  13.521  1.00  0.00     0.000 A 
HETATM    7  C   LIG     1      14.108  28.923  13.844  1.00  0.00     0.002 A 
HETATM    8  C   LIG     1      13.323  29.581  14.798  1.00  0.00     0.022 A 
ENDROOT
TORSDOF 0
ENDMDL
MODEL 19
REMARK VINA RESULT:      -3.7     20.018     20.598
REMARK  0 active torsions:
REMARK  status: ('A' for Active; 'I' for Inactive)
ROOT
HETATM    1  N   LIG     1      16.311  20.519  11.579  1.00  0.00    -0.191 NA
HETATM    2  C   LIG     1      15.924  20.068  12.571  1.00  0.00     0.099 C 
HETATM    3  C   LIG     1      15.443  19.506  13.806  1.00  0.00     0.044 A 
HETATM    4  C   LIG     1      14.171  18.921  13.865  1.00  0.00     0.022 A 
HETATM    5  C   LIG     1      13.705  18.375  15.065  1.00  0.00     0.002 A 
HETATM    6  C   LIG     1      14.509  18.412  16.209  1.00  0.00     0.000 A 
HETATM    7  C   LIG     1      15.779  18.994  16.154  1.00  0.00     0.002 A 
HETATM    8  C   LIG     1      16.247  19.541  14.954  1.00  0.00     0.022 A 
ENDROOT
TORSDOF 0
ENDMDL
MODEL 20
REMARK VINA RESULT:      -3.7     20.278     21.028
REMARK  0 active torsions:
REMARK  status: ('A' for Active; 'I' for Inactive)
ROOT
HETATM    1  N   LIG     1      11.569  17.933  13.654  1.00  0.00    -0.191 NA
HETATM    2  C   LIG     1      12.607  18.203  14.087  1.00  0.00     0.099 C 
HETATM    3  C   LIG     1      13.899  18.540  14.625  1.00  0.00     0.044 A 
HETATM    4  C   LIG     1      14.936  18.934  13.770  1.00  0.00     0.022 A 
HETATM    5  C   LIG     1      16.190  19.262  14.295  1.00  0.00     0.002 A 
HETATM    6  C   LIG     1      16.411  19.197  15.674  1.00  0.00     0.000 A 
HETATM    7  C   LIG     1      15.378  18.805  16.530  1.00  0.00     0.002 A 
HETATM    8  C   LIG     1      14.122  18.476  16.008  1.00  0.00     0.022 A 
ENDROOT
TORSDOF 0
ENDMDL
