MODEL 1
REMARK VINA RESULT:      -6.3      0.000      0.000
REMARK  1 active torsions:
REMARK  status: ('A' for Active; 'I' for Inactive)
REMARK    1  A    between atoms: C_2  and  C_3 
ROOT
HETATM    1  C   LIG     1      17.235  36.085  24.149  1.00  0.00    -0.037 A 
HETATM    2  C   LIG     1      17.387  34.883  24.872  1.00  0.00     0.011 A 
HETATM    3  C   LIG     1      17.889  34.902  26.178  1.00  0.00     0.001 A 
HETATM    4  C   LIG     1      18.238  36.114  26.778  1.00  0.00     0.000 A 
HETATM    5  C   LIG     1      18.081  37.310  26.077  1.00  0.00     0.001 A 
HETATM    6  C   LIG     1      17.578  37.297  24.772  1.00  0.00     0.011 A 
ENDROOT
BRANCH   1   7
HETATM    7  C   LIG     1      16.700  36.126  22.765  1.00  0.00     0.001 C 
HETATM    8  C   LIG     1      16.873  35.158  21.864  1.00  0.00     0.012 C 
ENDBRANCH   1   7
TORSDOF 1
ENDMDL
MODEL 2
REMARK VINA RESULT:      -6.3      0.055      1.712
REMARK  1 active torsions:
REMARK  status: ('A' for Active; 'I' for Inactive)
REMARK    1  A    between atoms: C_2  and  C_3 
ROOT
HETATM    1  C   LIG     1      17.230  36.121  24.168  1.00  0.00    -0.037 A 
HETATM    2  C   LIG     1      17.612  37.316  24.813  1.00  0.00     0.011 A 
HETATM    3  C   LIG     1      18.123  37.285  26.115  1.00  0.00     0.001 A 
HETATM    4  C   LIG     1      18.265  36.067  26.784  1.00  0.00     0.000 A 
HETATM    5  C   LIG     1      17.902  34.877  26.152  1.00  0.00     0.001 A 
HETATM    6  C   LIG     1      17.392  34.902  24.850  1.00  0.00     0.011 A 
ENDROOT
BRANCH   1   7
HETATM    7  C   LIG     1      16.691  36.093  22.785  1.00  0.00     0.001 C 
HETATM    8  C   LIG     1      16.957  35.137  21.895  1.00  0.00     0.012 C 
ENDBRANCH   1   7
TORSDOF 1
ENDMDL
MODEL 3
REMARK VINA RESULT:      -6.0      0.978      3.354
REMARK  1 active torsions:
REMARK  status: ('A' for Active; 'I' for Inactive)
REMARK    1  A    between atoms: C_2  and  C_3 
ROOT
HETATM    1  C   LIG     1      17.193  35.727  24.373  1.00  0.00    -0.037 A 
HETATM    2  C   LIG     1      17.045  35.185  23.079  1.00  0.00     0.011 A 
HETATM    3  C   LIG     1      16.919  36.028  21.969  1.00  0.00     0.001 A 
HETATM    4  C   LIG     1      16.945  37.414  22.135  1.00  0.00     0.000 A 
HETATM    5  C   LIG     1      17.103  37.962  23.409  1.00  0.00     0.001 A 
HETATM    6  C   LIG     1      17.231  37.125  24.521  1.00  0.00     0.011 A 
ENDROOT
BRANCH   1   7
HETATM    7  C   LIG     1      17.340  34.882  25.584  1.00  0.00     0.001 C 
HETATM    8  C   LIG     1      18.394  34.915  26.400  1.00  0.00     0.012 C 
ENDBRANCH   1   7
TORSDOF 1
ENDMDL
MODEL 4
REMARK VINA RESULT:      -5.9      3.209      5.134
REMARK  1 active torsions:
REMARK  status: ('A' for Active; 'I' for Inactive)
REMARK    1  A    between atoms: C_2  and  C_3 
ROOT
HETATM    1  C   LIG     1      17.686  37.303  21.278  1.00  0.00    -0.037 A 
HETATM    2  C   LIG     1      17.947  38.656  21.582  1.00  0.00     0.011 A 
HETATM    3  C   LIG     1      18.880  39.383  20.834  1.00  0.00     0.001 A 
HETATM    4  C   LIG     1      19.557  38.775  19.775  1.00  0.00     0.000 A 
HETATM    5  C   LIG     1      19.299  37.440  19.457  1.00  0.00     0.001 A 
HETATM    6  C   LIG     1      18.367  36.710  20.200  1.00  0.00     0.011 A 
ENDROOT
BRANCH   1   7
HETATM    7  C   LIG     1      16.702  36.487  22.030  1.00  0.00     0.001 C 
HETATM    8  C   LIG     1      16.880  35.206  22.355  1.00  0.00     0.012 C 
ENDBRANCH   1   7
TORSDOF 1
ENDMDL
MODEL 5
REMARK VINA RESULT:      -5.9      3.202      4.910
REMARK  1 active torsions:
REMARK  status: ('A' for Active; 'I' for Inactive)
REMARK    1  A    between atoms: C_2  and  C_3 
ROOT
HETATM    1  C   LIG     1      17.673  37.274  21.255  1.00  0.00    -0.037 A 
HETATM    2  C   LIG     1      18.383  36.719  20.170  1.00  0.00     0.011 A 
HETATM    3  C   LIG     1      19.293  37.498  19.447  1.00  0.00     0.001 A 
HETATM    4  C   LIG     1      19.511  38.832  19.800  1.00  0.00     0.000 A 
HETATM    5  C   LIG     1      18.824  39.389  20.880  1.00  0.00     0.001 A 
HETATM    6  C   LIG     1      17.914  38.615  21.606  1.00  0.00     0.011 A 
ENDROOT
BRANCH   1   7
HETATM    7  C   LIG     1      16.703  36.494  22.063  1.00  0.00     0.001 C 
HETATM    8  C   LIG     1      16.876  35.221  22.420  1.00  0.00     0.012 C 
ENDBRANCH   1   7
TORSDOF 1
ENDMDL
MODEL 6
REMARK VINA RESULT:      -5.7      3.249      4.852
REMARK  1 active torsions:
REMARK  status: ('A' for Active; 'I' for Inactive)
REMARK    1  A    between atoms: C_2  and  C_3 
ROOT
HETATM    1  C   LIG     1      18.376  38.259  20.899  1.00  0.00    -0.037 A 
HETATM    2  C   LIG     1      17.584  38.623  22.009  1.00  0.00     0.011 A 
HETATM    3  C   LIG     1      16.688  37.708  22.570  1.00  0.00     0.001 A 
HETATM    4  C   LIG     1      16.575  36.421  22.039  1.00  0.00     0.000 A 
HETATM    5  C   LIG     1      17.361  36.045  20.949  1.00  0.00     0.001 A 
HETATM    6  C   LIG     1      18.260  36.955  20.385  1.00  0.00     0.011 A 
ENDROOT
BRANCH   1   7
HETATM    7  C   LIG     1      19.349  39.185  20.269  1.00  0.00     0.001 C 
HETATM    8  C   LIG     1      20.354  38.797  19.483  1.00  0.00     0.012 C 
ENDBRANCH   1   7
TORSDOF 1
ENDMDL
MODEL 7
REMARK VINA RESULT:      -5.6      1.075      3.970
REMARK  1 active torsions:
REMARK  status: ('A' for Active; 'I' for Inactive)
REMARK    1  A    between atoms: C_2  and  C_3 
ROOT
HETATM    1  C   LIG     1      17.352  36.946  24.245  1.00  0.00    -0.037 A 
HETATM    2  C   LIG     1      17.358  37.929  23.233  1.00  0.00     0.011 A 
HETATM    3  C   LIG     1      17.151  37.570  21.897  1.00  0.00     0.001 A 
HETATM    4  C   LIG     1      16.930  36.234  21.555  1.00  0.00     0.000 A 
HETATM    5  C   LIG     1      16.909  35.255  22.549  1.00  0.00     0.001 A 
HETATM    6  C   LIG     1      17.114  35.607  23.886  1.00  0.00     0.011 A 
ENDROOT
BRANCH   1   7
HETATM    7  C   LIG     1      17.557  37.269  25.679  1.00  0.00     0.001 C 
HETATM    8  C   LIG     1      18.448  36.665  26.465  1.00  0.00     0.012 C 
ENDBRANCH   1   7
TORSDOF 1
ENDMDL
MODEL 8
REMARK VINA RESULT:      -5.5      1.835      3.018
REMARK  1 active torsions:
REMARK  status: ('A' for Active; 'I' for Inactive)
REMARK    1  A    between atoms: C_2  and  C_3 
ROOT
HETATM    1  C   LIG     1      17.239  37.542  22.915  1.00  0.00    -0.037 A 
HETATM    2  C   LIG     1      17.423  37.484  24.313  1.00  0.00     0.011 A 
HETATM    3  C   LIG     1      17.377  36.257  24.983  1.00  0.00     0.001 A 
HETATM    4  C   LIG     1      17.155  35.076  24.270  1.00  0.00     0.000 A 
HETATM    5  C   LIG     1      16.983  35.119  22.886  1.00  0.00     0.001 A 
HETATM    6  C   LIG     1      17.030  36.343  22.211  1.00  0.00     0.011 A 
ENDROOT
BRANCH   1   7
HETATM    7  C   LIG     1      17.286  38.813  22.151  1.00  0.00     0.001 C 
HETATM    8  C   LIG     1      18.265  39.147  21.309  1.00  0.00     0.012 C 
ENDBRANCH   1   7
TORSDOF 1
ENDMDL
MODEL 9
REMARK VINA RESULT:      -5.4      3.447      4.754
REMARK  1 active torsions:
REMARK  status: ('A' for Active; 'I' for Inactive)
REMARK    1  A    between atoms: C_2  and  C_3 
ROOT
HETATM    1  C   LIG     1      18.586  38.040  20.429  1.00  0.00    -0.037 A 
HETATM    2  C   LIG     1      18.210  36.698  20.209  1.00  0.00     0.011 A 
HETATM    3  C   LIG     1      17.378  36.039  21.119  1.00  0.00     0.001 A 
HETATM    4  C   LIG     1      16.908  36.707  22.252  1.00  0.00     0.000 A 
HETATM    5  C   LIG     1      17.263  38.038  22.474  1.00  0.00     0.001 A 
HETATM    6  C   LIG     1      18.094  38.703  21.567  1.00  0.00     0.011 A 
ENDROOT
BRANCH   1   7
HETATM    7  C   LIG     1      19.459  38.792  19.493  1.00  0.00     0.001 C 
HETATM    8  C   LIG     1      19.133  39.084  18.233  1.00  0.00     0.012 C 
ENDBRANCH   1   7
TORSDOF 1
ENDMDL
MODEL 10
REMARK VINA RESULT:      -5.2      9.486     11.246
REMARK  1 active torsions:
REMARK  status: ('A' for Active; 'I' for Inactive)
REMARK    1  A    between atoms: C_2  and  C_3 
ROOT
HETATM    1  C   LIG     1      14.719  30.685  14.861  1.00  0.00    -0.037 A 
HETATM    2  C   LIG     1      15.439  31.767  15.413  1.00  0.00     0.011 A 
HETATM    3  C   LIG     1      14.898  32.513  16.465  1.00  0.00     0.001 A 
HETATM    4  C   LIG     1      13.642  32.188  16.983  1.00  0.00     0.000 A 
HETATM    5  C   LIG     1      12.926  31.113  16.454  1.00  0.00     0.001 A 
HETATM    6  C   LIG     1      13.462  30.363  15.403  1.00  0.00     0.011 A 
ENDROOT
BRANCH   1   7
HETATM    7  C   LIG     1      15.247  29.854  13.751  1.00  0.00     0.001 C 
HETATM    8  C   LIG     1      15.258  28.520  13.751  1.00  0.00     0.012 C 
ENDBRANCH   1   7
TORSDOF 1
ENDMDL
MODEL 11
REMARK VINA RESULT:      -5.2      9.112     10.980
REMARK  1 active torsions:
REMARK  status: ('A' for Active; 'I' for Inactive)
REMARK    1  A    between atoms: C_2  and  C_3 
ROOT
HETATM    1  C   LIG     1      14.407  30.615  15.064  1.00  0.00    -0.037 A 
HETATM    2  C   LIG     1      13.414  30.782  16.052  1.00  0.00     0.011 A 
HETATM    3  C   LIG     1      13.504  31.828  16.976  1.00  0.00     0.001 A 
HETATM    4  C   LIG     1      14.578  32.720  16.924  1.00  0.00     0.000 A 
HETATM    5  C   LIG     1      15.560  32.572  15.943  1.00  0.00     0.001 A 
HETATM    6  C   LIG     1      15.474  31.530  15.016  1.00  0.00     0.011 A 
ENDROOT
BRANCH   1   7
HETATM    7  C   LIG     1      14.358  29.530  14.052  1.00  0.00     0.001 C 
HETATM    8  C   LIG     1      15.348  28.664  13.831  1.00  0.00     0.012 C 
ENDBRANCH   1   7
TORSDOF 1
ENDMDL
MODEL 12
REMARK VINA RESULT:      -5.0      7.650     10.925
REMARK  1 active torsions:
REMARK  status: ('A' for Active; 'I' for Inactive)
REMARK    1  A    between atoms: C_2  and  C_3 
ROOT
HETATM    1  C   LIG     1      14.641  31.825  16.302  1.00  0.00    -0.037 A 
HETATM    2  C   LIG     1      15.611  31.779  15.278  1.00  0.00     0.011 A 
HETATM    3  C   LIG     1      15.477  30.878  14.216  1.00  0.00     0.001 A 
HETATM    4  C   LIG     1      14.376  30.021  14.158  1.00  0.00     0.000 A 
HETATM    5  C   LIG     1      13.403  30.066  15.158  1.00  0.00     0.001 A 
HETATM    6  C   LIG     1      13.531  30.964  16.221  1.00  0.00     0.011 A 
ENDROOT
BRANCH   1   7
HETATM    7  C   LIG     1      14.726  32.765  17.447  1.00  0.00     0.001 C 
HETATM    8  C   LIG     1      15.178  32.434  18.657  1.00  0.00     0.012 C 
ENDBRANCH   1   7
TORSDOF 1
ENDMDL
MODEL 13
REMARK VINA RESULT:      -5.0      7.650     10.872
REMARK  1 active torsions:
REMARK  status: ('A' for Active; 'I' for Inactive)
REMARK    1  A    between atoms: C_2  and  C_3 
ROOT
HETATM    1  C   LIG     1      14.635  31.837  16.288  1.00  0.00    -0.037 A 
HETATM    2  C   LIG     1      13.538  30.957  16.176  1.00  0.00     0.011 A 
HETATM    3  C   LIG     1      13.443  30.080  15.090  1.00  0.00     0.001 A 
HETATM    4  C   LIG     1      14.438  30.064  14.111  1.00  0.00     0.000 A 
HETATM    5  C   LIG     1      15.535  30.921  14.218  1.00  0.00     0.001 A 
HETATM    6  C   LIG     1      15.636  31.799  15.301  1.00  0.00     0.011 A 
ENDROOT
BRANCH   1   7
HETATM    7  C   LIG     1      14.793  32.782  17.421  1.00  0.00     0.001 C 
HETATM    8  C   LIG     1      15.188  32.428  18.645  1.00  0.00     0.012 C 
ENDBRANCH   1   7
TORSDOF 1
ENDMDL
MODEL 14
REMARK VINA RESULT:      -5.0      9.512     10.801
REMARK  1 active torsions:
REMARK  status: ('A' for Active; 'I' for Inactive)
REMARK    1  A    between atoms: C_2  and  C_3 
ROOT
HETATM    1  C   LIG     1      15.561  31.902  15.405  1.00  0.00    -0.037 A 
HETATM    2  C   LIG     1      15.032  30.857  14.617  1.00  0.00     0.011 A 
HETATM    3  C   LIG     1      13.823  30.248  14.969  1.00  0.00     0.001 A 
HETATM    4  C   LIG     1      13.126  30.674  16.101  1.00  0.00     0.000 A 
HETATM    5  C   LIG     1      13.632  31.714  16.882  1.00  0.00     0.001 A 
HETATM    6  C   LIG     1      14.840  32.328  16.535  1.00  0.00     0.011 A 
ENDROOT
BRANCH   1   7
HETATM    7  C   LIG     1      16.833  32.590  15.076  1.00  0.00     0.001 C 
HETATM    8  C   LIG     1      17.155  33.031  13.859  1.00  0.00     0.012 C 
ENDBRANCH   1   7
TORSDOF 1
ENDMDL
MODEL 15
REMARK VINA RESULT:      -4.7     10.019     11.268
REMARK  1 active torsions:
REMARK  status: ('A' for Active; 'I' for Inactive)
REMARK    1  A    between atoms: C_2  and  C_3 
ROOT
HETATM    1  C   LIG     1      15.625  31.594  14.994  1.00  0.00    -0.037 A 
HETATM    2  C   LIG     1      14.830  31.930  16.110  1.00  0.00     0.011 A 
HETATM    3  C   LIG     1      13.634  31.249  16.358  1.00  0.00     0.001 A 
HETATM    4  C   LIG     1      13.219  30.225  15.504  1.00  0.00     0.000 A 
HETATM    5  C   LIG     1      14.002  29.875  14.403  1.00  0.00     0.001 A 
HETATM    6  C   LIG     1      15.200  30.551  14.151  1.00  0.00     0.011 A 
ENDROOT
BRANCH   1   7
HETATM    7  C   LIG     1      16.907  32.276  14.686  1.00  0.00     0.001 C 
HETATM    8  C   LIG     1      17.173  33.546  14.990  1.00  0.00     0.012 C 
ENDBRANCH   1   7
TORSDOF 1
ENDMDL
MODEL 16
REMARK VINA RESULT:      -4.5      9.192     11.046
REMARK  1 active torsions:
REMARK  status: ('A' for Active; 'I' for Inactive)
REMARK    1  A    between atoms: C_2  and  C_3 
ROOT
HETATM    1  C   LIG     1      14.389  31.001  15.259  1.00  0.00    -0.037 A 
HETATM    2  C   LIG     1      15.370  31.180  14.260  1.00  0.00     0.011 A 
HETATM    3  C   LIG     1      16.349  32.169  14.399  1.00  0.00     0.001 A 
HETATM    4  C   LIG     1      16.367  32.984  15.533  1.00  0.00     0.000 A 
HETATM    5  C   LIG     1      15.410  32.809  16.533  1.00  0.00     0.001 A 
HETATM    6  C   LIG     1      14.430  31.821  16.400  1.00  0.00     0.011 A 
ENDROOT
BRANCH   1   7
HETATM    7  C   LIG     1      13.332  29.963  15.169  1.00  0.00     0.001 C 
HETATM    8  C   LIG     1      13.268  29.038  14.210  1.00  0.00     0.012 C 
ENDBRANCH   1   7
TORSDOF 1
ENDMDL
MODEL 17
REMARK VINA RESULT:      -4.5      9.652     11.113
REMARK  1 active torsions:
REMARK  status: ('A' for Active; 'I' for Inactive)
REMARK    1  A    between atoms: C_2  and  C_3 
ROOT
HETATM    1  C   LIG     1      14.998  31.672  15.615  1.00  0.00    -0.037 A 
HETATM    2  C   LIG     1      15.867  32.731  15.949  1.00  0.00     0.011 A 
HETATM    3  C   LIG     1      16.791  33.210  15.013  1.00  0.00     0.001 A 
HETATM    4  C   LIG     1      16.854  32.646  13.737  1.00  0.00     0.000 A 
HETATM    5  C   LIG     1      15.990  31.605  13.392  1.00  0.00     0.001 A 
HETATM    6  C   LIG     1      15.065  31.123  14.322  1.00  0.00     0.011 A 
ENDROOT
BRANCH   1   7
HETATM    7  C   LIG     1      13.993  31.130  16.564  1.00  0.00     0.001 C 
HETATM    8  C   LIG     1      12.820  30.612  16.200  1.00  0.00     0.012 C 
ENDBRANCH   1   7
TORSDOF 1
ENDMDL
MODEL 18
REMARK VINA RESULT:      -4.3     11.069     13.068
REMARK  1 active torsions:
REMARK  status: ('A' for Active; 'I' for Inactive)
REMARK    1  A    between atoms: C_2  and  C_3 
ROOT
HETATM    1  C   LIG     1      14.599  29.923  14.545  1.00  0.00    -0.037 A 
HETATM    2  C   LIG     1      15.573  29.014  14.081  1.00  0.00     0.011 A 
HETATM    3  C   LIG     1      15.194  27.762  13.587  1.00  0.00     0.001 A 
HETATM    4  C   LIG     1      13.845  27.404  13.543  1.00  0.00     0.000 A 
HETATM    5  C   LIG     1      12.871  28.300  13.988  1.00  0.00     0.001 A 
HETATM    6  C   LIG     1      13.244  29.553  14.482  1.00  0.00     0.011 A 
ENDROOT
BRANCH   1   7
HETATM    7  C   LIG     1      14.943  31.268  15.072  1.00  0.00     0.001 C 
HETATM    8  C   LIG     1      15.976  31.998  14.649  1.00  0.00     0.012 C 
ENDBRANCH   1   7
TORSDOF 1
ENDMDL
MODEL 19
REMARK VINA RESULT:      -3.6     14.891     16.088
REMARK  1 active torsions:
REMARK  status: ('A' for Active; 'I' for Inactive)
REMARK    1  A    between atoms: C_2  and  C_3 
ROOT
HETATM    1  C   LIG     1      26.874  30.773  36.001  1.00  0.00    -0.037 A 
HETATM    2  C   LIG     1      28.252  31.065  36.077  1.00  0.00     0.011 A 
HETATM    3  C   LIG     1      28.756  31.830  37.135  1.00  0.00     0.001 A 
HETATM    4  C   LIG     1      27.897  32.305  38.128  1.00  0.00     0.000 A 
HETATM    5  C   LIG     1      26.534  32.013  38.070  1.00  0.00     0.001 A 
HETATM    6  C   LIG     1      26.025  31.248  37.016  1.00  0.00     0.011 A 
ENDROOT
BRANCH   1   7
HETATM    7  C   LIG     1      26.285  29.960  34.908  1.00  0.00     0.001 C 
HETATM    8  C   LIG     1      26.989  29.162  34.104  1.00  0.00     0.012 C 
ENDBRANCH   1   7
TORSDOF 1
ENDMDL
MODEL 20
REMARK VINA RESULT:      -3.6     14.946     15.809
REMARK  1 active torsions:
REMARK  status: ('A' for Active; 'I' for Inactive)
REMARK    1  A    between atoms: C_2  and  C_3 
ROOT
HETATM    1  C   LIG     1      27.537  31.049  35.376  1.00  0.00    -0.037 A 
HETATM    2  C   LIG     1      26.178  31.058  35.757  1.00  0.00     0.011 A 
HETATM    3  C   LIG     1      25.810  31.422  37.056  1.00  0.00     0.001 A 
HETATM    4  C   LIG     1      26.786  31.788  37.986  1.00  0.00     0.000 A 
HETATM    5  C   LIG     1      28.132  31.795  37.618  1.00  0.00     0.001 A 
HETATM    6  C   LIG     1      28.506  31.433  36.320  1.00  0.00     0.011 A 
ENDROOT
BRANCH   1   7
HETATM    7  C   LIG     1      27.985  30.680  34.010  1.00  0.00     0.001 C 
HETATM    8  C   LIG     1      28.788  31.431  33.255  1.00  0.00     0.012 C 
ENDBRANCH   1   7
TORSDOF 1
ENDMDL
