REMARK  1 active torsions:
REMARK  status: ('A' for Active; 'I' for Inactive)
REMARK    1  A    between atoms: C_2  and  C_3 
ROOT
HETATM    1  C   LIG     1       0.698  -0.067  -0.096  1.00  0.00    -0.044 A 
HETATM    2  C   LIG     1      -0.108  -1.217  -0.166  1.00  0.00     0.008 A 
HETATM    3  C   LIG     1      -1.482  -1.131   0.082  1.00  0.00     0.001 A 
HETATM    4  C   LIG     1      -2.060   0.101   0.404  1.00  0.00     0.000 A 
HETATM    5  C   LIG     1      -1.265   1.248   0.480  1.00  0.00     0.001 A 
HETATM    6  C   LIG     1       0.109   1.166   0.232  1.00  0.00     0.008 A 
ENDROOT
BRANCH   1   7
HETATM    7  C   LIG     1       2.175  -0.151  -0.355  1.00  0.00     0.153 C 
HETATM    8 CL   LIG     1       2.595   0.749  -1.835  1.00  0.00    -0.126 Cl
ENDBRANCH   1   7
TORSDOF 1
