MODEL 1
REMARK VINA RESULT:      -6.0      0.000      0.000
REMARK  1 active torsions:
REMARK  status: ('A' for Active; 'I' for Inactive)
REMARK    1  A    between atoms: O_2  and  C_3 
ROOT
HETATM    1  C   LIG     1      17.247  37.305  24.878  1.00  0.00     0.068 A 
HETATM    2  C   LIG     1      17.016  36.046  24.287  1.00  0.00     0.037 A 
HETATM    3  C   LIG     1      17.432  34.879  24.937  1.00  0.00     0.003 A 
HETATM    4  C   LIG     1      18.079  34.956  26.172  1.00  0.00     0.000 A 
HETATM    5  C   LIG     1      18.311  36.200  26.762  1.00  0.00     0.003 A 
HETATM    6  C   LIG     1      17.896  37.369  26.118  1.00  0.00     0.037 A 
ENDROOT
BRANCH   1   7
HETATM    7  O   LIG     1      16.849  38.505  24.271  1.00  0.00    -0.356 OA
HETATM    8  C   LIG     1      17.056  38.818  22.897  1.00  0.00     0.210 C 
ENDBRANCH   1   7
TORSDOF 1
ENDMDL
MODEL 2
REMARK VINA RESULT:      -5.7      1.009      1.919
REMARK  1 active torsions:
REMARK  status: ('A' for Active; 'I' for Inactive)
REMARK    1  A    between atoms: O_2  and  C_3 
ROOT
HETATM    1  C   LIG     1      17.218  36.596  24.279  1.00  0.00     0.068 A 
HETATM    2  C   LIG     1      17.878  37.500  25.136  1.00  0.00     0.037 A 
HETATM    3  C   LIG     1      18.470  37.043  26.318  1.00  0.00     0.003 A 
HETATM    4  C   LIG     1      18.408  35.688  26.655  1.00  0.00     0.000 A 
HETATM    5  C   LIG     1      17.756  34.788  25.810  1.00  0.00     0.003 A 
HETATM    6  C   LIG     1      17.164  35.241  24.627  1.00  0.00     0.037 A 
ENDROOT
BRANCH   1   7
HETATM    7  O   LIG     1      16.610  37.002  23.082  1.00  0.00    -0.356 OA
HETATM    8  C   LIG     1      17.295  37.637  22.008  1.00  0.00     0.210 C 
ENDBRANCH   1   7
TORSDOF 1
ENDMDL
MODEL 3
REMARK VINA RESULT:      -5.3      3.015      5.261
REMARK  1 active torsions:
REMARK  status: ('A' for Active; 'I' for Inactive)
REMARK    1  A    between atoms: O_2  and  C_3 
ROOT
HETATM    1  C   LIG     1      17.617  37.681  21.425  1.00  0.00     0.068 A 
HETATM    2  C   LIG     1      18.244  38.944  21.394  1.00  0.00     0.037 A 
HETATM    3  C   LIG     1      19.255  39.203  20.462  1.00  0.00     0.003 A 
HETATM    4  C   LIG     1      19.649  38.212  19.560  1.00  0.00     0.000 A 
HETATM    5  C   LIG     1      19.032  36.960  19.586  1.00  0.00     0.003 A 
HETATM    6  C   LIG     1      18.020  36.696  20.515  1.00  0.00     0.037 A 
ENDROOT
BRANCH   1   7
HETATM    7  O   LIG     1      16.598  37.370  22.337  1.00  0.00    -0.356 OA
HETATM    8  C   LIG     1      16.710  37.519  23.749  1.00  0.00     0.210 C 
ENDBRANCH   1   7
TORSDOF 1
ENDMDL
MODEL 4
REMARK VINA RESULT:      -5.3      3.054      5.043
REMARK  1 active torsions:
REMARK  status: ('A' for Active; 'I' for Inactive)
REMARK    1  A    between atoms: O_2  and  C_3 
ROOT
HETATM    1  C   LIG     1      17.619  37.580  21.371  1.00  0.00     0.068 A 
HETATM    2  C   LIG     1      18.080  36.631  20.435  1.00  0.00     0.037 A 
HETATM    3  C   LIG     1      19.102  36.967  19.540  1.00  0.00     0.003 A 
HETATM    4  C   LIG     1      19.669  38.243  19.570  1.00  0.00     0.000 A 
HETATM    5  C   LIG     1      19.217  39.187  20.495  1.00  0.00     0.003 A 
HETATM    6  C   LIG     1      18.196  38.855  21.392  1.00  0.00     0.037 A 
ENDROOT
BRANCH   1   7
HETATM    7  O   LIG     1      16.599  37.294  22.290  1.00  0.00    -0.356 OA
HETATM    8  C   LIG     1      16.671  37.574  23.684  1.00  0.00     0.210 C 
ENDBRANCH   1   7
TORSDOF 1
ENDMDL
MODEL 5
REMARK VINA RESULT:      -5.3      4.139      5.515
REMARK  1 active torsions:
REMARK  status: ('A' for Active; 'I' for Inactive)
REMARK    1  A    between atoms: O_2  and  C_3 
ROOT
HETATM    1  C   LIG     1      17.967  36.751  20.443  1.00  0.00     0.068 A 
HETATM    2  C   LIG     1      18.982  37.018  19.502  1.00  0.00     0.037 A 
HETATM    3  C   LIG     1      19.671  38.235  19.539  1.00  0.00     0.003 A 
HETATM    4  C   LIG     1      19.354  39.191  20.507  1.00  0.00     0.000 A 
HETATM    5  C   LIG     1      18.349  38.932  21.441  1.00  0.00     0.003 A 
HETATM    6  C   LIG     1      17.659  37.716  21.409  1.00  0.00     0.037 A 
ENDROOT
BRANCH   1   7
HETATM    7  O   LIG     1      17.248  35.546  20.450  1.00  0.00    -0.356 OA
HETATM    8  C   LIG     1      16.570  35.022  21.587  1.00  0.00     0.210 C 
ENDBRANCH   1   7
TORSDOF 1
ENDMDL
MODEL 6
REMARK VINA RESULT:      -5.3      4.367      5.693
REMARK  1 active torsions:
REMARK  status: ('A' for Active; 'I' for Inactive)
REMARK    1  A    between atoms: O_2  and  C_3 
ROOT
HETATM    1  C   LIG     1      17.963  36.746  20.542  1.00  0.00     0.068 A 
HETATM    2  C   LIG     1      17.667  37.757  21.479  1.00  0.00     0.037 A 
HETATM    3  C   LIG     1      18.337  38.985  21.423  1.00  0.00     0.003 A 
HETATM    4  C   LIG     1      19.302  39.212  20.439  1.00  0.00     0.000 A 
HETATM    5  C   LIG     1      19.600  38.215  19.508  1.00  0.00     0.003 A 
HETATM    6  C   LIG     1      18.932  36.987  19.560  1.00  0.00     0.037 A 
ENDROOT
BRANCH   1   7
HETATM    7  O   LIG     1      17.320  35.499  20.553  1.00  0.00    -0.356 OA
HETATM    8  C   LIG     1      15.932  35.309  20.305  1.00  0.00     0.210 C 
ENDBRANCH   1   7
TORSDOF 1
ENDMDL
MODEL 7
REMARK VINA RESULT:      -5.0      1.686      3.575
REMARK  1 active torsions:
REMARK  status: ('A' for Active; 'I' for Inactive)
REMARK    1  A    between atoms: O_2  and  C_3 
ROOT
HETATM    1  C   LIG     1      17.219  36.807  24.104  1.00  0.00     0.068 A 
HETATM    2  C   LIG     1      17.326  37.824  23.133  1.00  0.00     0.037 A 
HETATM    3  C   LIG     1      17.269  37.504  21.772  1.00  0.00     0.003 A 
HETATM    4  C   LIG     1      17.106  36.176  21.370  1.00  0.00     0.000 A 
HETATM    5  C   LIG     1      16.998  35.165  22.327  1.00  0.00     0.003 A 
HETATM    6  C   LIG     1      17.054  35.480  23.688  1.00  0.00     0.037 A 
ENDROOT
BRANCH   1   7
HETATM    7  O   LIG     1      17.268  37.074  25.480  1.00  0.00    -0.356 OA
HETATM    8  C   LIG     1      18.331  36.673  26.339  1.00  0.00     0.210 C 
ENDBRANCH   1   7
TORSDOF 1
ENDMDL
MODEL 8
REMARK VINA RESULT:      -5.0      3.652      4.625
REMARK  1 active torsions:
REMARK  status: ('A' for Active; 'I' for Inactive)
REMARK    1  A    between atoms: O_2  and  C_3 
ROOT
HETATM    1  C   LIG     1      18.537  38.552  20.752  1.00  0.00     0.068 A 
HETATM    2  C   LIG     1      18.310  37.217  20.356  1.00  0.00     0.037 A 
HETATM    3  C   LIG     1      17.437  36.407  21.089  1.00  0.00     0.003 A 
HETATM    4  C   LIG     1      16.787  36.916  22.217  1.00  0.00     0.000 A 
HETATM    5  C   LIG     1      17.008  38.236  22.613  1.00  0.00     0.003 A 
HETATM    6  C   LIG     1      17.880  39.050  21.883  1.00  0.00     0.037 A 
ENDROOT
BRANCH   1   7
HETATM    7  O   LIG     1      19.401  39.406  20.052  1.00  0.00    -0.356 OA
HETATM    8  C   LIG     1      20.483  38.965  19.238  1.00  0.00     0.210 C 
ENDBRANCH   1   7
TORSDOF 1
ENDMDL
MODEL 9
REMARK VINA RESULT:      -4.8      9.988     10.949
REMARK  1 active torsions:
REMARK  status: ('A' for Active; 'I' for Inactive)
REMARK    1  A    between atoms: O_2  and  C_3 
ROOT
HETATM    1  C   LIG     1      15.509  32.297  15.845  1.00  0.00     0.068 A 
HETATM    2  C   LIG     1      15.300  31.244  14.931  1.00  0.00     0.037 A 
HETATM    3  C   LIG     1      14.142  30.463  15.013  1.00  0.00     0.003 A 
HETATM    4  C   LIG     1      13.189  30.722  16.001  1.00  0.00     0.000 A 
HETATM    5  C   LIG     1      13.390  31.764  16.909  1.00  0.00     0.003 A 
HETATM    6  C   LIG     1      14.546  32.548  16.831  1.00  0.00     0.037 A 
ENDROOT
BRANCH   1   7
HETATM    7  O   LIG     1      16.651  33.110  15.806  1.00  0.00    -0.356 OA
HETATM    8  C   LIG     1      17.560  33.168  14.712  1.00  0.00     0.210 C 
ENDBRANCH   1   7
TORSDOF 1
ENDMDL
MODEL 10
REMARK VINA RESULT:      -4.8      3.581      4.779
REMARK  1 active torsions:
REMARK  status: ('A' for Active; 'I' for Inactive)
REMARK    1  A    between atoms: O_2  and  C_3 
ROOT
HETATM    1  C   LIG     1      17.098  36.222  21.549  1.00  0.00     0.068 A 
HETATM    2  C   LIG     1      18.009  36.456  20.499  1.00  0.00     0.037 A 
HETATM    3  C   LIG     1      18.560  37.730  20.318  1.00  0.00     0.003 A 
HETATM    4  C   LIG     1      18.210  38.774  21.177  1.00  0.00     0.000 A 
HETATM    5  C   LIG     1      17.308  38.548  22.220  1.00  0.00     0.003 A 
HETATM    6  C   LIG     1      16.756  37.277  22.404  1.00  0.00     0.037 A 
ENDROOT
BRANCH   1   7
HETATM    7  O   LIG     1      16.518  34.965  21.775  1.00  0.00    -0.356 OA
HETATM    8  C   LIG     1      15.203  34.602  21.368  1.00  0.00     0.210 C 
ENDBRANCH   1   7
TORSDOF 1
ENDMDL
MODEL 11
REMARK VINA RESULT:      -4.6     10.900     11.977
REMARK  1 active torsions:
REMARK  status: ('A' for Active; 'I' for Inactive)
REMARK    1  A    between atoms: O_2  and  C_3 
ROOT
HETATM    1  C   LIG     1      14.256  30.469  15.085  1.00  0.00     0.068 A 
HETATM    2  C   LIG     1      13.302  30.730  16.090  1.00  0.00     0.037 A 
HETATM    3  C   LIG     1      13.470  31.821  16.950  1.00  0.00     0.003 A 
HETATM    4  C   LIG     1      14.582  32.655  16.817  1.00  0.00     0.000 A 
HETATM    5  C   LIG     1      15.530  32.401  15.823  1.00  0.00     0.003 A 
HETATM    6  C   LIG     1      15.366  31.313  14.961  1.00  0.00     0.037 A 
ENDROOT
BRANCH   1   7
HETATM    7  O   LIG     1      14.135  29.391  14.196  1.00  0.00    -0.356 OA
HETATM    8  C   LIG     1      15.214  28.553  13.796  1.00  0.00     0.210 C 
ENDBRANCH   1   7
TORSDOF 1
ENDMDL
MODEL 12
REMARK VINA RESULT:      -4.5      3.859      5.007
REMARK  1 active torsions:
REMARK  status: ('A' for Active; 'I' for Inactive)
REMARK    1  A    between atoms: O_2  and  C_3 
ROOT
HETATM    1  C   LIG     1      16.728  35.914  20.804  1.00  0.00     0.068 A 
HETATM    2  C   LIG     1      15.974  36.379  21.901  1.00  0.00     0.037 A 
HETATM    3  C   LIG     1      16.355  37.549  22.568  1.00  0.00     0.003 A 
HETATM    4  C   LIG     1      17.484  38.259  22.151  1.00  0.00     0.000 A 
HETATM    5  C   LIG     1      18.234  37.802  21.065  1.00  0.00     0.003 A 
HETATM    6  C   LIG     1      17.856  36.634  20.395  1.00  0.00     0.037 A 
ENDROOT
BRANCH   1   7
HETATM    7  O   LIG     1      16.389  34.749  20.100  1.00  0.00    -0.356 OA
HETATM    8  C   LIG     1      15.496  33.750  20.581  1.00  0.00     0.210 C 
ENDBRANCH   1   7
TORSDOF 1
ENDMDL
MODEL 13
REMARK VINA RESULT:      -4.4      2.391      3.614
REMARK  1 active torsions:
REMARK  status: ('A' for Active; 'I' for Inactive)
REMARK    1  A    between atoms: O_2  and  C_3 
ROOT
HETATM    1  C   LIG     1      18.112  38.947  22.423  1.00  0.00     0.068 A 
HETATM    2  C   LIG     1      18.723  38.696  23.669  1.00  0.00     0.037 A 
HETATM    3  C   LIG     1      18.040  37.973  24.653  1.00  0.00     0.003 A 
HETATM    4  C   LIG     1      16.750  37.498  24.406  1.00  0.00     0.000 A 
HETATM    5  C   LIG     1      16.140  37.743  23.173  1.00  0.00     0.003 A 
HETATM    6  C   LIG     1      16.819  38.464  22.187  1.00  0.00     0.037 A 
ENDROOT
BRANCH   1   7
HETATM    7  O   LIG     1      18.753  39.665  21.403  1.00  0.00    -0.356 OA
HETATM    8  C   LIG     1      19.382  39.069  20.273  1.00  0.00     0.210 C 
ENDBRANCH   1   7
TORSDOF 1
ENDMDL
MODEL 14
REMARK VINA RESULT:      -4.2     13.934     14.971
REMARK  1 active torsions:
REMARK  status: ('A' for Active; 'I' for Inactive)
REMARK    1  A    between atoms: O_2  and  C_3 
ROOT
HETATM    1  C   LIG     1      13.166  27.776  13.772  1.00  0.00     0.068 A 
HETATM    2  C   LIG     1      14.489  27.383  13.482  1.00  0.00     0.037 A 
HETATM    3  C   LIG     1      15.549  28.267  13.707  1.00  0.00     0.003 A 
HETATM    4  C   LIG     1      15.302  29.544  14.216  1.00  0.00     0.000 A 
HETATM    5  C   LIG     1      13.994  29.940  14.505  1.00  0.00     0.003 A 
HETATM    6  C   LIG     1      12.931  29.059  14.283  1.00  0.00     0.037 A 
ENDROOT
BRANCH   1   7
HETATM    7  O   LIG     1      12.068  26.928  13.567  1.00  0.00    -0.356 OA
HETATM    8  C   LIG     1      11.817  26.215  12.360  1.00  0.00     0.210 C 
ENDBRANCH   1   7
TORSDOF 1
ENDMDL
MODEL 15
REMARK VINA RESULT:      -3.8     12.524     13.878
REMARK  1 active torsions:
REMARK  status: ('A' for Active; 'I' for Inactive)
REMARK    1  A    between atoms: O_2  and  C_3 
ROOT
HETATM    1  C   LIG     1      19.205  33.612  12.039  1.00  0.00     0.068 A 
HETATM    2  C   LIG     1      19.119  34.205  10.763  1.00  0.00     0.037 A 
HETATM    3  C   LIG     1      20.196  34.941  10.257  1.00  0.00     0.003 A 
HETATM    4  C   LIG     1      21.360  35.093  11.015  1.00  0.00     0.000 A 
HETATM    5  C   LIG     1      21.450  34.507  12.280  1.00  0.00     0.003 A 
HETATM    6  C   LIG     1      20.377  33.770  12.789  1.00  0.00     0.037 A 
ENDROOT
BRANCH   1   7
HETATM    7  O   LIG     1      18.155  32.864  12.592  1.00  0.00    -0.356 OA
HETATM    8  C   LIG     1      17.403  33.256  13.736  1.00  0.00     0.210 C 
ENDBRANCH   1   7
TORSDOF 1
ENDMDL
MODEL 16
REMARK VINA RESULT:      -3.8     12.269     13.336
REMARK  1 active torsions:
REMARK  status: ('A' for Active; 'I' for Inactive)
REMARK    1  A    between atoms: O_2  and  C_3 
ROOT
HETATM    1  C   LIG     1      13.620  29.364  14.419  1.00  0.00     0.068 A 
HETATM    2  C   LIG     1      13.025  30.147  15.430  1.00  0.00     0.037 A 
HETATM    3  C   LIG     1      13.705  31.253  15.952  1.00  0.00     0.003 A 
HETATM    4  C   LIG     1      14.975  31.585  15.476  1.00  0.00     0.000 A 
HETATM    5  C   LIG     1      15.569  30.813  14.474  1.00  0.00     0.003 A 
HETATM    6  C   LIG     1      14.893  29.708  13.949  1.00  0.00     0.037 A 
ENDROOT
BRANCH   1   7
HETATM    7  O   LIG     1      12.981  28.247  13.860  1.00  0.00    -0.356 OA
HETATM    8  C   LIG     1      11.691  28.276  13.258  1.00  0.00     0.210 C 
ENDBRANCH   1   7
TORSDOF 1
ENDMDL
MODEL 17
REMARK VINA RESULT:      -3.8     10.886     11.947
REMARK  1 active torsions:
REMARK  status: ('A' for Active; 'I' for Inactive)
REMARK    1  A    between atoms: O_2  and  C_3 
ROOT
HETATM    1  C   LIG     1      14.978  31.208  14.862  1.00  0.00     0.068 A 
HETATM    2  C   LIG     1      15.556  31.216  13.576  1.00  0.00     0.037 A 
HETATM    3  C   LIG     1      16.571  32.128  13.268  1.00  0.00     0.003 A 
HETATM    4  C   LIG     1      17.015  33.036  14.233  1.00  0.00     0.000 A 
HETATM    5  C   LIG     1      16.447  33.032  15.508  1.00  0.00     0.003 A 
HETATM    6  C   LIG     1      15.432  32.122  15.821  1.00  0.00     0.037 A 
ENDROOT
BRANCH   1   7
HETATM    7  O   LIG     1      13.959  30.314  15.223  1.00  0.00    -0.356 OA
HETATM    8  C   LIG     1      12.918  30.612  16.147  1.00  0.00     0.210 C 
ENDBRANCH   1   7
TORSDOF 1
ENDMDL
MODEL 18
REMARK VINA RESULT:      -3.7     13.347     14.403
REMARK  1 active torsions:
REMARK  status: ('A' for Active; 'I' for Inactive)
REMARK    1  A    between atoms: O_2  and  C_3 
ROOT
HETATM    1  C   LIG     1      22.084  35.587  11.248  1.00  0.00     0.068 A 
HETATM    2  C   LIG     1      23.041  36.561  10.898  1.00  0.00     0.037 A 
HETATM    3  C   LIG     1      24.010  36.958  11.827  1.00  0.00     0.003 A 
HETATM    4  C   LIG     1      24.032  36.393  13.104  1.00  0.00     0.000 A 
HETATM    5  C   LIG     1      23.086  35.427  13.456  1.00  0.00     0.003 A 
HETATM    6  C   LIG     1      22.117  35.026  12.531  1.00  0.00     0.037 A 
ENDROOT
BRANCH   1   7
HETATM    7  O   LIG     1      21.094  35.152  10.355  1.00  0.00    -0.356 OA
HETATM    8  C   LIG     1      19.821  34.648  10.749  1.00  0.00     0.210 C 
ENDBRANCH   1   7
TORSDOF 1
ENDMDL
MODEL 19
REMARK VINA RESULT:      -3.6     11.338     12.348
REMARK  1 active torsions:
REMARK  status: ('A' for Active; 'I' for Inactive)
REMARK    1  A    between atoms: O_2  and  C_3 
ROOT
HETATM    1  C   LIG     1      13.693  30.649  15.647  1.00  0.00     0.068 A 
HETATM    2  C   LIG     1      13.430  29.539  14.819  1.00  0.00     0.037 A 
HETATM    3  C   LIG     1      14.319  29.204  13.791  1.00  0.00     0.003 A 
HETATM    4  C   LIG     1      15.468  29.970  13.580  1.00  0.00     0.000 A 
HETATM    5  C   LIG     1      15.733  31.071  14.397  1.00  0.00     0.003 A 
HETATM    6  C   LIG     1      14.848  31.408  15.426  1.00  0.00     0.037 A 
ENDROOT
BRANCH   1   7
HETATM    7  O   LIG     1      12.836  31.027  16.692  1.00  0.00    -0.356 OA
HETATM    8  C   LIG     1      12.261  32.322  16.832  1.00  0.00     0.210 C 
ENDBRANCH   1   7
TORSDOF 1
ENDMDL
MODEL 20
REMARK VINA RESULT:      -3.4     13.541     14.592
REMARK  1 active torsions:
REMARK  status: ('A' for Active; 'I' for Inactive)
REMARK    1  A    between atoms: O_2  and  C_3 
ROOT
HETATM    1  C   LIG     1      21.295  35.236  10.662  1.00  0.00     0.068 A 
HETATM    2  C   LIG     1      20.004  35.170  10.100  1.00  0.00     0.037 A 
HETATM    3  C   LIG     1      18.966  34.543  10.799  1.00  0.00     0.003 A 
HETATM    4  C   LIG     1      19.206  33.979  12.054  1.00  0.00     0.000 A 
HETATM    5  C   LIG     1      20.483  34.042  12.615  1.00  0.00     0.003 A 
HETATM    6  C   LIG     1      21.523  34.669  11.921  1.00  0.00     0.037 A 
ENDROOT
BRANCH   1   7
HETATM    7  O   LIG     1      22.369  35.854  10.005  1.00  0.00    -0.356 OA
HETATM    8  C   LIG     1      23.040  37.017  10.478  1.00  0.00     0.210 C 
ENDBRANCH   1   7
TORSDOF 1
ENDMDL
