REMARK  2 active torsions:
REMARK  status: ('A' for Active; 'I' for Inactive)
REMARK    1  A    between atoms: O_1  and  C_2 
REMARK    2  A    between atoms: C_2  and  C_3 
ROOT
HETATM    1  C   LIG     1       0.528   0.168   0.090  1.00  0.00    -0.035 A 
HETATM    2  C   LIG     1      -0.336   1.276   0.151  1.00  0.00     0.009 A 
HETATM    3  C   LIG     1      -1.722   1.090   0.138  1.00  0.00     0.001 A 
HETATM    4  C   LIG     1      -2.255  -0.200   0.066  1.00  0.00     0.000 A 
HETATM    5  C   LIG     1      -1.404  -1.306   0.009  1.00  0.00     0.001 A 
HETATM    6  C   LIG     1      -0.017  -1.125   0.022  1.00  0.00     0.009 A 
ENDROOT
BRANCH   1   7
HETATM    7  C   LIG     1       2.021   0.358   0.108  1.00  0.00     0.202 C 
BRANCH   7   8
HETATM    8  O   LIG     1       2.573  -0.033  -1.120  1.00  0.00    -0.396 OA
HETATM    9  H   LIG     1       2.707  -1.016  -1.077  1.00  0.00     0.209 HD
ENDBRANCH   7   8
ENDBRANCH   1   7
TORSDOF 2
