MODEL 1
REMARK VINA RESULT:      -6.1      0.000      0.000
REMARK  1 active torsions:
REMARK  status: ('A' for Active; 'I' for Inactive)
REMARK    1  A    between atoms: C_2  and  C_3 
ROOT
HETATM    1  C   LIG     1      17.221  36.827  24.352  1.00  0.00     0.002 A 
HETATM    2  C   LIG     1      17.912  37.537  25.347  1.00  0.00     0.014 A 
HETATM    3  C   LIG     1      18.474  36.861  26.435  1.00  0.00     0.001 A 
HETATM    4  C   LIG     1      18.351  35.473  26.538  1.00  0.00     0.000 A 
HETATM    5  C   LIG     1      17.666  34.758  25.552  1.00  0.00     0.001 A 
HETATM    6  C   LIG     1      17.101  35.430  24.463  1.00  0.00     0.014 A 
ENDROOT
BRANCH   1   7
HETATM    7  C   LIG     1      16.634  37.555  23.212  1.00  0.00     0.269 C 
HETATM    8  O   LIG     1      15.533  38.157  23.322  1.00  0.00    -0.301 OA
ENDBRANCH   1   7
TORSDOF 1
ENDMDL
MODEL 2
REMARK VINA RESULT:      -5.7      3.262      4.834
REMARK  1 active torsions:
REMARK  status: ('A' for Active; 'I' for Inactive)
REMARK    1  A    between atoms: C_2  and  C_3 
ROOT
HETATM    1  C   LIG     1      17.608  37.677  21.456  1.00  0.00     0.002 A 
HETATM    2  C   LIG     1      18.210  38.944  21.407  1.00  0.00     0.014 A 
HETATM    3  C   LIG     1      19.210  39.215  20.466  1.00  0.00     0.001 A 
HETATM    4  C   LIG     1      19.614  38.223  19.569  1.00  0.00     0.000 A 
HETATM    5  C   LIG     1      19.020  36.959  19.610  1.00  0.00     0.001 A 
HETATM    6  C   LIG     1      18.021  36.684  20.548  1.00  0.00     0.014 A 
ENDROOT
BRANCH   1   7
HETATM    7  C   LIG     1      16.556  37.408  22.453  1.00  0.00     0.269 C 
HETATM    8  O   LIG     1      15.959  38.350  23.039  1.00  0.00    -0.301 OA
ENDBRANCH   1   7
TORSDOF 1
ENDMDL
MODEL 3
REMARK VINA RESULT:      -5.7      3.263      5.110
REMARK  1 active torsions:
REMARK  status: ('A' for Active; 'I' for Inactive)
REMARK    1  A    between atoms: C_2  and  C_3 
ROOT
HETATM    1  C   LIG     1      17.582  37.693  21.469  1.00  0.00     0.002 A 
HETATM    2  C   LIG     1      17.994  36.692  20.575  1.00  0.00     0.014 A 
HETATM    3  C   LIG     1      18.992  36.955  19.630  1.00  0.00     0.001 A 
HETATM    4  C   LIG     1      19.585  38.218  19.572  1.00  0.00     0.000 A 
HETATM    5  C   LIG     1      19.183  39.221  20.458  1.00  0.00     0.001 A 
HETATM    6  C   LIG     1      18.185  38.963  21.403  1.00  0.00     0.014 A 
ENDROOT
BRANCH   1   7
HETATM    7  C   LIG     1      16.530  37.400  22.458  1.00  0.00     0.269 C 
HETATM    8  O   LIG     1      15.937  38.327  23.072  1.00  0.00    -0.301 OA
ENDBRANCH   1   7
TORSDOF 1
ENDMDL
MODEL 4
REMARK VINA RESULT:      -5.5      4.008      4.972
REMARK  1 active torsions:
REMARK  status: ('A' for Active; 'I' for Inactive)
REMARK    1  A    between atoms: C_2  and  C_3 
ROOT
HETATM    1  C   LIG     1      18.711  38.048  20.148  1.00  0.00     0.002 A 
HETATM    2  C   LIG     1      18.256  38.853  21.205  1.00  0.00     0.014 A 
HETATM    3  C   LIG     1      17.411  38.320  22.185  1.00  0.00     0.001 A 
HETATM    4  C   LIG     1      17.015  36.982  22.116  1.00  0.00     0.000 A 
HETATM    5  C   LIG     1      17.463  36.173  21.068  1.00  0.00     0.001 A 
HETATM    6  C   LIG     1      18.307  36.702  20.086  1.00  0.00     0.014 A 
ENDROOT
BRANCH   1   7
HETATM    7  C   LIG     1      19.600  38.625  19.124  1.00  0.00     0.269 C 
HETATM    8  O   LIG     1      20.492  39.460  19.433  1.00  0.00    -0.301 OA
ENDBRANCH   1   7
TORSDOF 1
ENDMDL
MODEL 5
REMARK VINA RESULT:      -5.1      9.726     10.934
REMARK  1 active torsions:
REMARK  status: ('A' for Active; 'I' for Inactive)
REMARK    1  A    between atoms: C_2  and  C_3 
ROOT
HETATM    1  C   LIG     1      14.736  32.324  16.228  1.00  0.00     0.002 A 
HETATM    2  C   LIG     1      13.572  31.597  16.523  1.00  0.00     0.014 A 
HETATM    3  C   LIG     1      13.249  30.453  15.785  1.00  0.00     0.001 A 
HETATM    4  C   LIG     1      14.085  30.028  14.749  1.00  0.00     0.000 A 
HETATM    5  C   LIG     1      15.246  30.745  14.449  1.00  0.00     0.001 A 
HETATM    6  C   LIG     1      15.573  31.889  15.183  1.00  0.00     0.014 A 
ENDROOT
BRANCH   1   7
HETATM    7  C   LIG     1      15.062  33.527  17.015  1.00  0.00     0.269 C 
HETATM    8  O   LIG     1      15.720  34.476  16.510  1.00  0.00    -0.301 OA
ENDBRANCH   1   7
TORSDOF 1
ENDMDL
MODEL 6
REMARK VINA RESULT:      -5.1      2.020      3.325
REMARK  1 active torsions:
REMARK  status: ('A' for Active; 'I' for Inactive)
REMARK    1  A    between atoms: C_2  and  C_3 
ROOT
HETATM    1  C   LIG     1      17.221  37.151  24.014  1.00  0.00     0.002 A 
HETATM    2  C   LIG     1      17.334  37.913  22.840  1.00  0.00     0.014 A 
HETATM    3  C   LIG     1      17.285  37.292  21.588  1.00  0.00     0.001 A 
HETATM    4  C   LIG     1      17.121  35.907  21.499  1.00  0.00     0.000 A 
HETATM    5  C   LIG     1      17.007  35.141  22.662  1.00  0.00     0.001 A 
HETATM    6  C   LIG     1      17.056  35.757  23.916  1.00  0.00     0.014 A 
ENDROOT
BRANCH   1   7
HETATM    7  C   LIG     1      17.275  37.822  25.326  1.00  0.00     0.269 C 
HETATM    8  O   LIG     1      17.814  37.265  26.319  1.00  0.00    -0.301 OA
ENDBRANCH   1   7
TORSDOF 1
ENDMDL
MODEL 7
REMARK VINA RESULT:      -5.0      9.995     11.022
REMARK  1 active torsions:
REMARK  status: ('A' for Active; 'I' for Inactive)
REMARK    1  A    between atoms: C_2  and  C_3 
ROOT
HETATM    1  C   LIG     1      15.624  32.083  15.321  1.00  0.00     0.002 A 
HETATM    2  C   LIG     1      14.943  32.508  16.474  1.00  0.00     0.014 A 
HETATM    3  C   LIG     1      13.790  31.840  16.900  1.00  0.00     0.001 A 
HETATM    4  C   LIG     1      13.310  30.743  16.180  1.00  0.00     0.000 A 
HETATM    5  C   LIG     1      13.980  30.313  15.032  1.00  0.00     0.001 A 
HETATM    6  C   LIG     1      15.133  30.978  14.602  1.00  0.00     0.014 A 
ENDROOT
BRANCH   1   7
HETATM    7  C   LIG     1      16.836  32.799  14.886  1.00  0.00     0.269 C 
HETATM    8  O   LIG     1      17.975  32.471  15.316  1.00  0.00    -0.301 OA
ENDBRANCH   1   7
TORSDOF 1
ENDMDL
MODEL 8
REMARK VINA RESULT:      -5.0     10.344     11.588
REMARK  1 active torsions:
REMARK  status: ('A' for Active; 'I' for Inactive)
REMARK    1  A    between atoms: C_2  and  C_3 
ROOT
HETATM    1  C   LIG     1      14.331  31.431  16.100  1.00  0.00     0.002 A 
HETATM    2  C   LIG     1      13.664  30.338  15.524  1.00  0.00     0.014 A 
HETATM    3  C   LIG     1      14.086  29.821  14.294  1.00  0.00     0.001 A 
HETATM    4  C   LIG     1      15.176  30.392  13.632  1.00  0.00     0.000 A 
HETATM    5  C   LIG     1      15.846  31.479  14.197  1.00  0.00     0.001 A 
HETATM    6  C   LIG     1      15.428  31.999  15.426  1.00  0.00     0.014 A 
ENDROOT
BRANCH   1   7
HETATM    7  C   LIG     1      13.874  31.962  17.397  1.00  0.00     0.269 C 
HETATM    8  O   LIG     1      14.137  31.365  18.474  1.00  0.00    -0.301 OA
ENDBRANCH   1   7
TORSDOF 1
ENDMDL
MODEL 9
REMARK VINA RESULT:      -4.8     10.466     11.458
REMARK  1 active torsions:
REMARK  status: ('A' for Active; 'I' for Inactive)
REMARK    1  A    between atoms: C_2  and  C_3 
ROOT
HETATM    1  C   LIG     1      14.847  31.044  14.809  1.00  0.00     0.002 A 
HETATM    2  C   LIG     1      15.367  32.036  15.657  1.00  0.00     0.014 A 
HETATM    3  C   LIG     1      14.701  32.375  16.839  1.00  0.00     0.001 A 
HETATM    4  C   LIG     1      13.512  31.726  17.184  1.00  0.00     0.000 A 
HETATM    5  C   LIG     1      12.987  30.738  16.348  1.00  0.00     0.001 A 
HETATM    6  C   LIG     1      13.649  30.396  15.164  1.00  0.00     0.014 A 
ENDROOT
BRANCH   1   7
HETATM    7  C   LIG     1      15.561  30.699  13.567  1.00  0.00     0.269 C 
HETATM    8  O   LIG     1      16.414  31.481  13.069  1.00  0.00    -0.301 OA
ENDBRANCH   1   7
TORSDOF 1
ENDMDL
MODEL 10
REMARK VINA RESULT:      -4.7     10.392     11.453
REMARK  1 active torsions:
REMARK  status: ('A' for Active; 'I' for Inactive)
REMARK    1  A    between atoms: C_2  and  C_3 
ROOT
HETATM    1  C   LIG     1      14.410  30.668  15.194  1.00  0.00     0.002 A 
HETATM    2  C   LIG     1      15.469  31.563  14.969  1.00  0.00     0.014 A 
HETATM    3  C   LIG     1      15.654  32.664  15.812  1.00  0.00     0.001 A 
HETATM    4  C   LIG     1      14.783  32.880  16.883  1.00  0.00     0.000 A 
HETATM    5  C   LIG     1      13.727  31.995  17.115  1.00  0.00     0.001 A 
HETATM    6  C   LIG     1      13.538  30.893  16.275  1.00  0.00     0.014 A 
ENDROOT
BRANCH   1   7
HETATM    7  C   LIG     1      14.230  29.513  14.296  1.00  0.00     0.269 C 
HETATM    8  O   LIG     1      13.096  28.992  14.127  1.00  0.00    -0.301 OA
ENDBRANCH   1   7
TORSDOF 1
ENDMDL
MODEL 11
REMARK VINA RESULT:      -4.5     10.328     11.491
REMARK  1 active torsions:
REMARK  status: ('A' for Active; 'I' for Inactive)
REMARK    1  A    between atoms: C_2  and  C_3 
ROOT
HETATM    1  C   LIG     1      16.463  32.580  14.414  1.00  0.00     0.002 A 
HETATM    2  C   LIG     1      15.997  31.556  13.574  1.00  0.00     0.014 A 
HETATM    3  C   LIG     1      14.990  30.688  14.010  1.00  0.00     0.001 A 
HETATM    4  C   LIG     1      14.442  30.836  15.286  1.00  0.00     0.000 A 
HETATM    5  C   LIG     1      14.898  31.853  16.129  1.00  0.00     0.001 A 
HETATM    6  C   LIG     1      15.905  32.723  15.698  1.00  0.00     0.014 A 
ENDROOT
BRANCH   1   7
HETATM    7  C   LIG     1      17.524  33.486  13.939  1.00  0.00     0.269 C 
HETATM    8  O   LIG     1      17.482  34.722  14.183  1.00  0.00    -0.301 OA
ENDBRANCH   1   7
TORSDOF 1
ENDMDL
MODEL 12
REMARK VINA RESULT:      -4.3     10.574     11.647
REMARK  1 active torsions:
REMARK  status: ('A' for Active; 'I' for Inactive)
REMARK    1  A    between atoms: C_2  and  C_3 
ROOT
HETATM    1  C   LIG     1      14.234  30.853  15.248  1.00  0.00     0.002 A 
HETATM    2  C   LIG     1      14.285  31.662  16.395  1.00  0.00     0.014 A 
HETATM    3  C   LIG     1      15.302  32.612  16.544  1.00  0.00     0.001 A 
HETATM    4  C   LIG     1      16.273  32.761  15.551  1.00  0.00     0.000 A 
HETATM    5  C   LIG     1      16.230  31.961  14.406  1.00  0.00     0.001 A 
HETATM    6  C   LIG     1      15.216  31.010  14.252  1.00  0.00     0.014 A 
ENDROOT
BRANCH   1   7
HETATM    7  C   LIG     1      13.157  29.857  15.106  1.00  0.00     0.269 C 
HETATM    8  O   LIG     1      13.167  29.018  14.166  1.00  0.00    -0.301 OA
ENDBRANCH   1   7
TORSDOF 1
ENDMDL
MODEL 13
REMARK VINA RESULT:      -4.1     12.250     13.629
REMARK  1 active torsions:
REMARK  status: ('A' for Active; 'I' for Inactive)
REMARK    1  A    between atoms: C_2  and  C_3 
ROOT
HETATM    1  C   LIG     1      18.938  34.319  12.174  1.00  0.00     0.002 A 
HETATM    2  C   LIG     1      20.265  34.115  12.585  1.00  0.00     0.014 A 
HETATM    3  C   LIG     1      21.325  34.420  11.725  1.00  0.00     0.001 A 
HETATM    4  C   LIG     1      21.068  34.930  10.449  1.00  0.00     0.000 A 
HETATM    5  C   LIG     1      19.751  35.136  10.032  1.00  0.00     0.001 A 
HETATM    6  C   LIG     1      18.688  34.833  10.888  1.00  0.00     0.014 A 
ENDROOT
BRANCH   1   7
HETATM    7  C   LIG     1      17.833  33.993  13.093  1.00  0.00     0.269 C 
HETATM    8  O   LIG     1      17.445  34.818  13.963  1.00  0.00    -0.301 OA
ENDBRANCH   1   7
TORSDOF 1
ENDMDL
MODEL 14
REMARK VINA RESULT:      -3.7      6.088      7.421
REMARK  1 active torsions:
REMARK  status: ('A' for Active; 'I' for Inactive)
REMARK    1  A    between atoms: C_2  and  C_3 
ROOT
HETATM    1  C   LIG     1      15.477  34.063  19.356  1.00  0.00     0.002 A 
HETATM    2  C   LIG     1      15.288  32.877  20.083  1.00  0.00     0.014 A 
HETATM    3  C   LIG     1      14.813  31.725  19.445  1.00  0.00     0.001 A 
HETATM    4  C   LIG     1      14.524  31.751  18.078  1.00  0.00     0.000 A 
HETATM    5  C   LIG     1      14.710  32.926  17.346  1.00  0.00     0.001 A 
HETATM    6  C   LIG     1      15.184  34.080  17.980  1.00  0.00     0.014 A 
ENDROOT
BRANCH   1   7
HETATM    7  C   LIG     1      15.978  35.267  20.043  1.00  0.00     0.269 C 
HETATM    8  O   LIG     1      16.995  35.216  20.785  1.00  0.00    -0.301 OA
ENDBRANCH   1   7
TORSDOF 1
ENDMDL
MODEL 15
REMARK VINA RESULT:      -3.6     16.251     16.825
REMARK  1 active torsions:
REMARK  status: ('A' for Active; 'I' for Inactive)
REMARK    1  A    between atoms: C_2  and  C_3 
ROOT
HETATM    1  C   LIG     1      20.477  22.980  34.016  1.00  0.00     0.002 A 
HETATM    2  C   LIG     1      19.662  23.200  35.138  1.00  0.00     0.014 A 
HETATM    3  C   LIG     1      20.221  23.644  36.342  1.00  0.00     0.001 A 
HETATM    4  C   LIG     1      21.597  23.871  36.433  1.00  0.00     0.000 A 
HETATM    5  C   LIG     1      22.416  23.655  35.322  1.00  0.00     0.001 A 
HETATM    6  C   LIG     1      21.862  23.211  34.117  1.00  0.00     0.014 A 
ENDROOT
BRANCH   1   7
HETATM    7  C   LIG     1      19.872  22.512  32.757  1.00  0.00     0.269 C 
HETATM    8  O   LIG     1      19.141  23.271  32.065  1.00  0.00    -0.301 OA
ENDBRANCH   1   7
TORSDOF 1
ENDMDL
MODEL 16
REMARK VINA RESULT:      -3.5     19.803     20.783
REMARK  1 active torsions:
REMARK  status: ('A' for Active; 'I' for Inactive)
REMARK    1  A    between atoms: C_2  and  C_3 
ROOT
HETATM    1  C   LIG     1      14.049  18.526  14.354  1.00  0.00     0.002 A 
HETATM    2  C   LIG     1      15.109  19.180  13.707  1.00  0.00     0.014 A 
HETATM    3  C   LIG     1      16.207  19.642  14.441  1.00  0.00     0.001 A 
HETATM    4  C   LIG     1      16.254  19.454  15.825  1.00  0.00     0.000 A 
HETATM    5  C   LIG     1      15.204  18.804  16.478  1.00  0.00     0.001 A 
HETATM    6  C   LIG     1      14.104  18.341  15.748  1.00  0.00     0.014 A 
ENDROOT
BRANCH   1   7
HETATM    7  C   LIG     1      12.899  18.046  13.566  1.00  0.00     0.269 C 
HETATM    8  O   LIG     1      11.721  18.158  13.999  1.00  0.00    -0.301 OA
ENDBRANCH   1   7
TORSDOF 1
ENDMDL
MODEL 17
REMARK VINA RESULT:      -3.5     19.953     20.556
REMARK  1 active torsions:
REMARK  status: ('A' for Active; 'I' for Inactive)
REMARK    1  A    between atoms: C_2  and  C_3 
ROOT
HETATM    1  C   LIG     1      15.668  19.197  13.865  1.00  0.00     0.002 A 
HETATM    2  C   LIG     1      16.326  19.192  15.106  1.00  0.00     0.014 A 
HETATM    3  C   LIG     1      15.641  18.815  16.267  1.00  0.00     0.001 A 
HETATM    4  C   LIG     1      14.296  18.441  16.196  1.00  0.00     0.000 A 
HETATM    5  C   LIG     1      13.634  18.443  14.966  1.00  0.00     0.001 A 
HETATM    6  C   LIG     1      14.314  18.820  13.804  1.00  0.00     0.014 A 
ENDROOT
BRANCH   1   7
HETATM    7  C   LIG     1      16.404  19.597  12.653  1.00  0.00     0.269 C 
HETATM    8  O   LIG     1      16.058  20.608  11.986  1.00  0.00    -0.301 OA
ENDBRANCH   1   7
TORSDOF 1
ENDMDL
MODEL 18
REMARK VINA RESULT:      -3.3     15.125     16.295
REMARK  1 active torsions:
REMARK  status: ('A' for Active; 'I' for Inactive)
REMARK    1  A    between atoms: C_2  and  C_3 
ROOT
HETATM    1  C   LIG     1      26.775  30.680  35.969  1.00  0.00     0.002 A 
HETATM    2  C   LIG     1      25.935  31.090  37.017  1.00  0.00     0.014 A 
HETATM    3  C   LIG     1      26.446  31.847  38.077  1.00  0.00     0.001 A 
HETATM    4  C   LIG     1      27.797  32.200  38.098  1.00  0.00     0.000 A 
HETATM    5  C   LIG     1      28.641  31.797  37.060  1.00  0.00     0.001 A 
HETATM    6  C   LIG     1      28.136  31.040  35.999  1.00  0.00     0.014 A 
ENDROOT
BRANCH   1   7
HETATM    7  C   LIG     1      26.221  29.883  34.860  1.00  0.00     0.269 C 
HETATM    8  O   LIG     1      26.784  28.824  34.475  1.00  0.00    -0.301 OA
ENDBRANCH   1   7
TORSDOF 1
ENDMDL
MODEL 19
REMARK VINA RESULT:      -3.2     15.131     15.948
REMARK  1 active torsions:
REMARK  status: ('A' for Active; 'I' for Inactive)
REMARK    1  A    between atoms: C_2  and  C_3 
ROOT
HETATM    1  C   LIG     1      27.527  31.055  35.403  1.00  0.00     0.002 A 
HETATM    2  C   LIG     1      28.505  31.433  36.337  1.00  0.00     0.014 A 
HETATM    3  C   LIG     1      28.136  31.806  37.634  1.00  0.00     0.001 A 
HETATM    4  C   LIG     1      26.790  31.805  38.007  1.00  0.00     0.000 A 
HETATM    5  C   LIG     1      25.809  31.431  37.084  1.00  0.00     0.001 A 
HETATM    6  C   LIG     1      26.173  31.057  35.786  1.00  0.00     0.014 A 
ENDROOT
BRANCH   1   7
HETATM    7  C   LIG     1      27.933  30.665  34.041  1.00  0.00     0.269 C 
HETATM    8  O   LIG     1      28.450  31.500  33.251  1.00  0.00    -0.301 OA
ENDBRANCH   1   7
TORSDOF 1
ENDMDL
