REMARK  1 active torsions:
REMARK  status: ('A' for Active; 'I' for Inactive)
REMARK    1  A    between atoms: C_2  and  C_3 
ROOT
HETATM    1  C   LIG     1       0.122   0.176  -0.318  1.00  0.00    -0.059 A 
HETATM    2  C   LIG     1      -0.742   1.234   0.012  1.00  0.00     0.007 A 
HETATM    3  C   LIG     1      -2.076   0.976   0.345  1.00  0.00     0.001 A 
HETATM    4  C   LIG     1      -2.557  -0.336   0.347  1.00  0.00     0.000 A 
HETATM    5  C   LIG     1      -1.706  -1.393   0.015  1.00  0.00     0.001 A 
HETATM    6  C   LIG     1      -0.371  -1.141  -0.318  1.00  0.00     0.007 A 
ENDROOT
BRANCH   1   7
HETATM    7  C   LIG     1       1.559   0.447  -0.683  1.00  0.00     0.034 C 
HETATM    8  C   LIG     1       2.508  -0.055   0.401  1.00  0.00     0.010 C 
ENDBRANCH   1   7
TORSDOF 1
