MODEL 1
REMARK VINA RESULT:      -4.9      0.000      0.000
REMARK  1 active torsions:
REMARK  status: ('A' for Active; 'I' for Inactive)
REMARK    1  A    between atoms: C_4  and  O_5 
ROOT
HETATM    1  C   LIG     1      18.219  35.000  26.188  1.00  0.00     0.079 C 
HETATM    2  C   LIG     1      17.678  36.253  25.584  1.00  0.00     0.079 A 
HETATM    3  C   LIG     1      17.077  36.376  24.349  1.00  0.00     0.094 A 
HETATM    4  C   LIG     1      16.771  37.717  24.291  1.00  0.00     0.191 A 
HETATM    5  N   LIG     1      17.165  38.342  25.415  1.00  0.00    -0.103 NA
HETATM    6  O   LIG     1      17.706  37.429  26.170  1.00  0.00    -0.216 OA
ENDROOT
BRANCH   4   7
HETATM    7  O   LIG     1      16.142  38.362  23.231  1.00  0.00    -0.343 OA
HETATM    8  H   LIG     1      16.040  37.904  22.332  1.00  0.00     0.219 HD
ENDBRANCH   4   7
TORSDOF 1
ENDMDL
MODEL 2
REMARK VINA RESULT:      -4.8      4.981      5.654
REMARK  1 active torsions:
REMARK  status: ('A' for Active; 'I' for Inactive)
REMARK    1  A    between atoms: C_4  and  O_5 
ROOT
HETATM    1  C   LIG     1      17.553  36.398  20.851  1.00  0.00     0.079 C 
HETATM    2  C   LIG     1      18.365  37.590  20.468  1.00  0.00     0.079 A 
HETATM    3  C   LIG     1      19.418  37.614  19.578  1.00  0.00     0.094 A 
HETATM    4  C   LIG     1      19.801  38.936  19.593  1.00  0.00     0.191 A 
HETATM    5  N   LIG     1      19.027  39.644  20.435  1.00  0.00    -0.103 NA
HETATM    6  O   LIG     1      18.174  38.800  20.943  1.00  0.00    -0.216 OA
ENDROOT
BRANCH   4   7
HETATM    7  O   LIG     1      20.839  39.490  18.851  1.00  0.00    -0.343 OA
HETATM    8  H   LIG     1      21.695  39.792  19.301  1.00  0.00     0.219 HD
ENDBRANCH   4   7
TORSDOF 1
ENDMDL
MODEL 3
REMARK VINA RESULT:      -4.7      1.725      3.425
REMARK  1 active torsions:
REMARK  status: ('A' for Active; 'I' for Inactive)
REMARK    1  A    between atoms: C_4  and  O_5 
ROOT
HETATM    1  C   LIG     1      18.267  39.084  21.646  1.00  0.00     0.079 C 
HETATM    2  C   LIG     1      17.602  38.607  22.893  1.00  0.00     0.079 A 
HETATM    3  C   LIG     1      18.226  38.241  24.068  1.00  0.00     0.094 A 
HETATM    4  C   LIG     1      17.169  37.889  24.878  1.00  0.00     0.191 A 
HETATM    5  N   LIG     1      16.002  38.037  24.225  1.00  0.00    -0.103 NA
HETATM    6  O   LIG     1      16.302  38.471  23.034  1.00  0.00    -0.216 OA
ENDROOT
BRANCH   4   7
HETATM    7  O   LIG     1      17.267  37.441  26.191  1.00  0.00    -0.343 OA
HETATM    8  H   LIG     1      18.157  37.149  26.575  1.00  0.00     0.219 HD
ENDBRANCH   4   7
TORSDOF 1
ENDMDL
MODEL 4
REMARK VINA RESULT:      -4.5      3.256      4.175
REMARK  1 active torsions:
REMARK  status: ('A' for Active; 'I' for Inactive)
REMARK    1  A    between atoms: C_4  and  O_5 
ROOT
HETATM    1  C   LIG     1      19.065  38.965  20.652  1.00  0.00     0.079 C 
HETATM    2  C   LIG     1      17.934  38.343  21.401  1.00  0.00     0.079 A 
HETATM    3  C   LIG     1      17.142  38.957  22.349  1.00  0.00     0.094 A 
HETATM    4  C   LIG     1      16.272  37.954  22.714  1.00  0.00     0.191 A 
HETATM    5  N   LIG     1      16.534  36.827  22.030  1.00  0.00    -0.103 NA
HETATM    6  O   LIG     1      17.540  37.099  21.249  1.00  0.00    -0.216 OA
ENDROOT
BRANCH   4   7
HETATM    7  O   LIG     1      15.255  38.065  23.656  1.00  0.00    -0.343 OA
HETATM    8  H   LIG     1      14.572  38.811  23.598  1.00  0.00     0.219 HD
ENDBRANCH   4   7
TORSDOF 1
ENDMDL
MODEL 5
REMARK VINA RESULT:      -4.3      1.258      2.951
REMARK  1 active torsions:
REMARK  status: ('A' for Active; 'I' for Inactive)
REMARK    1  A    between atoms: C_4  and  O_5 
ROOT
HETATM    1  C   LIG     1      15.962  37.928  22.755  1.00  0.00     0.079 C 
HETATM    2  C   LIG     1      16.667  37.534  24.009  1.00  0.00     0.079 A 
HETATM    3  C   LIG     1      17.194  36.293  24.301  1.00  0.00     0.094 A 
HETATM    4  C   LIG     1      17.720  36.474  25.560  1.00  0.00     0.191 A 
HETATM    5  N   LIG     1      17.517  37.734  25.983  1.00  0.00    -0.103 NA
HETATM    6  O   LIG     1      16.881  38.343  25.023  1.00  0.00    -0.216 OA
ENDROOT
BRANCH   4   7
HETATM    7  O   LIG     1      18.376  35.505  26.313  1.00  0.00    -0.343 OA
HETATM    8  H   LIG     1      18.068  34.540  26.297  1.00  0.00     0.219 HD
ENDBRANCH   4   7
TORSDOF 1
ENDMDL
MODEL 6
REMARK VINA RESULT:      -4.3      9.411      9.998
REMARK  1 active torsions:
REMARK  status: ('A' for Active; 'I' for Inactive)
REMARK    1  A    between atoms: C_4  and  O_5 
ROOT
HETATM    1  C   LIG     1      17.647  33.173  14.405  1.00  0.00     0.079 C 
HETATM    2  C   LIG     1      16.570  33.410  15.411  1.00  0.00     0.079 A 
HETATM    3  C   LIG     1      15.677  32.476  15.893  1.00  0.00     0.094 A 
HETATM    4  C   LIG     1      14.918  33.208  16.778  1.00  0.00     0.191 A 
HETATM    5  N   LIG     1      15.334  34.486  16.815  1.00  0.00    -0.103 NA
HETATM    6  O   LIG     1      16.330  34.570  15.980  1.00  0.00    -0.216 OA
ENDROOT
BRANCH   4   7
HETATM    7  O   LIG     1      13.863  32.718  17.540  1.00  0.00    -0.343 OA
HETATM    8  H   LIG     1      13.689  31.722  17.608  1.00  0.00     0.219 HD
ENDBRANCH   4   7
TORSDOF 1
ENDMDL
MODEL 7
REMARK VINA RESULT:      -4.2     10.911     11.701
REMARK  1 active torsions:
REMARK  status: ('A' for Active; 'I' for Inactive)
REMARK    1  A    between atoms: C_4  and  O_5 
ROOT
HETATM    1  C   LIG     1      14.966  30.265  13.804  1.00  0.00     0.079 C 
HETATM    2  C   LIG     1      14.272  30.608  15.079  1.00  0.00     0.079 A 
HETATM    3  C   LIG     1      14.774  31.381  16.105  1.00  0.00     0.094 A 
HETATM    4  C   LIG     1      13.745  31.379  17.021  1.00  0.00     0.191 A 
HETATM    5  N   LIG     1      12.708  30.653  16.566  1.00  0.00    -0.103 NA
HETATM    6  O   LIG     1      13.061  30.206  15.395  1.00  0.00    -0.216 OA
ENDROOT
BRANCH   4   7
HETATM    7  O   LIG     1      13.751  32.027  18.251  1.00  0.00    -0.343 OA
HETATM    8  H   LIG     1      13.183  31.689  19.019  1.00  0.00     0.219 HD
ENDBRANCH   4   7
TORSDOF 1
ENDMDL
MODEL 8
REMARK VINA RESULT:      -4.2      1.940      2.079
REMARK  1 active torsions:
REMARK  status: ('A' for Active; 'I' for Inactive)
REMARK    1  A    between atoms: C_4  and  O_5 
ROOT
HETATM    1  C   LIG     1      18.239  36.220  26.767  1.00  0.00     0.079 C 
HETATM    2  C   LIG     1      17.673  36.184  25.387  1.00  0.00     0.079 A 
HETATM    3  C   LIG     1      17.375  35.056  24.651  1.00  0.00     0.094 A 
HETATM    4  C   LIG     1      16.890  35.581  23.474  1.00  0.00     0.191 A 
HETATM    5  N   LIG     1      16.902  36.925  23.512  1.00  0.00    -0.103 NA
HETATM    6  O   LIG     1      17.380  37.252  24.679  1.00  0.00    -0.216 OA
ENDROOT
BRANCH   4   7
HETATM    7  O   LIG     1      16.442  34.845  22.381  1.00  0.00    -0.343 OA
HETATM    8  H   LIG     1      17.084  34.556  21.652  1.00  0.00     0.219 HD
ENDBRANCH   4   7
TORSDOF 1
ENDMDL
MODEL 9
REMARK VINA RESULT:      -4.1      3.194      3.557
REMARK  1 active torsions:
REMARK  status: ('A' for Active; 'I' for Inactive)
REMARK    1  A    between atoms: C_4  and  O_5 
ROOT
HETATM    1  C   LIG     1      15.696  35.986  21.883  1.00  0.00     0.079 C 
HETATM    2  C   LIG     1      16.373  37.288  22.152  1.00  0.00     0.079 A 
HETATM    3  C   LIG     1      17.552  37.732  21.590  1.00  0.00     0.094 A 
HETATM    4  C   LIG     1      17.721  38.968  22.173  1.00  0.00     0.191 A 
HETATM    5  N   LIG     1      16.711  39.235  23.020  1.00  0.00    -0.103 NA
HETATM    6  O   LIG     1      15.919  38.201  22.981  1.00  0.00    -0.216 OA
ENDROOT
BRANCH   4   7
HETATM    7  O   LIG     1      18.778  39.840  21.935  1.00  0.00    -0.343 OA
HETATM    8  H   LIG     1      19.439  39.663  21.188  1.00  0.00     0.219 HD
ENDBRANCH   4   7
TORSDOF 1
ENDMDL
MODEL 10
REMARK VINA RESULT:      -4.0     11.445     12.209
REMARK  1 active torsions:
REMARK  status: ('A' for Active; 'I' for Inactive)
REMARK    1  A    between atoms: C_4  and  O_5 
ROOT
HETATM    1  C   LIG     1      14.399  29.622  14.225  1.00  0.00     0.079 C 
HETATM    2  C   LIG     1      15.286  30.822  14.242  1.00  0.00     0.079 A 
HETATM    3  C   LIG     1      15.375  31.763  15.246  1.00  0.00     0.094 A 
HETATM    4  C   LIG     1      16.324  32.636  14.762  1.00  0.00     0.191 A 
HETATM    5  N   LIG     1      16.763  32.237  13.555  1.00  0.00    -0.103 NA
HETATM    6  O   LIG     1      16.117  31.142  13.275  1.00  0.00    -0.216 OA
ENDROOT
BRANCH   4   7
HETATM    7  O   LIG     1      16.782  33.778  15.410  1.00  0.00    -0.343 OA
HETATM    8  H   LIG     1      16.504  33.981  16.363  1.00  0.00     0.219 HD
ENDBRANCH   4   7
TORSDOF 1
ENDMDL
MODEL 11
REMARK VINA RESULT:      -4.0      8.807      9.575
REMARK  1 active torsions:
REMARK  status: ('A' for Active; 'I' for Inactive)
REMARK    1  A    between atoms: C_4  and  O_5 
ROOT
HETATM    1  C   LIG     1      13.757  30.948  15.651  1.00  0.00     0.079 C 
HETATM    2  C   LIG     1      14.182  31.457  16.987  1.00  0.00     0.079 A 
HETATM    3  C   LIG     1      14.966  32.565  17.232  1.00  0.00     0.094 A 
HETATM    4  C   LIG     1      15.051  32.581  18.606  1.00  0.00     0.191 A 
HETATM    5  N   LIG     1      14.365  31.553  19.135  1.00  0.00    -0.103 NA
HETATM    6  O   LIG     1      13.856  30.898  18.131  1.00  0.00    -0.216 OA
ENDROOT
BRANCH   4   7
HETATM    7  O   LIG     1      15.742  33.519  19.366  1.00  0.00    -0.343 OA
HETATM    8  H   LIG     1      15.852  34.472  19.040  1.00  0.00     0.219 HD
ENDBRANCH   4   7
TORSDOF 1
ENDMDL
MODEL 12
REMARK VINA RESULT:      -4.0      4.200      5.071
REMARK  1 active torsions:
REMARK  status: ('A' for Active; 'I' for Inactive)
REMARK    1  A    between atoms: C_4  and  O_5 
ROOT
HETATM    1  C   LIG     1      19.719  38.927  19.734  1.00  0.00     0.079 C 
HETATM    2  C   LIG     1      18.718  38.020  20.368  1.00  0.00     0.079 A 
HETATM    3  C   LIG     1      18.429  36.725  19.990  1.00  0.00     0.094 A 
HETATM    4  C   LIG     1      17.454  36.356  20.889  1.00  0.00     0.191 A 
HETATM    5  N   LIG     1      17.186  37.363  21.739  1.00  0.00    -0.103 NA
HETATM    6  O   LIG     1      17.966  38.348  21.395  1.00  0.00    -0.216 OA
ENDROOT
BRANCH   4   7
HETATM    7  O   LIG     1      16.818  35.120  20.935  1.00  0.00    -0.343 OA
HETATM    8  H   LIG     1      17.082  34.376  20.299  1.00  0.00     0.219 HD
ENDBRANCH   4   7
TORSDOF 1
ENDMDL
MODEL 13
REMARK VINA RESULT:      -4.0      8.615      8.886
REMARK  1 active torsions:
REMARK  status: ('A' for Active; 'I' for Inactive)
REMARK    1  A    between atoms: C_4  and  O_5 
ROOT
HETATM    1  C   LIG     1      14.868  31.089  20.130  1.00  0.00     0.079 C 
HETATM    2  C   LIG     1      14.697  31.875  18.873  1.00  0.00     0.079 A 
HETATM    3  C   LIG     1      15.338  33.053  18.547  1.00  0.00     0.094 A 
HETATM    4  C   LIG     1      14.826  33.344  17.302  1.00  0.00     0.191 A 
HETATM    5  N   LIG     1      13.945  32.403  16.920  1.00  0.00    -0.103 NA
HETATM    6  O   LIG     1      13.893  31.535  17.890  1.00  0.00    -0.216 OA
ENDROOT
BRANCH   4   7
HETATM    7  O   LIG     1      15.158  34.449  16.526  1.00  0.00    -0.343 OA
HETATM    8  H   LIG     1      15.285  35.361  16.949  1.00  0.00     0.219 HD
ENDBRANCH   4   7
TORSDOF 1
ENDMDL
MODEL 14
REMARK VINA RESULT:      -3.9      2.528      2.883
REMARK  1 active torsions:
REMARK  status: ('A' for Active; 'I' for Inactive)
REMARK    1  A    between atoms: C_4  and  O_5 
ROOT
HETATM    1  C   LIG     1      17.312  38.067  25.240  1.00  0.00     0.079 C 
HETATM    2  C   LIG     1      17.146  37.092  24.123  1.00  0.00     0.079 A 
HETATM    3  C   LIG     1      16.889  37.393  22.802  1.00  0.00     0.094 A 
HETATM    4  C   LIG     1      16.831  36.150  22.212  1.00  0.00     0.191 A 
HETATM    5  N   LIG     1      17.040  35.183  23.122  1.00  0.00    -0.103 NA
HETATM    6  O   LIG     1      17.226  35.787  24.261  1.00  0.00    -0.216 OA
ENDROOT
BRANCH   4   7
HETATM    7  O   LIG     1      16.593  35.902  20.864  1.00  0.00    -0.343 OA
HETATM    8  H   LIG     1      16.761  34.985  20.468  1.00  0.00     0.219 HD
ENDBRANCH   4   7
TORSDOF 1
ENDMDL
MODEL 15
REMARK VINA RESULT:      -3.9     10.120     10.768
REMARK  1 active torsions:
REMARK  status: ('A' for Active; 'I' for Inactive)
REMARK    1  A    between atoms: C_4  and  O_5 
ROOT
HETATM    1  C   LIG     1      16.417  32.733  15.412  1.00  0.00     0.079 C 
HETATM    2  C   LIG     1      15.255  32.122  16.121  1.00  0.00     0.079 A 
HETATM    3  C   LIG     1      14.332  31.249  15.584  1.00  0.00     0.094 A 
HETATM    4  C   LIG     1      13.492  31.001  16.646  1.00  0.00     0.191 A 
HETATM    5  N   LIG     1      13.893  31.681  17.735  1.00  0.00    -0.103 NA
HETATM    6  O   LIG     1      14.956  32.344  17.381  1.00  0.00    -0.216 OA
ENDROOT
BRANCH   4   7
HETATM    7  O   LIG     1      12.380  30.167  16.625  1.00  0.00    -0.343 OA
HETATM    8  H   LIG     1      11.454  30.541  16.452  1.00  0.00     0.219 HD
ENDBRANCH   4   7
TORSDOF 1
ENDMDL
MODEL 16
REMARK VINA RESULT:      -3.9      5.673      6.427
REMARK  1 active torsions:
REMARK  status: ('A' for Active; 'I' for Inactive)
REMARK    1  A    between atoms: C_4  and  O_5 
ROOT
HETATM    1  C   LIG     1      14.896  31.532  19.860  1.00  0.00     0.079 C 
HETATM    2  C   LIG     1      15.279  32.973  19.898  1.00  0.00     0.079 A 
HETATM    3  C   LIG     1      15.318  33.783  21.014  1.00  0.00     0.094 A 
HETATM    4  C   LIG     1      15.727  34.993  20.499  1.00  0.00     0.191 A 
HETATM    5  N   LIG     1      15.915  34.903  19.170  1.00  0.00    -0.103 NA
HETATM    6  O   LIG     1      15.636  33.673  18.844  1.00  0.00    -0.216 OA
ENDROOT
BRANCH   4   7
HETATM    7  O   LIG     1      15.926  36.160  21.228  1.00  0.00    -0.343 OA
HETATM    8  H   LIG     1      15.290  36.423  21.971  1.00  0.00     0.219 HD
ENDBRANCH   4   7
TORSDOF 1
ENDMDL
MODEL 17
REMARK VINA RESULT:      -3.8      2.706      3.398
REMARK  1 active torsions:
REMARK  status: ('A' for Active; 'I' for Inactive)
REMARK    1  A    between atoms: C_4  and  O_5 
ROOT
HETATM    1  C   LIG     1      17.201  37.633  25.026  1.00  0.00     0.079 C 
HETATM    2  C   LIG     1      17.562  37.976  23.620  1.00  0.00     0.079 A 
HETATM    3  C   LIG     1      18.363  39.021  23.209  1.00  0.00     0.094 A 
HETATM    4  C   LIG     1      18.366  38.882  21.839  1.00  0.00     0.191 A 
HETATM    5  N   LIG     1      17.619  37.828  21.467  1.00  0.00    -0.103 NA
HETATM    6  O   LIG     1      17.151  37.307  22.566  1.00  0.00    -0.216 OA
ENDROOT
BRANCH   4   7
HETATM    7  O   LIG     1      19.041  39.703  20.941  1.00  0.00    -0.343 OA
HETATM    8  H   LIG     1      19.010  39.519  19.945  1.00  0.00     0.219 HD
ENDBRANCH   4   7
TORSDOF 1
ENDMDL
MODEL 18
REMARK VINA RESULT:      -3.8     10.162     11.015
REMARK  1 active torsions:
REMARK  status: ('A' for Active; 'I' for Inactive)
REMARK    1  A    between atoms: C_4  and  O_5 
ROOT
HETATM    1  C   LIG     1      18.565  33.799  12.662  1.00  0.00     0.079 C 
HETATM    2  C   LIG     1      17.767  33.889  13.920  1.00  0.00     0.079 A 
HETATM    3  C   LIG     1      17.221  32.835  14.622  1.00  0.00     0.094 A 
HETATM    4  C   LIG     1      16.600  33.462  15.679  1.00  0.00     0.191 A 
HETATM    5  N   LIG     1      16.768  34.795  15.605  1.00  0.00    -0.103 NA
HETATM    6  O   LIG     1      17.475  35.014  14.534  1.00  0.00    -0.216 OA
ENDROOT
BRANCH   4   7
HETATM    7  O   LIG     1      15.892  32.831  16.696  1.00  0.00    -0.343 OA
HETATM    8  H   LIG     1      15.936  33.172  17.649  1.00  0.00     0.219 HD
ENDBRANCH   4   7
TORSDOF 1
ENDMDL
MODEL 19
REMARK VINA RESULT:      -3.8     12.311     13.026
REMARK  1 active torsions:
REMARK  status: ('A' for Active; 'I' for Inactive)
REMARK    1  A    between atoms: C_4  and  O_5 
ROOT
HETATM    1  C   LIG     1      17.948  33.268  14.662  1.00  0.00     0.079 C 
HETATM    2  C   LIG     1      17.919  33.995  13.359  1.00  0.00     0.079 A 
HETATM    3  C   LIG     1      18.607  33.653  12.213  1.00  0.00     0.094 A 
HETATM    4  C   LIG     1      18.231  34.638  11.327  1.00  0.00     0.191 A 
HETATM    5  N   LIG     1      17.381  35.502  11.911  1.00  0.00    -0.103 NA
HETATM    6  O   LIG     1      17.217  35.082  13.133  1.00  0.00    -0.216 OA
ENDROOT
BRANCH   4   7
HETATM    7  O   LIG     1      18.656  34.748  10.007  1.00  0.00    -0.343 OA
HETATM    8  H   LIG     1      18.870  35.653   9.604  1.00  0.00     0.219 HD
ENDBRANCH   4   7
TORSDOF 1
ENDMDL
MODEL 20
REMARK VINA RESULT:      -3.8     12.068     12.792
REMARK  1 active torsions:
REMARK  status: ('A' for Active; 'I' for Inactive)
REMARK    1  A    between atoms: C_4  and  O_5 
ROOT
HETATM    1  C   LIG     1      16.425  32.519  15.373  1.00  0.00     0.079 C 
HETATM    2  C   LIG     1      15.621  31.382  14.836  1.00  0.00     0.079 A 
HETATM    3  C   LIG     1      14.395  30.952  15.299  1.00  0.00     0.094 A 
HETATM    4  C   LIG     1      14.109  29.894  14.465  1.00  0.00     0.191 A 
HETATM    5  N   LIG     1      15.098  29.712  13.573  1.00  0.00    -0.103 NA
HETATM    6  O   LIG     1      15.991  30.626  13.826  1.00  0.00    -0.216 OA
ENDROOT
BRANCH   4   7
HETATM    7  O   LIG     1      12.963  29.107  14.517  1.00  0.00    -0.343 OA
HETATM    8  H   LIG     1      12.718  28.496  13.747  1.00  0.00     0.219 HD
ENDBRANCH   4   7
TORSDOF 1
ENDMDL
