REMARK  1 active torsions:
REMARK  status: ('A' for Active; 'I' for Inactive)
REMARK    1  A    between atoms: C_4  and  O_5 
ROOT
HETATM    1  C   LIG     1      -2.015   0.063   0.013  1.00  0.00     0.079 C 
HETATM    2  C   LIG     1      -0.573  -0.308  -0.083  1.00  0.00     0.079 A 
HETATM    3  C   LIG     1       0.505   0.523   0.140  1.00  0.00     0.094 A 
HETATM    4  C   LIG     1       1.581  -0.308  -0.079  1.00  0.00     0.191 A 
HETATM    5  N   LIG     1       1.166  -1.544  -0.409  1.00  0.00    -0.103 NA
HETATM    6  O   LIG     1      -0.136  -1.506  -0.401  1.00  0.00    -0.216 OA
ENDROOT
BRANCH   4   7
HETATM    7  O   LIG     1       2.920   0.054   0.021  1.00  0.00    -0.343 OA
HETATM    8  H   LIG     1       3.185   0.999   0.273  1.00  0.00     0.219 HD
ENDBRANCH   4   7
TORSDOF 1
