MODEL 1
REMARK VINA RESULT:      -6.9      0.000      0.000
REMARK  14 active torsions:
REMARK  status: ('A' for Active; 'I' for Inactive)
REMARK    1  A    between atoms: C_2  and  C_4 
REMARK    2  A    between atoms: C_2  and  O_3 
REMARK    3  A    between atoms: C_4  and  C_5 
REMARK    4  A    between atoms: C_5  and  C_6 
REMARK    5  A    between atoms: C_6  and  C_7 
REMARK    6  A    between atoms: C_7  and  C_8 
REMARK    7  A    between atoms: C_8  and  C_9 
REMARK    8  A    between atoms: C_9  and  C_10 
REMARK    9  A    between atoms: C_10  and  C_11 
REMARK   10  A    between atoms: C_11  and  C_12 
REMARK   11  A    between atoms: C_12  and  C_13 
REMARK   12  A    between atoms: C_13  and  C_14 
REMARK   13  A    between atoms: C_14  and  C_15 
REMARK   14  A    between atoms: C_15  and  C_16 
ROOT
HETATM    1  C   LIG     1      18.199  35.343  26.396  1.00  0.00     0.000 C 
ENDROOT
BRANCH   1   2
HETATM    2  C   LIG     1      17.071  34.897  25.444  1.00  0.00     0.000 C 
BRANCH   2   3
HETATM    3  C   LIG     1      17.469  34.793  23.958  1.00  0.00     0.001 C 
BRANCH   3   4
HETATM    4  C   LIG     1      16.407  35.302  22.965  1.00  0.00     0.010 C 
BRANCH   4   5
HETATM    5  C   LIG     1      16.733  34.941  21.510  1.00  0.00     0.110 C 
BRANCH   5   6
HETATM    6  C   LIG     1      15.563  34.259  20.868  1.00  0.00     0.139 C 
HETATM    7  O   LIG     1      15.717  33.631  19.788  1.00  0.00    -0.650 OA
BRANCH   6   8
HETATM    8  O   LIG     1      14.294  34.350  21.432  1.00  0.00    -0.776 OA
HETATM    9  H   LIG     1      13.749  35.202  21.360  1.00  0.00     0.167 HD
ENDBRANCH   6   8
ENDBRANCH   5   6
ENDBRANCH   4   5
ENDBRANCH   3   4
ENDBRANCH   2   3
ENDBRANCH   1   2
BRANCH   1  10
HETATM   10  C   LIG     1      18.619  36.817  26.256  1.00  0.00     0.000 C 
BRANCH  10  11
HETATM   11  C   LIG     1      17.503  37.705  25.686  1.00  0.00     0.000 C 
BRANCH  11  12
HETATM   12  C   LIG     1      17.990  38.470  24.447  1.00  0.00     0.000 C 
BRANCH  12  13
HETATM   13  C   LIG     1      16.861  38.764  23.444  1.00  0.00     0.000 C 
BRANCH  13  14
HETATM   14  C   LIG     1      17.268  38.684  21.958  1.00  0.00     0.000 C 
BRANCH  14  15
HETATM   15  C   LIG     1      18.658  39.256  21.626  1.00  0.00     0.000 C 
BRANCH  15  16
HETATM   16  C   LIG     1      18.916  39.355  20.113  1.00  0.00    -0.000 C 
BRANCH  16  17
HETATM   17  C   LIG     1      19.863  38.256  19.606  1.00  0.00    -0.005 C 
HETATM   18  C   LIG     1      19.179  36.895  19.482  1.00  0.00     0.005 C 
ENDBRANCH  16  17
ENDBRANCH  15  16
ENDBRANCH  14  15
ENDBRANCH  13  14
ENDBRANCH  12  13
ENDBRANCH  11  12
ENDBRANCH  10  11
ENDBRANCH   1  10
TORSDOF 14
ENDMDL
MODEL 2
REMARK VINA RESULT:      -6.8      2.253      5.091
REMARK  14 active torsions:
REMARK  status: ('A' for Active; 'I' for Inactive)
REMARK    1  A    between atoms: C_2  and  C_4 
REMARK    2  A    between atoms: C_2  and  O_3 
REMARK    3  A    between atoms: C_4  and  C_5 
REMARK    4  A    between atoms: C_5  and  C_6 
REMARK    5  A    between atoms: C_6  and  C_7 
REMARK    6  A    between atoms: C_7  and  C_8 
REMARK    7  A    between atoms: C_8  and  C_9 
REMARK    8  A    between atoms: C_9  and  C_10 
REMARK    9  A    between atoms: C_10  and  C_11 
REMARK   10  A    between atoms: C_11  and  C_12 
REMARK   11  A    between atoms: C_12  and  C_13 
REMARK   12  A    between atoms: C_13  and  C_14 
REMARK   13  A    between atoms: C_14  and  C_15 
REMARK   14  A    between atoms: C_15  and  C_16 
ROOT
HETATM    1  C   LIG     1      15.971  34.645  20.351  1.00  0.00     0.000 C 
ENDROOT
BRANCH   1   2
HETATM    2  C   LIG     1      15.164  33.340  20.499  1.00  0.00     0.000 C 
BRANCH   2   3
HETATM    3  C   LIG     1      15.555  32.213  19.522  1.00  0.00     0.001 C 
BRANCH   3   4
HETATM    4  C   LIG     1      14.655  32.091  18.278  1.00  0.00     0.010 C 
BRANCH   4   5
HETATM    5  C   LIG     1      15.386  32.453  16.979  1.00  0.00     0.110 C 
BRANCH   5   6
HETATM    6  C   LIG     1      15.197  33.905  16.662  1.00  0.00     0.139 C 
HETATM    7  O   LIG     1      16.150  34.573  16.180  1.00  0.00    -0.650 OA
BRANCH   6   8
HETATM    8  O   LIG     1      13.988  34.537  16.937  1.00  0.00    -0.776 OA
HETATM    9  H   LIG     1      13.786  35.462  16.573  1.00  0.00     0.167 HD
ENDBRANCH   6   8
ENDBRANCH   5   6
ENDBRANCH   4   5
ENDBRANCH   3   4
ENDBRANCH   2   3
ENDBRANCH   1   2
BRANCH   1  10
HETATM   10  C   LIG     1      16.733  35.083  21.616  1.00  0.00     0.000 C 
BRANCH  10  11
HETATM   11  C   LIG     1      16.236  36.424  22.176  1.00  0.00     0.000 C 
BRANCH  11  12
HETATM   12  C   LIG     1      17.277  37.530  21.954  1.00  0.00     0.000 C 
BRANCH  12  13
HETATM   13  C   LIG     1      17.267  38.592  23.068  1.00  0.00     0.000 C 
BRANCH  13  14
HETATM   14  C   LIG     1      18.169  38.279  24.279  1.00  0.00     0.000 C 
BRANCH  14  15
HETATM   15  C   LIG     1      17.488  37.502  25.421  1.00  0.00     0.000 C 
BRANCH  15  16
HETATM   16  C   LIG     1      18.494  36.781  26.335  1.00  0.00    -0.000 C 
BRANCH  16  17
HETATM   17  C   LIG     1      18.292  35.257  26.345  1.00  0.00    -0.005 C 
HETATM   18  C   LIG     1      17.234  34.793  25.344  1.00  0.00     0.005 C 
ENDBRANCH  16  17
ENDBRANCH  15  16
ENDBRANCH  14  15
ENDBRANCH  13  14
ENDBRANCH  12  13
ENDBRANCH  11  12
ENDBRANCH  10  11
ENDBRANCH   1  10
TORSDOF 14
ENDMDL
MODEL 3
REMARK VINA RESULT:      -6.8      0.881      4.548
REMARK  14 active torsions:
REMARK  status: ('A' for Active; 'I' for Inactive)
REMARK    1  A    between atoms: C_2  and  C_4 
REMARK    2  A    between atoms: C_2  and  O_3 
REMARK    3  A    between atoms: C_4  and  C_5 
REMARK    4  A    between atoms: C_5  and  C_6 
REMARK    5  A    between atoms: C_6  and  C_7 
REMARK    6  A    between atoms: C_7  and  C_8 
REMARK    7  A    between atoms: C_8  and  C_9 
REMARK    8  A    between atoms: C_9  and  C_10 
REMARK    9  A    between atoms: C_10  and  C_11 
REMARK   10  A    between atoms: C_11  and  C_12 
REMARK   11  A    between atoms: C_12  and  C_13 
REMARK   12  A    between atoms: C_13  and  C_14 
REMARK   13  A    between atoms: C_14  and  C_15 
REMARK   14  A    between atoms: C_15  and  C_16 
ROOT
HETATM    1  C   LIG     1      19.272  37.798  19.112  1.00  0.00     0.000 C 
ENDROOT
BRANCH   1   2
HETATM    2  C   LIG     1      18.927  36.460  19.796  1.00  0.00     0.000 C 
BRANCH   2   3
HETATM    3  C   LIG     1      17.453  36.301  20.220  1.00  0.00     0.001 C 
BRANCH   3   4
HETATM    4  C   LIG     1      17.205  35.262  21.329  1.00  0.00     0.010 C 
BRANCH   4   5
HETATM    5  C   LIG     1      15.744  35.226  21.794  1.00  0.00     0.110 C 
BRANCH   5   6
HETATM    6  C   LIG     1      15.039  34.041  21.206  1.00  0.00     0.139 C 
HETATM    7  O   LIG     1      15.562  33.408  20.251  1.00  0.00    -0.650 OA
BRANCH   6   8
HETATM    8  O   LIG     1      13.787  33.658  21.677  1.00  0.00    -0.776 OA
HETATM    9  H   LIG     1      13.352  32.797  21.366  1.00  0.00     0.167 HD
ENDBRANCH   6   8
ENDBRANCH   5   6
ENDBRANCH   4   5
ENDBRANCH   3   4
ENDBRANCH   2   3
ENDBRANCH   1   2
BRANCH   1  10
HETATM   10  C   LIG     1      19.822  38.885  20.052  1.00  0.00     0.000 C 
BRANCH  10  11
HETATM   11  C   LIG     1      18.715  39.735  20.692  1.00  0.00     0.000 C 
BRANCH  11  12
HETATM   12  C   LIG     1      18.573  39.413  22.187  1.00  0.00     0.000 C 
BRANCH  12  13
HETATM   13  C   LIG     1      17.128  39.068  22.590  1.00  0.00     0.000 C 
BRANCH  13  14
HETATM   14  C   LIG     1      16.995  38.014  23.708  1.00  0.00     0.000 C 
BRANCH  14  15
HETATM   15  C   LIG     1      17.886  38.248  24.941  1.00  0.00     0.000 C 
BRANCH  15  16
HETATM   16  C   LIG     1      18.280  36.941  25.649  1.00  0.00    -0.000 C 
BRANCH  16  17
HETATM   17  C   LIG     1      17.473  35.733  25.146  1.00  0.00    -0.005 C 
HETATM   18  C   LIG     1      17.335  34.633  26.198  1.00  0.00     0.005 C 
ENDBRANCH  16  17
ENDBRANCH  15  16
ENDBRANCH  14  15
ENDBRANCH  13  14
ENDBRANCH  12  13
ENDBRANCH  11  12
ENDBRANCH  10  11
ENDBRANCH   1  10
TORSDOF 14
ENDMDL
MODEL 4
REMARK VINA RESULT:      -6.8      2.607      4.865
REMARK  14 active torsions:
REMARK  status: ('A' for Active; 'I' for Inactive)
REMARK    1  A    between atoms: C_2  and  C_4 
REMARK    2  A    between atoms: C_2  and  O_3 
REMARK    3  A    between atoms: C_4  and  C_5 
REMARK    4  A    between atoms: C_5  and  C_6 
REMARK    5  A    between atoms: C_6  and  C_7 
REMARK    6  A    between atoms: C_7  and  C_8 
REMARK    7  A    between atoms: C_8  and  C_9 
REMARK    8  A    between atoms: C_9  and  C_10 
REMARK    9  A    between atoms: C_10  and  C_11 
REMARK   10  A    between atoms: C_11  and  C_12 
REMARK   11  A    between atoms: C_12  and  C_13 
REMARK   12  A    between atoms: C_13  and  C_14 
REMARK   13  A    between atoms: C_14  and  C_15 
REMARK   14  A    between atoms: C_15  and  C_16 
ROOT
HETATM    1  C   LIG     1      17.814  38.492  24.367  1.00  0.00     0.000 C 
ENDROOT
BRANCH   1   2
HETATM    2  C   LIG     1      16.777  38.397  23.230  1.00  0.00     0.000 C 
BRANCH   2   3
HETATM    3  C   LIG     1      17.237  38.970  21.874  1.00  0.00     0.001 C 
BRANCH   3   4
HETATM    4  C   LIG     1      18.713  38.705  21.525  1.00  0.00     0.010 C 
BRANCH   4   5
HETATM    5  C   LIG     1      18.894  38.111  20.122  1.00  0.00     0.110 C 
BRANCH   5   6
HETATM    6  C   LIG     1      19.402  39.155  19.175  1.00  0.00     0.139 C 
HETATM    7  O   LIG     1      18.592  39.796  18.454  1.00  0.00    -0.650 OA
BRANCH   6   8
HETATM    8  O   LIG     1      20.767  39.395  19.052  1.00  0.00    -0.776 OA
HETATM    9  H   LIG     1      21.245  39.256  18.169  1.00  0.00     0.167 HD
ENDBRANCH   6   8
ENDBRANCH   5   6
ENDBRANCH   4   5
ENDBRANCH   3   4
ENDBRANCH   2   3
ENDBRANCH   1   2
BRANCH   1  10
HETATM   10  C   LIG     1      17.437  37.736  25.654  1.00  0.00     0.000 C 
BRANCH  10  11
HETATM   11  C   LIG     1      18.638  37.033  26.305  1.00  0.00     0.000 C 
BRANCH  11  12
HETATM   12  C   LIG     1      18.338  35.546  26.544  1.00  0.00     0.000 C 
BRANCH  12  13
HETATM   13  C   LIG     1      17.199  35.015  25.654  1.00  0.00     0.000 C 
BRANCH  13  14
HETATM   14  C   LIG     1      17.603  34.686  24.202  1.00  0.00     0.000 C 
BRANCH  14  15
HETATM   15  C   LIG     1      16.592  35.119  23.125  1.00  0.00     0.000 C 
BRANCH  15  16
HETATM   16  C   LIG     1      17.203  35.155  21.714  1.00  0.00    -0.000 C 
BRANCH  16  17
HETATM   17  C   LIG     1      16.159  35.463  20.629  1.00  0.00    -0.005 C 
HETATM   18  C   LIG     1      14.784  35.797  21.208  1.00  0.00     0.005 C 
ENDBRANCH  16  17
ENDBRANCH  15  16
ENDBRANCH  14  15
ENDBRANCH  13  14
ENDBRANCH  12  13
ENDBRANCH  11  12
ENDBRANCH  10  11
ENDBRANCH   1  10
TORSDOF 14
ENDMDL
MODEL 5
REMARK VINA RESULT:      -6.7      2.921      6.179
REMARK  14 active torsions:
REMARK  status: ('A' for Active; 'I' for Inactive)
REMARK    1  A    between atoms: C_2  and  C_4 
REMARK    2  A    between atoms: C_2  and  O_3 
REMARK    3  A    between atoms: C_4  and  C_5 
REMARK    4  A    between atoms: C_5  and  C_6 
REMARK    5  A    between atoms: C_6  and  C_7 
REMARK    6  A    between atoms: C_7  and  C_8 
REMARK    7  A    between atoms: C_8  and  C_9 
REMARK    8  A    between atoms: C_9  and  C_10 
REMARK    9  A    between atoms: C_10  and  C_11 
REMARK   10  A    between atoms: C_11  and  C_12 
REMARK   11  A    between atoms: C_12  and  C_13 
REMARK   12  A    between atoms: C_13  and  C_14 
REMARK   13  A    between atoms: C_14  and  C_15 
REMARK   14  A    between atoms: C_15  and  C_16 
ROOT
HETATM    1  C   LIG     1      18.056  38.675  22.210  1.00  0.00     0.000 C 
ENDROOT
BRANCH   1   2
HETATM    2  C   LIG     1      18.448  39.358  20.884  1.00  0.00     0.000 C 
BRANCH   2   3
HETATM    3  C   LIG     1      19.868  39.037  20.376  1.00  0.00     0.001 C 
BRANCH   3   4
HETATM    4  C   LIG     1      20.013  38.988  18.843  1.00  0.00     0.010 C 
BRANCH   4   5
HETATM    5  C   LIG     1      18.670  38.804  18.125  1.00  0.00     0.110 C 
BRANCH   5   6
HETATM    6  C   LIG     1      18.695  39.483  16.789  1.00  0.00     0.139 C 
HETATM    7  O   LIG     1      19.091  40.675  16.698  1.00  0.00    -0.650 OA
BRANCH   6   8
HETATM    8  O   LIG     1      18.243  38.823  15.651  1.00  0.00    -0.776 OA
HETATM    9  H   LIG     1      17.867  37.883  15.706  1.00  0.00     0.167 HD
ENDBRANCH   6   8
ENDBRANCH   5   6
ENDBRANCH   4   5
ENDBRANCH   3   4
ENDBRANCH   2   3
ENDBRANCH   1   2
BRANCH   1  10
HETATM   10  C   LIG     1      16.944  37.617  22.091  1.00  0.00     0.000 C 
BRANCH  10  11
HETATM   11  C   LIG     1      17.349  36.423  21.215  1.00  0.00     0.000 C 
BRANCH  11  12
HETATM   12  C   LIG     1      16.995  35.095  21.902  1.00  0.00     0.000 C 
BRANCH  12  13
HETATM   13  C   LIG     1      16.625  35.271  23.386  1.00  0.00     0.000 C 
BRANCH  13  14
HETATM   14  C   LIG     1      17.706  34.816  24.388  1.00  0.00     0.000 C 
BRANCH  14  15
HETATM   15  C   LIG     1      17.303  34.897  25.871  1.00  0.00     0.000 C 
BRANCH  15  16
HETATM   16  C   LIG     1      18.143  35.913  26.664  1.00  0.00    -0.000 C 
BRANCH  16  17
HETATM   17  C   LIG     1      18.538  37.135  25.819  1.00  0.00    -0.005 C 
HETATM   18  C   LIG     1      17.424  38.177  25.726  1.00  0.00     0.005 C 
ENDBRANCH  16  17
ENDBRANCH  15  16
ENDBRANCH  14  15
ENDBRANCH  13  14
ENDBRANCH  12  13
ENDBRANCH  11  12
ENDBRANCH  10  11
ENDBRANCH   1  10
TORSDOF 14
ENDMDL
MODEL 6
REMARK VINA RESULT:      -6.7      2.977      5.930
REMARK  14 active torsions:
REMARK  status: ('A' for Active; 'I' for Inactive)
REMARK    1  A    between atoms: C_2  and  C_4 
REMARK    2  A    between atoms: C_2  and  O_3 
REMARK    3  A    between atoms: C_4  and  C_5 
REMARK    4  A    between atoms: C_5  and  C_6 
REMARK    5  A    between atoms: C_6  and  C_7 
REMARK    6  A    between atoms: C_7  and  C_8 
REMARK    7  A    between atoms: C_8  and  C_9 
REMARK    8  A    between atoms: C_9  and  C_10 
REMARK    9  A    between atoms: C_10  and  C_11 
REMARK   10  A    between atoms: C_11  and  C_12 
REMARK   11  A    between atoms: C_12  and  C_13 
REMARK   12  A    between atoms: C_13  and  C_14 
REMARK   13  A    between atoms: C_14  and  C_15 
REMARK   14  A    between atoms: C_15  and  C_16 
ROOT
HETATM    1  C   LIG     1      17.454  36.277  20.169  1.00  0.00     0.000 C 
ENDROOT
BRANCH   1   2
HETATM    2  C   LIG     1      18.866  36.847  19.930  1.00  0.00     0.000 C 
BRANCH   2   3
HETATM    3  C   LIG     1      19.067  38.310  20.374  1.00  0.00     0.001 C 
BRANCH   3   4
HETATM    4  C   LIG     1      18.741  39.365  19.301  1.00  0.00     0.010 C 
BRANCH   4   5
HETATM    5  C   LIG     1      19.103  38.902  17.883  1.00  0.00     0.110 C 
BRANCH   5   6
HETATM    6  C   LIG     1      18.449  39.785  16.864  1.00  0.00     0.139 C 
HETATM    7  O   LIG     1      18.158  40.975  17.158  1.00  0.00    -0.650 OA
BRANCH   6   8
HETATM    8  O   LIG     1      18.120  39.290  15.606  1.00  0.00    -0.776 OA
HETATM    9  H   LIG     1      18.335  39.813  14.765  1.00  0.00     0.167 HD
ENDBRANCH   6   8
ENDBRANCH   5   6
ENDBRANCH   4   5
ENDBRANCH   3   4
ENDBRANCH   2   3
ENDBRANCH   1   2
BRANCH   1  10
HETATM   10  C   LIG     1      17.367  35.197  21.262  1.00  0.00     0.000 C 
BRANCH  10  11
HETATM   11  C   LIG     1      16.561  35.652  22.488  1.00  0.00     0.000 C 
BRANCH  11  12
HETATM   12  C   LIG     1      15.927  37.030  22.245  1.00  0.00     0.000 C 
BRANCH  12  13
HETATM   13  C   LIG     1      15.908  37.910  23.508  1.00  0.00     0.000 C 
BRANCH  13  14
HETATM   14  C   LIG     1      17.293  38.212  24.115  1.00  0.00     0.000 C 
BRANCH  14  15
HETATM   15  C   LIG     1      17.448  37.857  25.605  1.00  0.00     0.000 C 
BRANCH  15  16
HETATM   16  C   LIG     1      18.689  36.992  25.886  1.00  0.00    -0.000 C 
BRANCH  16  17
HETATM   17  C   LIG     1      18.346  35.706  26.656  1.00  0.00    -0.005 C 
HETATM   18  C   LIG     1      17.357  34.813  25.908  1.00  0.00     0.005 C 
ENDBRANCH  16  17
ENDBRANCH  15  16
ENDBRANCH  14  15
ENDBRANCH  13  14
ENDBRANCH  12  13
ENDBRANCH  11  12
ENDBRANCH  10  11
ENDBRANCH   1  10
TORSDOF 14
ENDMDL
MODEL 7
REMARK VINA RESULT:      -6.5      2.328      4.125
REMARK  14 active torsions:
REMARK  status: ('A' for Active; 'I' for Inactive)
REMARK    1  A    between atoms: C_2  and  C_4 
REMARK    2  A    between atoms: C_2  and  O_3 
REMARK    3  A    between atoms: C_4  and  C_5 
REMARK    4  A    between atoms: C_5  and  C_6 
REMARK    5  A    between atoms: C_6  and  C_7 
REMARK    6  A    between atoms: C_7  and  C_8 
REMARK    7  A    between atoms: C_8  and  C_9 
REMARK    8  A    between atoms: C_9  and  C_10 
REMARK    9  A    between atoms: C_10  and  C_11 
REMARK   10  A    between atoms: C_11  and  C_12 
REMARK   11  A    between atoms: C_12  and  C_13 
REMARK   12  A    between atoms: C_13  and  C_14 
REMARK   13  A    between atoms: C_14  and  C_15 
REMARK   14  A    between atoms: C_15  and  C_16 
ROOT
HETATM    1  C   LIG     1      15.920  34.672  20.039  1.00  0.00     0.000 C 
ENDROOT
BRANCH   1   2
HETATM    2  C   LIG     1      15.254  33.319  20.360  1.00  0.00     0.000 C 
BRANCH   2   3
HETATM    3  C   LIG     1      15.574  32.179  19.373  1.00  0.00     0.001 C 
BRANCH   3   4
HETATM    4  C   LIG     1      14.574  32.025  18.212  1.00  0.00     0.010 C 
BRANCH   4   5
HETATM    5  C   LIG     1      15.175  32.407  16.853  1.00  0.00     0.110 C 
BRANCH   5   6
HETATM    6  C   LIG     1      15.113  33.891  16.654  1.00  0.00     0.139 C 
HETATM    7  O   LIG     1      16.136  34.517  16.269  1.00  0.00    -0.650 OA
BRANCH   6   8
HETATM    8  O   LIG     1      13.945  34.593  16.934  1.00  0.00    -0.776 OA
HETATM    9  H   LIG     1      13.941  35.360  17.597  1.00  0.00     0.167 HD
ENDBRANCH   6   8
ENDBRANCH   5   6
ENDBRANCH   4   5
ENDBRANCH   3   4
ENDBRANCH   2   3
ENDBRANCH   1   2
BRANCH   1  10
HETATM   10  C   LIG     1      15.791  35.737  21.143  1.00  0.00     0.000 C 
BRANCH  10  11
HETATM   11  C   LIG     1      16.573  35.374  22.415  1.00  0.00     0.000 C 
BRANCH  11  12
HETATM   12  C   LIG     1      17.082  36.638  23.124  1.00  0.00     0.000 C 
BRANCH  12  13
HETATM   13  C   LIG     1      16.491  37.932  22.535  1.00  0.00     0.000 C 
BRANCH  13  14
HETATM   14  C   LIG     1      17.399  39.174  22.645  1.00  0.00     0.000 C 
BRANCH  14  15
HETATM   15  C   LIG     1      18.740  39.077  21.894  1.00  0.00     0.000 C 
BRANCH  15  16
HETATM   16  C   LIG     1      18.571  39.114  20.365  1.00  0.00    -0.000 C 
BRANCH  16  17
HETATM   17  C   LIG     1      19.571  38.199  19.641  1.00  0.00    -0.005 C 
HETATM   18  C   LIG     1      19.081  36.755  19.531  1.00  0.00     0.005 C 
ENDBRANCH  16  17
ENDBRANCH  15  16
ENDBRANCH  14  15
ENDBRANCH  13  14
ENDBRANCH  12  13
ENDBRANCH  11  12
ENDBRANCH  10  11
ENDBRANCH   1  10
TORSDOF 14
ENDMDL
MODEL 8
REMARK VINA RESULT:      -6.5      3.047      5.609
REMARK  14 active torsions:
REMARK  status: ('A' for Active; 'I' for Inactive)
REMARK    1  A    between atoms: C_2  and  C_4 
REMARK    2  A    between atoms: C_2  and  O_3 
REMARK    3  A    between atoms: C_4  and  C_5 
REMARK    4  A    between atoms: C_5  and  C_6 
REMARK    5  A    between atoms: C_6  and  C_7 
REMARK    6  A    between atoms: C_7  and  C_8 
REMARK    7  A    between atoms: C_8  and  C_9 
REMARK    8  A    between atoms: C_9  and  C_10 
REMARK    9  A    between atoms: C_10  and  C_11 
REMARK   10  A    between atoms: C_11  and  C_12 
REMARK   11  A    between atoms: C_12  and  C_13 
REMARK   12  A    between atoms: C_13  and  C_14 
REMARK   13  A    between atoms: C_14  and  C_15 
REMARK   14  A    between atoms: C_15  and  C_16 
ROOT
HETATM    1  C   LIG     1      14.768  33.762  21.162  1.00  0.00     0.000 C 
ENDROOT
BRANCH   1   2
HETATM    2  C   LIG     1      15.625  33.093  20.068  1.00  0.00     0.000 C 
BRANCH   2   3
HETATM    3  C   LIG     1      14.879  32.075  19.182  1.00  0.00     0.001 C 
BRANCH   3   4
HETATM    4  C   LIG     1      14.975  32.340  17.668  1.00  0.00     0.010 C 
BRANCH   4   5
HETATM    5  C   LIG     1      13.613  32.266  16.965  1.00  0.00     0.110 C 
BRANCH   5   6
HETATM    6  C   LIG     1      13.425  30.918  16.336  1.00  0.00     0.139 C 
HETATM    7  O   LIG     1      14.163  30.562  15.380  1.00  0.00    -0.650 OA
BRANCH   6   8
HETATM    8  O   LIG     1      12.409  30.072  16.770  1.00  0.00    -0.776 OA
HETATM    9  H   LIG     1      11.942  29.443  16.127  1.00  0.00     0.167 HD
ENDBRANCH   6   8
ENDBRANCH   5   6
ENDBRANCH   4   5
ENDBRANCH   3   4
ENDBRANCH   2   3
ENDBRANCH   1   2
BRANCH   1  10
HETATM   10  C   LIG     1      15.267  35.143  21.623  1.00  0.00     0.000 C 
BRANCH  10  11
HETATM   11  C   LIG     1      16.797  35.269  21.579  1.00  0.00     0.000 C 
BRANCH  11  12
HETATM   12  C   LIG     1      17.231  36.732  21.753  1.00  0.00     0.000 C 
BRANCH  12  13
HETATM   13  C   LIG     1      16.518  37.432  22.924  1.00  0.00     0.000 C 
BRANCH  13  14
HETATM   14  C   LIG     1      17.422  38.319  23.804  1.00  0.00     0.000 C 
BRANCH  14  15
HETATM   15  C   LIG     1      17.374  38.014  25.312  1.00  0.00     0.000 C 
BRANCH  15  16
HETATM   16  C   LIG     1      18.543  37.131  25.780  1.00  0.00    -0.000 C 
BRANCH  16  17
HETATM   17  C   LIG     1      18.077  35.945  26.639  1.00  0.00    -0.005 C 
HETATM   18  C   LIG     1      17.511  34.795  25.804  1.00  0.00     0.005 C 
ENDBRANCH  16  17
ENDBRANCH  15  16
ENDBRANCH  14  15
ENDBRANCH  13  14
ENDBRANCH  12  13
ENDBRANCH  11  12
ENDBRANCH  10  11
ENDBRANCH   1  10
TORSDOF 14
ENDMDL
MODEL 9
REMARK VINA RESULT:      -6.3      2.683      5.429
REMARK  14 active torsions:
REMARK  status: ('A' for Active; 'I' for Inactive)
REMARK    1  A    between atoms: C_2  and  C_4 
REMARK    2  A    between atoms: C_2  and  O_3 
REMARK    3  A    between atoms: C_4  and  C_5 
REMARK    4  A    between atoms: C_5  and  C_6 
REMARK    5  A    between atoms: C_6  and  C_7 
REMARK    6  A    between atoms: C_7  and  C_8 
REMARK    7  A    between atoms: C_8  and  C_9 
REMARK    8  A    between atoms: C_9  and  C_10 
REMARK    9  A    between atoms: C_10  and  C_11 
REMARK   10  A    between atoms: C_11  and  C_12 
REMARK   11  A    between atoms: C_12  and  C_13 
REMARK   12  A    between atoms: C_13  and  C_14 
REMARK   13  A    between atoms: C_14  and  C_15 
REMARK   14  A    between atoms: C_15  and  C_16 
ROOT
HETATM    1  C   LIG     1      14.909  33.813  21.124  1.00  0.00     0.000 C 
ENDROOT
BRANCH   1   2
HETATM    2  C   LIG     1      15.471  33.239  19.808  1.00  0.00     0.000 C 
BRANCH   2   3
HETATM    3  C   LIG     1      14.960  31.834  19.434  1.00  0.00     0.001 C 
BRANCH   3   4
HETATM    4  C   LIG     1      14.330  31.723  18.033  1.00  0.00     0.010 C 
BRANCH   4   5
HETATM    5  C   LIG     1      14.716  32.890  17.115  1.00  0.00     0.110 C 
BRANCH   5   6
HETATM    6  C   LIG     1      15.551  32.399  15.971  1.00  0.00     0.139 C 
HETATM    7  O   LIG     1      15.054  31.610  15.124  1.00  0.00    -0.650 OA
BRANCH   6   8
HETATM    8  O   LIG     1      16.887  32.770  15.860  1.00  0.00    -0.776 OA
HETATM    9  H   LIG     1      17.157  33.746  15.814  1.00  0.00     0.167 HD
ENDBRANCH   6   8
ENDBRANCH   5   6
ENDBRANCH   4   5
ENDBRANCH   3   4
ENDBRANCH   2   3
ENDBRANCH   1   2
BRANCH   1  10
HETATM   10  C   LIG     1      15.233  35.297  21.376  1.00  0.00     0.000 C 
BRANCH  10  11
HETATM   11  C   LIG     1      16.618  35.506  22.005  1.00  0.00     0.000 C 
BRANCH  11  12
HETATM   12  C   LIG     1      17.433  36.534  21.205  1.00  0.00     0.000 C 
BRANCH  12  13
HETATM   13  C   LIG     1      17.485  37.914  21.885  1.00  0.00     0.000 C 
BRANCH  13  14
HETATM   14  C   LIG     1      16.922  37.957  23.321  1.00  0.00     0.000 C 
BRANCH  14  15
HETATM   15  C   LIG     1      17.977  38.050  24.438  1.00  0.00     0.000 C 
BRANCH  15  16
HETATM   16  C   LIG     1      17.484  37.471  25.775  1.00  0.00    -0.000 C 
BRANCH  16  17
HETATM   17  C   LIG     1      18.422  36.387  26.328  1.00  0.00    -0.005 C 
HETATM   18  C   LIG     1      17.899  34.971  26.083  1.00  0.00     0.005 C 
ENDBRANCH  16  17
ENDBRANCH  15  16
ENDBRANCH  14  15
ENDBRANCH  13  14
ENDBRANCH  12  13
ENDBRANCH  11  12
ENDBRANCH  10  11
ENDBRANCH   1  10
TORSDOF 14
ENDMDL
MODEL 10
REMARK VINA RESULT:      -6.3      4.487      7.279
REMARK  14 active torsions:
REMARK  status: ('A' for Active; 'I' for Inactive)
REMARK    1  A    between atoms: C_2  and  C_4 
REMARK    2  A    between atoms: C_2  and  O_3 
REMARK    3  A    between atoms: C_4  and  C_5 
REMARK    4  A    between atoms: C_5  and  C_6 
REMARK    5  A    between atoms: C_6  and  C_7 
REMARK    6  A    between atoms: C_7  and  C_8 
REMARK    7  A    between atoms: C_8  and  C_9 
REMARK    8  A    between atoms: C_9  and  C_10 
REMARK    9  A    between atoms: C_10  and  C_11 
REMARK   10  A    between atoms: C_11  and  C_12 
REMARK   11  A    between atoms: C_12  and  C_13 
REMARK   12  A    between atoms: C_13  and  C_14 
REMARK   13  A    between atoms: C_14  and  C_15 
REMARK   14  A    between atoms: C_15  and  C_16 
ROOT
HETATM    1  C   LIG     1      14.923  31.996  19.254  1.00  0.00     0.000 C 
ENDROOT
BRANCH   1   2
HETATM    2  C   LIG     1      14.979  32.599  17.837  1.00  0.00     0.000 C 
BRANCH   2   3
HETATM    3  C   LIG     1      13.820  32.193  16.905  1.00  0.00     0.001 C 
BRANCH   3   4
HETATM    4  C   LIG     1      14.192  31.174  15.812  1.00  0.00     0.010 C 
BRANCH   4   5
HETATM    5  C   LIG     1      13.005  30.303  15.381  1.00  0.00     0.110 C 
BRANCH   5   6
HETATM    6  C   LIG     1      13.449  29.267  14.394  1.00  0.00     0.139 C 
HETATM    7  O   LIG     1      14.672  29.144  14.119  1.00  0.00    -0.650 OA
BRANCH   6   8
HETATM    8  O   LIG     1      12.517  28.467  13.742  1.00  0.00    -0.776 OA
HETATM    9  H   LIG     1      12.517  28.379  12.732  1.00  0.00     0.167 HD
ENDBRANCH   6   8
ENDBRANCH   5   6
ENDBRANCH   4   5
ENDBRANCH   3   4
ENDBRANCH   2   3
ENDBRANCH   1   2
BRANCH   1  10
HETATM   10  C   LIG     1      15.795  32.714  20.300  1.00  0.00     0.000 C 
BRANCH  10  11
HETATM   11  C   LIG     1      15.161  34.016  20.811  1.00  0.00     0.000 C 
BRANCH  11  12
HETATM   12  C   LIG     1      16.146  35.189  20.690  1.00  0.00     0.000 C 
BRANCH  12  13
HETATM   13  C   LIG     1      17.093  35.301  21.898  1.00  0.00     0.000 C 
BRANCH  13  14
HETATM   14  C   LIG     1      16.975  36.612  22.702  1.00  0.00     0.000 C 
BRANCH  14  15
HETATM   15  C   LIG     1      17.085  36.458  24.230  1.00  0.00     0.000 C 
BRANCH  15  16
HETATM   16  C   LIG     1      17.327  35.003  24.667  1.00  0.00    -0.000 C 
BRANCH  16  17
HETATM   17  C   LIG     1      17.642  34.885  26.166  1.00  0.00    -0.005 C 
HETATM   18  C   LIG     1      18.423  36.084  26.704  1.00  0.00     0.005 C 
ENDBRANCH  16  17
ENDBRANCH  15  16
ENDBRANCH  14  15
ENDBRANCH  13  14
ENDBRANCH  12  13
ENDBRANCH  11  12
ENDBRANCH  10  11
ENDBRANCH   1  10
TORSDOF 14
ENDMDL
MODEL 11
REMARK VINA RESULT:      -6.1      4.450      7.674
REMARK  14 active torsions:
REMARK  status: ('A' for Active; 'I' for Inactive)
REMARK    1  A    between atoms: C_2  and  C_4 
REMARK    2  A    between atoms: C_2  and  O_3 
REMARK    3  A    between atoms: C_4  and  C_5 
REMARK    4  A    between atoms: C_5  and  C_6 
REMARK    5  A    between atoms: C_6  and  C_7 
REMARK    6  A    between atoms: C_7  and  C_8 
REMARK    7  A    between atoms: C_8  and  C_9 
REMARK    8  A    between atoms: C_9  and  C_10 
REMARK    9  A    between atoms: C_10  and  C_11 
REMARK   10  A    between atoms: C_11  and  C_12 
REMARK   11  A    between atoms: C_12  and  C_13 
REMARK   12  A    between atoms: C_13  and  C_14 
REMARK   13  A    between atoms: C_14  and  C_15 
REMARK   14  A    between atoms: C_15  and  C_16 
ROOT
HETATM    1  C   LIG     1      15.042  35.675  21.283  1.00  0.00     0.000 C 
ENDROOT
BRANCH   1   2
HETATM    2  C   LIG     1      16.336  36.325  21.812  1.00  0.00     0.000 C 
BRANCH   2   3
HETATM    3  C   LIG     1      17.548  36.239  20.863  1.00  0.00     0.001 C 
BRANCH   3   4
HETATM    4  C   LIG     1      18.317  37.560  20.672  1.00  0.00     0.010 C 
BRANCH   4   5
HETATM    5  C   LIG     1      19.234  37.541  19.443  1.00  0.00     0.110 C 
BRANCH   5   6
HETATM    6  C   LIG     1      19.511  38.939  18.978  1.00  0.00     0.139 C 
HETATM    7  O   LIG     1      18.570  39.657  18.549  1.00  0.00    -0.650 OA
BRANCH   6   8
HETATM    8  O   LIG     1      20.810  39.438  18.973  1.00  0.00    -0.776 OA
HETATM    9  H   LIG     1      20.989  40.432  19.062  1.00  0.00     0.167 HD
ENDBRANCH   6   8
ENDBRANCH   5   6
ENDBRANCH   4   5
ENDBRANCH   3   4
ENDBRANCH   2   3
ENDBRANCH   1   2
BRANCH   1  10
HETATM   10  C   LIG     1      15.032  34.136  21.306  1.00  0.00     0.000 C 
BRANCH  10  11
HETATM   11  C   LIG     1      15.437  33.516  19.960  1.00  0.00     0.000 C 
BRANCH  11  12
HETATM   12  C   LIG     1      15.410  31.983  20.033  1.00  0.00     0.000 C 
BRANCH  12  13
HETATM   13  C   LIG     1      14.637  31.343  18.865  1.00  0.00     0.000 C 
BRANCH  13  14
HETATM   14  C   LIG     1      14.349  32.284  17.678  1.00  0.00     0.000 C 
BRANCH  14  15
HETATM   15  C   LIG     1      13.157  31.879  16.792  1.00  0.00     0.000 C 
BRANCH  15  16
HETATM   16  C   LIG     1      13.471  30.680  15.881  1.00  0.00    -0.000 C 
BRANCH  16  17
HETATM   17  C   LIG     1      14.576  30.992  14.860  1.00  0.00    -0.005 C 
HETATM   18  C   LIG     1      15.197  29.732  14.255  1.00  0.00     0.005 C 
ENDBRANCH  16  17
ENDBRANCH  15  16
ENDBRANCH  14  15
ENDBRANCH  13  14
ENDBRANCH  12  13
ENDBRANCH  11  12
ENDBRANCH  10  11
ENDBRANCH   1  10
TORSDOF 14
ENDMDL
MODEL 12
REMARK VINA RESULT:      -6.1      2.774      5.926
REMARK  14 active torsions:
REMARK  status: ('A' for Active; 'I' for Inactive)
REMARK    1  A    between atoms: C_2  and  C_4 
REMARK    2  A    between atoms: C_2  and  O_3 
REMARK    3  A    between atoms: C_4  and  C_5 
REMARK    4  A    between atoms: C_5  and  C_6 
REMARK    5  A    between atoms: C_6  and  C_7 
REMARK    6  A    between atoms: C_7  and  C_8 
REMARK    7  A    between atoms: C_8  and  C_9 
REMARK    8  A    between atoms: C_9  and  C_10 
REMARK    9  A    between atoms: C_10  and  C_11 
REMARK   10  A    between atoms: C_11  and  C_12 
REMARK   11  A    between atoms: C_12  and  C_13 
REMARK   12  A    between atoms: C_13  and  C_14 
REMARK   13  A    between atoms: C_14  and  C_15 
REMARK   14  A    between atoms: C_15  and  C_16 
ROOT
HETATM    1  C   LIG     1      18.332  39.068  20.800  1.00  0.00     0.000 C 
ENDROOT
BRANCH   1   2
HETATM    2  C   LIG     1      18.519  39.080  22.330  1.00  0.00     0.000 C 
BRANCH   2   3
HETATM    3  C   LIG     1      17.232  38.862  23.150  1.00  0.00     0.001 C 
BRANCH   3   4
HETATM    4  C   LIG     1      17.441  38.193  24.521  1.00  0.00     0.010 C 
BRANCH   4   5
HETATM    5  C   LIG     1      17.233  36.674  24.480  1.00  0.00     0.110 C 
BRANCH   5   6
HETATM    6  C   LIG     1      17.657  36.054  25.777  1.00  0.00     0.139 C 
HETATM    7  O   LIG     1      18.571  36.588  26.459  1.00  0.00    -0.650 OA
BRANCH   6   8
HETATM    8  O   LIG     1      17.081  34.865  26.214  1.00  0.00    -0.776 OA
HETATM    9  H   LIG     1      16.844  34.127  25.562  1.00  0.00     0.167 HD
ENDBRANCH   6   8
ENDBRANCH   5   6
ENDBRANCH   4   5
ENDBRANCH   3   4
ENDBRANCH   2   3
ENDBRANCH   1   2
BRANCH   1  10
HETATM   10  C   LIG     1      19.155  38.004  20.053  1.00  0.00     0.000 C 
BRANCH  10  11
HETATM   11  C   LIG     1      18.323  36.775  19.659  1.00  0.00     0.000 C 
BRANCH  11  12
HETATM   12  C   LIG     1      17.811  36.038  20.905  1.00  0.00     0.000 C 
BRANCH  12  13
HETATM   13  C   LIG     1      16.287  35.823  20.888  1.00  0.00     0.000 C 
BRANCH  13  14
HETATM   14  C   LIG     1      15.784  34.786  19.864  1.00  0.00     0.000 C 
BRANCH  14  15
HETATM   15  C   LIG     1      15.372  33.425  20.456  1.00  0.00     0.000 C 
BRANCH  15  16
HETATM   16  C   LIG     1      15.451  32.280  19.431  1.00  0.00    -0.000 C 
BRANCH  16  17
HETATM   17  C   LIG     1      14.990  32.713  18.031  1.00  0.00    -0.005 C 
HETATM   18  C   LIG     1      14.044  31.703  17.380  1.00  0.00     0.005 C 
ENDBRANCH  16  17
ENDBRANCH  15  16
ENDBRANCH  14  15
ENDBRANCH  13  14
ENDBRANCH  12  13
ENDBRANCH  11  12
ENDBRANCH  10  11
ENDBRANCH   1  10
TORSDOF 14
ENDMDL
MODEL 13
REMARK VINA RESULT:      -6.1      3.028      5.655
REMARK  14 active torsions:
REMARK  status: ('A' for Active; 'I' for Inactive)
REMARK    1  A    between atoms: C_2  and  C_4 
REMARK    2  A    between atoms: C_2  and  O_3 
REMARK    3  A    between atoms: C_4  and  C_5 
REMARK    4  A    between atoms: C_5  and  C_6 
REMARK    5  A    between atoms: C_6  and  C_7 
REMARK    6  A    between atoms: C_7  and  C_8 
REMARK    7  A    between atoms: C_8  and  C_9 
REMARK    8  A    between atoms: C_9  and  C_10 
REMARK    9  A    between atoms: C_10  and  C_11 
REMARK   10  A    between atoms: C_11  and  C_12 
REMARK   11  A    between atoms: C_12  and  C_13 
REMARK   12  A    between atoms: C_13  and  C_14 
REMARK   13  A    between atoms: C_14  and  C_15 
REMARK   14  A    between atoms: C_15  and  C_16 
ROOT
HETATM    1  C   LIG     1      17.971  39.093  22.035  1.00  0.00     0.000 C 
ENDROOT
BRANCH   1   2
HETATM    2  C   LIG     1      18.586  38.314  20.855  1.00  0.00     0.000 C 
BRANCH   2   3
HETATM    3  C   LIG     1      19.786  39.000  20.171  1.00  0.00     0.001 C 
BRANCH   3   4
HETATM    4  C   LIG     1      19.747  38.992  18.632  1.00  0.00     0.010 C 
BRANCH   4   5
HETATM    5  C   LIG     1      18.424  39.526  18.068  1.00  0.00     0.110 C 
BRANCH   5   6
HETATM    6  C   LIG     1      18.583  39.894  16.624  1.00  0.00     0.139 C 
HETATM    7  O   LIG     1      18.945  41.058  16.308  1.00  0.00    -0.650 OA
BRANCH   6   8
HETATM    8  O   LIG     1      18.293  38.972  15.623  1.00  0.00    -0.776 OA
HETATM    9  H   LIG     1      18.210  39.259  14.654  1.00  0.00     0.167 HD
ENDBRANCH   6   8
ENDBRANCH   5   6
ENDBRANCH   4   5
ENDBRANCH   3   4
ENDBRANCH   2   3
ENDBRANCH   1   2
BRANCH   1  10
HETATM   10  C   LIG     1      18.253  38.495  23.425  1.00  0.00     0.000 C 
BRANCH  10  11
HETATM   11  C   LIG     1      17.147  38.806  24.443  1.00  0.00     0.000 C 
BRANCH  11  12
HETATM   12  C   LIG     1      17.427  38.113  25.785  1.00  0.00     0.000 C 
BRANCH  12  13
HETATM   13  C   LIG     1      18.276  36.838  25.633  1.00  0.00     0.000 C 
BRANCH  13  14
HETATM   14  C   LIG     1      17.483  35.516  25.672  1.00  0.00     0.000 C 
BRANCH  14  15
HETATM   15  C   LIG     1      17.434  34.739  24.343  1.00  0.00     0.000 C 
BRANCH  15  16
HETATM   16  C   LIG     1      16.635  35.473  23.253  1.00  0.00    -0.000 C 
BRANCH  16  17
HETATM   17  C   LIG     1      17.096  35.099  21.835  1.00  0.00    -0.005 C 
HETATM   18  C   LIG     1      15.992  34.438  21.009  1.00  0.00     0.005 C 
ENDBRANCH  16  17
ENDBRANCH  15  16
ENDBRANCH  14  15
ENDBRANCH  13  14
ENDBRANCH  12  13
ENDBRANCH  11  12
ENDBRANCH  10  11
ENDBRANCH   1  10
TORSDOF 14
ENDMDL
MODEL 14
REMARK VINA RESULT:      -5.9      3.715      5.612
REMARK  14 active torsions:
REMARK  status: ('A' for Active; 'I' for Inactive)
REMARK    1  A    between atoms: C_2  and  C_4 
REMARK    2  A    between atoms: C_2  and  O_3 
REMARK    3  A    between atoms: C_4  and  C_5 
REMARK    4  A    between atoms: C_5  and  C_6 
REMARK    5  A    between atoms: C_6  and  C_7 
REMARK    6  A    between atoms: C_7  and  C_8 
REMARK    7  A    between atoms: C_8  and  C_9 
REMARK    8  A    between atoms: C_9  and  C_10 
REMARK    9  A    between atoms: C_10  and  C_11 
REMARK   10  A    between atoms: C_11  and  C_12 
REMARK   11  A    between atoms: C_12  and  C_13 
REMARK   12  A    between atoms: C_13  and  C_14 
REMARK   13  A    between atoms: C_14  and  C_15 
REMARK   14  A    between atoms: C_15  and  C_16 
ROOT
HETATM    1  C   LIG     1      15.661  33.124  20.082  1.00  0.00     0.000 C 
ENDROOT
BRANCH   1   2
HETATM    2  C   LIG     1      14.949  32.357  18.949  1.00  0.00     0.000 C 
BRANCH   2   3
HETATM    3  C   LIG     1      15.020  33.024  17.561  1.00  0.00     0.001 C 
BRANCH   3   4
HETATM    4  C   LIG     1      15.326  32.065  16.395  1.00  0.00     0.010 C 
BRANCH   4   5
HETATM    5  C   LIG     1      16.217  32.701  15.320  1.00  0.00     0.110 C 
BRANCH   5   6
HETATM    6  C   LIG     1      16.050  31.986  14.014  1.00  0.00     0.139 C 
HETATM    7  O   LIG     1      15.162  31.102  13.891  1.00  0.00    -0.650 OA
BRANCH   6   8
HETATM    8  O   LIG     1      16.899  32.257  12.946  1.00  0.00    -0.776 OA
HETATM    9  H   LIG     1      16.675  31.947  12.007  1.00  0.00     0.167 HD
ENDBRANCH   6   8
ENDBRANCH   5   6
ENDBRANCH   4   5
ENDBRANCH   3   4
ENDBRANCH   2   3
ENDBRANCH   1   2
BRANCH   1  10
HETATM   10  C   LIG     1      15.727  34.650  19.890  1.00  0.00     0.000 C 
BRANCH  10  11
HETATM   11  C   LIG     1      15.318  35.427  21.150  1.00  0.00     0.000 C 
BRANCH  11  12
HETATM   12  C   LIG     1      16.555  35.923  21.913  1.00  0.00     0.000 C 
BRANCH  12  13
HETATM   13  C   LIG     1      16.305  37.246  22.660  1.00  0.00     0.000 C 
BRANCH  13  14
HETATM   14  C   LIG     1      17.529  38.180  22.764  1.00  0.00     0.000 C 
BRANCH  14  15
HETATM   15  C   LIG     1      17.769  39.084  21.541  1.00  0.00     0.000 C 
BRANCH  15  16
HETATM   16  C   LIG     1      19.191  38.948  20.970  1.00  0.00    -0.000 C 
BRANCH  16  17
HETATM   17  C   LIG     1      19.198  38.386  19.539  1.00  0.00    -0.005 C 
HETATM   18  C   LIG     1      19.162  36.858  19.503  1.00  0.00     0.005 C 
ENDBRANCH  16  17
ENDBRANCH  15  16
ENDBRANCH  14  15
ENDBRANCH  13  14
ENDBRANCH  12  13
ENDBRANCH  11  12
ENDBRANCH  10  11
ENDBRANCH   1  10
TORSDOF 14
ENDMDL
MODEL 15
REMARK VINA RESULT:      -5.9      3.600      6.583
REMARK  14 active torsions:
REMARK  status: ('A' for Active; 'I' for Inactive)
REMARK    1  A    between atoms: C_2  and  C_4 
REMARK    2  A    between atoms: C_2  and  O_3 
REMARK    3  A    between atoms: C_4  and  C_5 
REMARK    4  A    between atoms: C_5  and  C_6 
REMARK    5  A    between atoms: C_6  and  C_7 
REMARK    6  A    between atoms: C_7  and  C_8 
REMARK    7  A    between atoms: C_8  and  C_9 
REMARK    8  A    between atoms: C_9  and  C_10 
REMARK    9  A    between atoms: C_10  and  C_11 
REMARK   10  A    between atoms: C_11  and  C_12 
REMARK   11  A    between atoms: C_12  and  C_13 
REMARK   12  A    between atoms: C_13  and  C_14 
REMARK   13  A    between atoms: C_14  and  C_15 
REMARK   14  A    between atoms: C_15  and  C_16 
ROOT
HETATM    1  C   LIG     1      17.293  35.146  22.685  1.00  0.00     0.000 C 
ENDROOT
BRANCH   1   2
HETATM    2  C   LIG     1      16.677  35.179  24.098  1.00  0.00     0.000 C 
BRANCH   2   3
HETATM    3  C   LIG     1      17.660  34.883  25.249  1.00  0.00     0.001 C 
BRANCH   3   4
HETATM    4  C   LIG     1      18.322  36.126  25.873  1.00  0.00     0.010 C 
BRANCH   4   5
HETATM    5  C   LIG     1      17.396  37.350  25.883  1.00  0.00     0.110 C 
BRANCH   5   6
HETATM    6  C   LIG     1      17.697  38.241  24.716  1.00  0.00     0.139 C 
HETATM    7  O   LIG     1      16.755  38.784  24.081  1.00  0.00    -0.650 OA
BRANCH   6   8
HETATM    8  O   LIG     1      19.009  38.439  24.297  1.00  0.00    -0.776 OA
HETATM    9  H   LIG     1      19.214  38.910  23.424  1.00  0.00     0.167 HD
ENDBRANCH   6   8
ENDBRANCH   5   6
ENDBRANCH   4   5
ENDBRANCH   3   4
ENDBRANCH   2   3
ENDBRANCH   1   2
BRANCH   1  10
HETATM   10  C   LIG     1      16.650  36.112  21.674  1.00  0.00     0.000 C 
BRANCH  10  11
HETATM   11  C   LIG     1      15.342  35.570  21.080  1.00  0.00     0.000 C 
BRANCH  11  12
HETATM   12  C   LIG     1      15.627  34.566  19.953  1.00  0.00     0.000 C 
BRANCH  12  13
HETATM   13  C   LIG     1      15.364  33.108  20.371  1.00  0.00     0.000 C 
BRANCH  13  14
HETATM   14  C   LIG     1      15.264  32.102  19.206  1.00  0.00     0.000 C 
BRANCH  14  15
HETATM   15  C   LIG     1      14.835  32.702  17.855  1.00  0.00     0.000 C 
BRANCH  15  16
HETATM   16  C   LIG     1      13.751  31.870  17.150  1.00  0.00    -0.000 C 
BRANCH  16  17
HETATM   17  C   LIG     1      14.292  31.114  15.926  1.00  0.00    -0.005 C 
HETATM   18  C   LIG     1      13.224  30.270  15.230  1.00  0.00     0.005 C 
ENDBRANCH  16  17
ENDBRANCH  15  16
ENDBRANCH  14  15
ENDBRANCH  13  14
ENDBRANCH  12  13
ENDBRANCH  11  12
ENDBRANCH  10  11
ENDBRANCH   1  10
TORSDOF 14
ENDMDL
MODEL 16
REMARK VINA RESULT:      -5.8      4.274      7.373
REMARK  14 active torsions:
REMARK  status: ('A' for Active; 'I' for Inactive)
REMARK    1  A    between atoms: C_2  and  C_4 
REMARK    2  A    between atoms: C_2  and  O_3 
REMARK    3  A    between atoms: C_4  and  C_5 
REMARK    4  A    between atoms: C_5  and  C_6 
REMARK    5  A    between atoms: C_6  and  C_7 
REMARK    6  A    between atoms: C_7  and  C_8 
REMARK    7  A    between atoms: C_8  and  C_9 
REMARK    8  A    between atoms: C_9  and  C_10 
REMARK    9  A    between atoms: C_10  and  C_11 
REMARK   10  A    between atoms: C_11  and  C_12 
REMARK   11  A    between atoms: C_12  and  C_13 
REMARK   12  A    between atoms: C_13  and  C_14 
REMARK   13  A    between atoms: C_14  and  C_15 
REMARK   14  A    between atoms: C_15  and  C_16 
ROOT
HETATM    1  C   LIG     1      16.282  35.195  21.801  1.00  0.00     0.000 C 
ENDROOT
BRANCH   1   2
HETATM    2  C   LIG     1      17.030  35.986  20.709  1.00  0.00     0.000 C 
BRANCH   2   3
HETATM    3  C   LIG     1      17.762  37.251  21.200  1.00  0.00     0.001 C 
BRANCH   3   4
HETATM    4  C   LIG     1      16.999  38.074  22.255  1.00  0.00     0.010 C 
BRANCH   4   5
HETATM    5  C   LIG     1      17.900  38.552  23.402  1.00  0.00     0.110 C 
BRANCH   5   6
HETATM    6  C   LIG     1      17.462  37.941  24.698  1.00  0.00     0.139 C 
HETATM    7  O   LIG     1      17.270  36.699  24.774  1.00  0.00    -0.650 OA
BRANCH   6   8
HETATM    8  O   LIG     1      17.221  38.741  25.811  1.00  0.00    -0.776 OA
HETATM    9  H   LIG     1      17.550  39.699  25.848  1.00  0.00     0.167 HD
ENDBRANCH   6   8
ENDBRANCH   5   6
ENDBRANCH   4   5
ENDBRANCH   3   4
ENDBRANCH   2   3
ENDBRANCH   1   2
BRANCH   1  10
HETATM   10  C   LIG     1      15.282  34.150  21.275  1.00  0.00     0.000 C 
BRANCH  10  11
HETATM   11  C   LIG     1      15.590  33.700  19.840  1.00  0.00     0.000 C 
BRANCH  11  12
HETATM   12  C   LIG     1      15.591  32.167  19.736  1.00  0.00     0.000 C 
BRANCH  12  13
HETATM   13  C   LIG     1      14.579  31.638  18.704  1.00  0.00     0.000 C 
BRANCH  13  14
HETATM   14  C   LIG     1      14.348  32.554  17.485  1.00  0.00     0.000 C 
BRANCH  14  15
HETATM   15  C   LIG     1      15.247  32.267  16.268  1.00  0.00     0.000 C 
BRANCH  15  16
HETATM   16  C   LIG     1      14.586  31.325  15.247  1.00  0.00    -0.000 C 
BRANCH  16  17
HETATM   17  C   LIG     1      15.589  30.350  14.612  1.00  0.00    -0.005 C 
HETATM   18  C   LIG     1      14.913  29.139  13.967  1.00  0.00     0.005 C 
ENDBRANCH  16  17
ENDBRANCH  15  16
ENDBRANCH  14  15
ENDBRANCH  13  14
ENDBRANCH  12  13
ENDBRANCH  11  12
ENDBRANCH  10  11
ENDBRANCH   1  10
TORSDOF 14
ENDMDL
MODEL 17
REMARK VINA RESULT:      -5.7      4.381      7.486
REMARK  14 active torsions:
REMARK  status: ('A' for Active; 'I' for Inactive)
REMARK    1  A    between atoms: C_2  and  C_4 
REMARK    2  A    between atoms: C_2  and  O_3 
REMARK    3  A    between atoms: C_4  and  C_5 
REMARK    4  A    between atoms: C_5  and  C_6 
REMARK    5  A    between atoms: C_6  and  C_7 
REMARK    6  A    between atoms: C_7  and  C_8 
REMARK    7  A    between atoms: C_8  and  C_9 
REMARK    8  A    between atoms: C_9  and  C_10 
REMARK    9  A    between atoms: C_10  and  C_11 
REMARK   10  A    between atoms: C_11  and  C_12 
REMARK   11  A    between atoms: C_12  and  C_13 
REMARK   12  A    between atoms: C_13  and  C_14 
REMARK   13  A    between atoms: C_14  and  C_15 
REMARK   14  A    between atoms: C_15  and  C_16 
ROOT
HETATM    1  C   LIG     1      14.213  31.811  17.749  1.00  0.00     0.000 C 
ENDROOT
BRANCH   1   2
HETATM    2  C   LIG     1      15.055  32.818  16.941  1.00  0.00     0.000 C 
BRANCH   2   3
HETATM    3  C   LIG     1      15.536  32.316  15.565  1.00  0.00     0.001 C 
BRANCH   3   4
HETATM    4  C   LIG     1      16.989  32.683  15.212  1.00  0.00     0.010 C 
BRANCH   4   5
HETATM    5  C   LIG     1      17.208  32.858  13.703  1.00  0.00     0.110 C 
BRANCH   5   6
HETATM    6  C   LIG     1      17.574  34.278  13.391  1.00  0.00     0.139 C 
HETATM    7  O   LIG     1      17.526  35.152  14.296  1.00  0.00    -0.650 OA
BRANCH   6   8
HETATM    8  O   LIG     1      17.923  34.650  12.097  1.00  0.00    -0.776 OA
HETATM    9  H   LIG     1      18.884  34.597  11.779  1.00  0.00     0.167 HD
ENDBRANCH   6   8
ENDBRANCH   5   6
ENDBRANCH   4   5
ENDBRANCH   3   4
ENDBRANCH   2   3
ENDBRANCH   1   2
BRANCH   1  10
HETATM   10  C   LIG     1      14.629  31.651  19.222  1.00  0.00     0.000 C 
BRANCH  10  11
HETATM   11  C   LIG     1      15.805  32.560  19.612  1.00  0.00     0.000 C 
BRANCH  11  12
HETATM   12  C   LIG     1      15.348  33.663  20.578  1.00  0.00     0.000 C 
BRANCH  12  13
HETATM   13  C   LIG     1      15.837  35.062  20.162  1.00  0.00     0.000 C 
BRANCH  13  14
HETATM   14  C   LIG     1      16.874  35.700  21.110  1.00  0.00     0.000 C 
BRANCH  14  15
HETATM   15  C   LIG     1      16.284  36.497  22.287  1.00  0.00     0.000 C 
BRANCH  15  16
HETATM   16  C   LIG     1      17.145  36.407  23.559  1.00  0.00    -0.000 C 
BRANCH  16  17
HETATM   17  C   LIG     1      17.172  34.989  24.151  1.00  0.00    -0.005 C 
HETATM   18  C   LIG     1      17.426  34.981  25.658  1.00  0.00     0.005 C 
ENDBRANCH  16  17
ENDBRANCH  15  16
ENDBRANCH  14  15
ENDBRANCH  13  14
ENDBRANCH  12  13
ENDBRANCH  11  12
ENDBRANCH  10  11
ENDBRANCH   1  10
TORSDOF 14
ENDMDL
MODEL 18
REMARK VINA RESULT:      -5.7      5.198      8.620
REMARK  14 active torsions:
REMARK  status: ('A' for Active; 'I' for Inactive)
REMARK    1  A    between atoms: C_2  and  C_4 
REMARK    2  A    between atoms: C_2  and  O_3 
REMARK    3  A    between atoms: C_4  and  C_5 
REMARK    4  A    between atoms: C_5  and  C_6 
REMARK    5  A    between atoms: C_6  and  C_7 
REMARK    6  A    between atoms: C_7  and  C_8 
REMARK    7  A    between atoms: C_8  and  C_9 
REMARK    8  A    between atoms: C_9  and  C_10 
REMARK    9  A    between atoms: C_10  and  C_11 
REMARK   10  A    between atoms: C_11  and  C_12 
REMARK   11  A    between atoms: C_12  and  C_13 
REMARK   12  A    between atoms: C_13  and  C_14 
REMARK   13  A    between atoms: C_14  and  C_15 
REMARK   14  A    between atoms: C_15  and  C_16 
ROOT
HETATM    1  C   LIG     1      15.302  32.258  18.008  1.00  0.00     0.000 C 
ENDROOT
BRANCH   1   2
HETATM    2  C   LIG     1      15.022  32.352  19.521  1.00  0.00     0.000 C 
BRANCH   2   3
HETATM    3  C   LIG     1      15.729  33.513  20.248  1.00  0.00     0.001 C 
BRANCH   3   4
HETATM    4  C   LIG     1      14.873  34.232  21.308  1.00  0.00     0.010 C 
BRANCH   4   5
HETATM    5  C   LIG     1      15.197  35.728  21.419  1.00  0.00     0.110 C 
BRANCH   5   6
HETATM    6  C   LIG     1      16.617  35.921  21.857  1.00  0.00     0.139 C 
HETATM    7  O   LIG     1      17.036  35.356  22.901  1.00  0.00    -0.650 OA
BRANCH   6   8
HETATM    8  O   LIG     1      17.469  36.759  21.143  1.00  0.00    -0.776 OA
HETATM    9  H   LIG     1      18.175  36.381  20.522  1.00  0.00     0.167 HD
ENDBRANCH   6   8
ENDBRANCH   5   6
ENDBRANCH   4   5
ENDBRANCH   3   4
ENDBRANCH   2   3
ENDBRANCH   1   2
BRANCH   1  10
HETATM   10  C   LIG     1      14.316  33.033  17.116  1.00  0.00     0.000 C 
BRANCH  10  11
HETATM   11  C   LIG     1      13.081  32.205  16.733  1.00  0.00     0.000 C 
BRANCH  11  12
HETATM   12  C   LIG     1      13.446  30.723  16.564  1.00  0.00     0.000 C 
BRANCH  12  13
HETATM   13  C   LIG     1      12.995  30.146  15.210  1.00  0.00     0.000 C 
BRANCH  13  14
HETATM   14  C   LIG     1      14.138  29.719  14.267  1.00  0.00     0.000 C 
BRANCH  14  15
HETATM   15  C   LIG     1      15.489  30.416  14.515  1.00  0.00     0.000 C 
BRANCH  15  16
HETATM   16  C   LIG     1      15.841  31.440  13.423  1.00  0.00    -0.000 C 
BRANCH  16  17
HETATM   17  C   LIG     1      16.330  32.776  14.006  1.00  0.00    -0.005 C 
HETATM   18  C   LIG     1      17.446  32.599  15.036  1.00  0.00     0.005 C 
ENDBRANCH  16  17
ENDBRANCH  15  16
ENDBRANCH  14  15
ENDBRANCH  13  14
ENDBRANCH  12  13
ENDBRANCH  11  12
ENDBRANCH  10  11
ENDBRANCH   1  10
TORSDOF 14
ENDMDL
MODEL 19
REMARK VINA RESULT:      -5.6      4.826      7.753
REMARK  14 active torsions:
REMARK  status: ('A' for Active; 'I' for Inactive)
REMARK    1  A    between atoms: C_2  and  C_4 
REMARK    2  A    between atoms: C_2  and  O_3 
REMARK    3  A    between atoms: C_4  and  C_5 
REMARK    4  A    between atoms: C_5  and  C_6 
REMARK    5  A    between atoms: C_6  and  C_7 
REMARK    6  A    between atoms: C_7  and  C_8 
REMARK    7  A    between atoms: C_8  and  C_9 
REMARK    8  A    between atoms: C_9  and  C_10 
REMARK    9  A    between atoms: C_10  and  C_11 
REMARK   10  A    between atoms: C_11  and  C_12 
REMARK   11  A    between atoms: C_12  and  C_13 
REMARK   12  A    between atoms: C_13  and  C_14 
REMARK   13  A    between atoms: C_14  and  C_15 
REMARK   14  A    between atoms: C_15  and  C_16 
ROOT
HETATM    1  C   LIG     1      13.626  32.061  17.098  1.00  0.00     0.000 C 
ENDROOT
BRANCH   1   2
HETATM    2  C   LIG     1      13.637  30.701  16.371  1.00  0.00     0.000 C 
BRANCH   2   3
HETATM    3  C   LIG     1      14.300  30.708  14.979  1.00  0.00     0.001 C 
BRANCH   3   4
HETATM    4  C   LIG     1      15.563  31.582  14.866  1.00  0.00     0.010 C 
BRANCH   4   5
HETATM    5  C   LIG     1      15.977  31.843  13.412  1.00  0.00     0.110 C 
BRANCH   5   6
HETATM    6  C   LIG     1      17.008  32.929  13.350  1.00  0.00     0.139 C 
HETATM    7  O   LIG     1      18.055  32.841  14.043  1.00  0.00    -0.650 OA
BRANCH   6   8
HETATM    8  O   LIG     1      16.798  34.059  12.566  1.00  0.00    -0.776 OA
HETATM    9  H   LIG     1      16.931  34.031  11.561  1.00  0.00     0.167 HD
ENDBRANCH   6   8
ENDBRANCH   5   6
ENDBRANCH   4   5
ENDBRANCH   3   4
ENDBRANCH   2   3
ENDBRANCH   1   2
BRANCH   1  10
HETATM   10  C   LIG     1      14.855  32.333  17.984  1.00  0.00     0.000 C 
BRANCH  10  11
HETATM   11  C   LIG     1      14.759  31.660  19.361  1.00  0.00     0.000 C 
BRANCH  11  12
HETATM   12  C   LIG     1      14.855  32.700  20.486  1.00  0.00     0.000 C 
BRANCH  12  13
HETATM   13  C   LIG     1      15.621  33.967  20.065  1.00  0.00     0.000 C 
BRANCH  13  14
HETATM   14  C   LIG     1      16.284  34.744  21.221  1.00  0.00     0.000 C 
BRANCH  14  15
HETATM   15  C   LIG     1      17.216  35.892  20.791  1.00  0.00     0.000 C 
BRANCH  15  16
HETATM   16  C   LIG     1      17.328  36.999  21.853  1.00  0.00    -0.000 C 
BRANCH  16  17
HETATM   17  C   LIG     1      17.836  38.326  21.267  1.00  0.00    -0.005 C 
HETATM   18  C   LIG     1      18.531  39.206  22.307  1.00  0.00     0.005 C 
ENDBRANCH  16  17
ENDBRANCH  15  16
ENDBRANCH  14  15
ENDBRANCH  13  14
ENDBRANCH  12  13
ENDBRANCH  11  12
ENDBRANCH  10  11
ENDBRANCH   1  10
TORSDOF 14
ENDMDL
MODEL 20
REMARK VINA RESULT:      -5.5      4.277      6.362
REMARK  14 active torsions:
REMARK  status: ('A' for Active; 'I' for Inactive)
REMARK    1  A    between atoms: C_2  and  C_4 
REMARK    2  A    between atoms: C_2  and  O_3 
REMARK    3  A    between atoms: C_4  and  C_5 
REMARK    4  A    between atoms: C_5  and  C_6 
REMARK    5  A    between atoms: C_6  and  C_7 
REMARK    6  A    between atoms: C_7  and  C_8 
REMARK    7  A    between atoms: C_8  and  C_9 
REMARK    8  A    between atoms: C_9  and  C_10 
REMARK    9  A    between atoms: C_10  and  C_11 
REMARK   10  A    between atoms: C_11  and  C_12 
REMARK   11  A    between atoms: C_12  and  C_13 
REMARK   12  A    between atoms: C_13  and  C_14 
REMARK   13  A    between atoms: C_14  and  C_15 
REMARK   14  A    between atoms: C_15  and  C_16 
ROOT
HETATM    1  C   LIG     1      15.297  33.579  18.843  1.00  0.00     0.000 C 
ENDROOT
BRANCH   1   2
HETATM    2  C   LIG     1      14.952  32.199  18.249  1.00  0.00     0.000 C 
BRANCH   2   3
HETATM    3  C   LIG     1      13.868  32.210  17.152  1.00  0.00     0.001 C 
BRANCH   3   4
HETATM    4  C   LIG     1      13.885  30.991  16.211  1.00  0.00     0.010 C 
BRANCH   4   5
HETATM    5  C   LIG     1      14.924  31.120  15.090  1.00  0.00     0.110 C 
BRANCH   5   6
HETATM    6  C   LIG     1      14.748  30.020  14.087  1.00  0.00     0.139 C 
HETATM    7  O   LIG     1      15.663  29.775  13.257  1.00  0.00    -0.650 OA
BRANCH   6   8
HETATM    8  O   LIG     1      13.563  29.294  14.034  1.00  0.00    -0.776 OA
HETATM    9  H   LIG     1      12.663  29.761  14.034  1.00  0.00     0.167 HD
ENDBRANCH   6   8
ENDBRANCH   5   6
ENDBRANCH   4   5
ENDBRANCH   3   4
ENDBRANCH   2   3
ENDBRANCH   1   2
BRANCH   1  10
HETATM   10  C   LIG     1      15.660  33.568  20.339  1.00  0.00     0.000 C 
BRANCH  10  11
HETATM   11  C   LIG     1      14.899  34.631  21.145  1.00  0.00     0.000 C 
BRANCH  11  12
HETATM   12  C   LIG     1      15.873  35.565  21.877  1.00  0.00     0.000 C 
BRANCH  12  13
HETATM   13  C   LIG     1      17.297  35.518  21.295  1.00  0.00     0.000 C 
BRANCH  13  14
HETATM   14  C   LIG     1      17.860  36.878  20.834  1.00  0.00     0.000 C 
BRANCH  14  15
HETATM   15  C   LIG     1      18.739  36.830  19.571  1.00  0.00     0.000 C 
BRANCH  15  16
HETATM   16  C   LIG     1      19.604  38.090  19.399  1.00  0.00    -0.000 C 
BRANCH  16  17
HETATM   17  C   LIG     1      18.810  39.275  18.827  1.00  0.00    -0.005 C 
HETATM   18  C   LIG     1      18.892  39.363  17.303  1.00  0.00     0.005 C 
ENDBRANCH  16  17
ENDBRANCH  15  16
ENDBRANCH  14  15
ENDBRANCH  13  14
ENDBRANCH  12  13
ENDBRANCH  11  12
ENDBRANCH  10  11
ENDBRANCH   1  10
TORSDOF 14
ENDMDL
