MODEL 1
REMARK VINA RESULT:      -7.2      0.000      0.000
REMARK  3 active torsions:
REMARK  status: ('A' for Active; 'I' for Inactive)
REMARK       I    between atoms: C_2  and  N_7 
REMARK    1  A    between atoms: C_2  and  O_3 
REMARK    2  A    between atoms: O_3  and  C_4 
REMARK    3  A    between atoms: N_7  and  C_8 
ROOT
HETATM    1  O   LIG     1      14.668  34.232  21.587  1.00  0.00    -0.238 OA
HETATM    2  C   LIG     1      15.634  34.423  20.798  1.00  0.00     0.365 C 
HETATM    3  N   LIG     1      16.830  35.070  21.254  1.00  0.00    -0.303 N 
HETATM    4  H   LIG     1      17.685  34.964  20.663  1.00  0.00     0.171 HD
ENDROOT
BRANCH   3   5
HETATM    5  C   LIG     1      16.952  35.754  22.512  1.00  0.00     0.038 A 
HETATM    6  C   LIG     1      16.698  37.134  22.571  1.00  0.00     0.029 A 
HETATM    7  C   LIG     1      16.788  37.819  23.787  1.00  0.00     0.004 A 
HETATM    8  C   LIG     1      17.117  37.130  24.956  1.00  0.00     0.024 A 
HETATM    9  C   LIG     1      17.348  35.752  24.915  1.00  0.00     0.036 A 
HETATM   10  C   LIG     1      17.259  35.063  23.699  1.00  0.00     0.053 A 
HETATM   11 CL   LIG     1      17.736  34.883  26.389  1.00  0.00    -0.084 Cl
ENDBRANCH   3   5
BRANCH   2  12
HETATM   12  O   LIG     1      15.573  33.962  19.478  1.00  0.00    -0.299 OA
BRANCH  12  13
HETATM   13  C   LIG     1      15.019  32.698  19.109  1.00  0.00     0.125 C 
HETATM   14  C   LIG     1      15.797  31.592  19.819  1.00  0.00     0.040 C 
HETATM   15  C   LIG     1      15.088  32.512  17.591  1.00  0.00     0.040 C 
ENDBRANCH  12  13
ENDBRANCH   2  12
TORSDOF 3
ENDMDL
MODEL 2
REMARK VINA RESULT:      -7.0      2.794      3.359
REMARK  3 active torsions:
REMARK  status: ('A' for Active; 'I' for Inactive)
REMARK       I    between atoms: C_2  and  N_7 
REMARK    1  A    between atoms: C_2  and  O_3 
REMARK    2  A    between atoms: O_3  and  C_4 
REMARK    3  A    between atoms: N_7  and  C_8 
ROOT
HETATM    1  O   LIG     1      14.504  35.816  21.220  1.00  0.00    -0.238 OA
HETATM    2  C   LIG     1      15.347  34.882  21.120  1.00  0.00     0.365 C 
HETATM    3  N   LIG     1      16.748  35.145  21.274  1.00  0.00    -0.303 N 
HETATM    4  H   LIG     1      17.371  34.326  21.455  1.00  0.00     0.171 HD
ENDROOT
BRANCH   3   5
HETATM    5  C   LIG     1      17.327  36.462  21.304  1.00  0.00     0.038 A 
HETATM    6  C   LIG     1      17.022  37.322  22.370  1.00  0.00     0.029 A 
HETATM    7  C   LIG     1      17.588  38.599  22.434  1.00  0.00     0.004 A 
HETATM    8  C   LIG     1      18.474  39.022  21.442  1.00  0.00     0.024 A 
HETATM    9  C   LIG     1      18.804  38.166  20.387  1.00  0.00     0.036 A 
HETATM   10  C   LIG     1      18.239  36.887  20.320  1.00  0.00     0.053 A 
HETATM   11 CL   LIG     1      19.938  38.689  19.154  1.00  0.00    -0.084 Cl
ENDBRANCH   3   5
BRANCH   2  12
HETATM   12  O   LIG     1      14.923  33.565  20.909  1.00  0.00    -0.299 OA
BRANCH  12  13
HETATM   13  C   LIG     1      15.492  32.702  19.923  1.00  0.00     0.125 C 
HETATM   14  C   LIG     1      15.201  33.276  18.538  1.00  0.00     0.040 C 
HETATM   15  C   LIG     1      14.908  31.293  20.052  1.00  0.00     0.040 C 
ENDBRANCH  12  13
ENDBRANCH   2  12
TORSDOF 3
ENDMDL
MODEL 3
REMARK VINA RESULT:      -6.9      4.412      7.700
REMARK  3 active torsions:
REMARK  status: ('A' for Active; 'I' for Inactive)
REMARK       I    between atoms: C_2  and  N_7 
REMARK    1  A    between atoms: C_2  and  O_3 
REMARK    2  A    between atoms: O_3  and  C_4 
REMARK    3  A    between atoms: N_7  and  C_8 
ROOT
HETATM    1  O   LIG     1      15.486  31.658  19.943  1.00  0.00    -0.238 OA
HETATM    2  C   LIG     1      15.587  32.871  19.611  1.00  0.00     0.365 C 
HETATM    3  N   LIG     1      15.149  33.312  18.318  1.00  0.00    -0.303 N 
HETATM    4  H   LIG     1      14.997  34.337  18.189  1.00  0.00     0.171 HD
ENDROOT
BRANCH   3   5
HETATM    5  C   LIG     1      14.805  32.430  17.236  1.00  0.00     0.038 A 
HETATM    6  C   LIG     1      13.701  31.573  17.373  1.00  0.00     0.029 A 
HETATM    7  C   LIG     1      13.332  30.721  16.327  1.00  0.00     0.004 A 
HETATM    8  C   LIG     1      14.052  30.728  15.131  1.00  0.00     0.024 A 
HETATM    9  C   LIG     1      15.138  31.593  14.974  1.00  0.00     0.036 A 
HETATM   10  C   LIG     1      15.511  32.448  16.019  1.00  0.00     0.053 A 
HETATM   11 CL   LIG     1      16.027  31.620  13.461  1.00  0.00    -0.084 Cl
ENDBRANCH   3   5
BRANCH   2  12
HETATM   12  O   LIG     1      16.081  33.816  20.518  1.00  0.00    -0.299 OA
BRANCH  12  13
HETATM   13  C   LIG     1      15.903  35.225  20.364  1.00  0.00     0.125 C 
HETATM   14  C   LIG     1      17.218  35.927  20.697  1.00  0.00     0.040 C 
HETATM   15  C   LIG     1      14.784  35.721  21.283  1.00  0.00     0.040 C 
ENDBRANCH  12  13
ENDBRANCH   2  12
TORSDOF 3
ENDMDL
MODEL 4
REMARK VINA RESULT:      -6.6      4.218      7.571
REMARK  3 active torsions:
REMARK  status: ('A' for Active; 'I' for Inactive)
REMARK       I    between atoms: C_2  and  N_7 
REMARK    1  A    between atoms: C_2  and  O_3 
REMARK    2  A    between atoms: O_3  and  C_4 
REMARK    3  A    between atoms: N_7  and  C_8 
ROOT
HETATM    1  O   LIG     1      15.631  31.520  19.739  1.00  0.00    -0.238 OA
HETATM    2  C   LIG     1      15.388  32.753  19.631  1.00  0.00     0.365 C 
HETATM    3  N   LIG     1      15.008  33.313  18.366  1.00  0.00    -0.303 N 
HETATM    4  H   LIG     1      14.559  34.256  18.377  1.00  0.00     0.171 HD
ENDROOT
BRANCH   3   5
HETATM    5  C   LIG     1      15.106  32.618  17.111  1.00  0.00     0.038 A 
HETATM    6  C   LIG     1      16.226  32.835  16.292  1.00  0.00     0.029 A 
HETATM    7  C   LIG     1      16.356  32.155  15.077  1.00  0.00     0.004 A 
HETATM    8  C   LIG     1      15.378  31.244  14.676  1.00  0.00     0.024 A 
HETATM    9  C   LIG     1      14.270  31.002  15.493  1.00  0.00     0.036 A 
HETATM   10  C   LIG     1      14.136  31.680  16.711  1.00  0.00     0.053 A 
HETATM   11 CL   LIG     1      13.054  29.836  15.001  1.00  0.00    -0.084 Cl
ENDBRANCH   3   5
BRANCH   2  12
HETATM   12  O   LIG     1      15.434  33.585  20.755  1.00  0.00    -0.299 OA
BRANCH  12  13
HETATM   13  C   LIG     1      15.856  34.949  20.710  1.00  0.00     0.125 C 
HETATM   14  C   LIG     1      17.118  35.103  21.556  1.00  0.00     0.040 C 
HETATM   15  C   LIG     1      14.746  35.865  21.231  1.00  0.00     0.040 C 
ENDBRANCH  12  13
ENDBRANCH   2  12
TORSDOF 3
ENDMDL
MODEL 5
REMARK VINA RESULT:      -6.5      1.678      2.108
REMARK  3 active torsions:
REMARK  status: ('A' for Active; 'I' for Inactive)
REMARK       I    between atoms: C_2  and  N_7 
REMARK    1  A    between atoms: C_2  and  O_3 
REMARK    2  A    between atoms: O_3  and  C_4 
REMARK    3  A    between atoms: N_7  and  C_8 
ROOT
HETATM    1  O   LIG     1      14.499  34.247  21.459  1.00  0.00    -0.238 OA
HETATM    2  C   LIG     1      15.590  34.050  20.856  1.00  0.00     0.365 C 
HETATM    3  N   LIG     1      16.815  34.588  21.372  1.00  0.00    -0.303 N 
HETATM    4  H   LIG     1      17.706  34.182  21.007  1.00  0.00     0.171 HD
ENDROOT
BRANCH   3   5
HETATM    5  C   LIG     1      16.891  35.562  22.427  1.00  0.00     0.038 A 
HETATM    6  C   LIG     1      17.115  35.132  23.744  1.00  0.00     0.029 A 
HETATM    7  C   LIG     1      17.215  36.061  24.784  1.00  0.00     0.004 A 
HETATM    8  C   LIG     1      17.106  37.427  24.517  1.00  0.00     0.024 A 
HETATM    9  C   LIG     1      16.907  37.869  23.206  1.00  0.00     0.036 A 
HETATM   10  C   LIG     1      16.807  36.942  22.161  1.00  0.00     0.053 A 
HETATM   11 CL   LIG     1      16.797  39.587  22.866  1.00  0.00    -0.084 Cl
ENDBRANCH   3   5
BRANCH   2  12
HETATM   12  O   LIG     1      15.629  33.259  19.702  1.00  0.00    -0.299 OA
BRANCH  12  13
HETATM   13  C   LIG     1      14.628  32.295  19.373  1.00  0.00     0.125 C 
HETATM   14  C   LIG     1      15.017  30.951  19.986  1.00  0.00     0.040 C 
HETATM   15  C   LIG     1      14.493  32.170  17.852  1.00  0.00     0.040 C 
ENDBRANCH  12  13
ENDBRANCH   2  12
TORSDOF 3
ENDMDL
MODEL 6
REMARK VINA RESULT:      -6.4      8.300     10.491
REMARK  3 active torsions:
REMARK  status: ('A' for Active; 'I' for Inactive)
REMARK       I    between atoms: C_2  and  N_7 
REMARK    1  A    between atoms: C_2  and  O_3 
REMARK    2  A    between atoms: O_3  and  C_4 
REMARK    3  A    between atoms: N_7  and  C_8 
ROOT
HETATM    1  O   LIG     1      17.440  34.678  13.770  1.00  0.00    -0.238 OA
HETATM    2  C   LIG     1      17.283  33.569  13.190  1.00  0.00     0.365 C 
HETATM    3  N   LIG     1      18.305  33.044  12.331  1.00  0.00    -0.303 N 
HETATM    4  H   LIG     1      18.256  32.027  12.097  1.00  0.00     0.171 HD
ENDROOT
BRANCH   3   5
HETATM    5  C   LIG     1      19.439  33.797  11.867  1.00  0.00     0.038 A 
HETATM    6  C   LIG     1      19.451  34.277  10.548  1.00  0.00     0.029 A 
HETATM    7  C   LIG     1      20.531  35.030  10.079  1.00  0.00     0.004 A 
HETATM    8  C   LIG     1      21.602  35.323  10.926  1.00  0.00     0.024 A 
HETATM    9  C   LIG     1      21.590  34.871  12.249  1.00  0.00     0.036 A 
HETATM   10  C   LIG     1      20.510  34.116  12.722  1.00  0.00     0.053 A 
HETATM   11 CL   LIG     1      22.923  35.261  13.321  1.00  0.00    -0.084 Cl
ENDBRANCH   3   5
BRANCH   2  12
HETATM   12  O   LIG     1      16.130  32.809  13.416  1.00  0.00    -0.299 OA
BRANCH  12  13
HETATM   13  C   LIG     1      16.035  31.800  14.423  1.00  0.00     0.125 C 
HETATM   14  C   LIG     1      15.148  30.669  13.906  1.00  0.00     0.040 C 
HETATM   15  C   LIG     1      15.454  32.390  15.711  1.00  0.00     0.040 C 
ENDBRANCH  12  13
ENDBRANCH   2  12
TORSDOF 3
ENDMDL
MODEL 7
REMARK VINA RESULT:      -6.2      7.585      9.421
REMARK  3 active torsions:
REMARK  status: ('A' for Active; 'I' for Inactive)
REMARK       I    between atoms: C_2  and  N_7 
REMARK    1  A    between atoms: C_2  and  O_3 
REMARK    2  A    between atoms: O_3  and  C_4 
REMARK    3  A    between atoms: N_7  and  C_8 
ROOT
HETATM    1  O   LIG     1      17.527  34.855  14.158  1.00  0.00    -0.238 OA
HETATM    2  C   LIG     1      17.942  34.064  13.268  1.00  0.00     0.365 C 
HETATM    3  N   LIG     1      17.288  32.806  13.048  1.00  0.00    -0.303 N 
HETATM    4  H   LIG     1      17.484  32.318  12.145  1.00  0.00     0.171 HD
ENDROOT
BRANCH   3   5
HETATM    5  C   LIG     1      16.310  32.237  13.934  1.00  0.00     0.038 A 
HETATM    6  C   LIG     1      15.558  31.130  13.507  1.00  0.00     0.029 A 
HETATM    7  C   LIG     1      14.615  30.545  14.357  1.00  0.00     0.004 A 
HETATM    8  C   LIG     1      14.425  31.048  15.645  1.00  0.00     0.024 A 
HETATM    9  C   LIG     1      15.184  32.134  16.090  1.00  0.00     0.036 A 
HETATM   10  C   LIG     1      16.129  32.724  15.242  1.00  0.00     0.053 A 
HETATM   11 CL   LIG     1      14.963  32.750  17.719  1.00  0.00    -0.084 Cl
ENDBRANCH   3   5
BRANCH   2  12
HETATM   12  O   LIG     1      19.015  34.424  12.444  1.00  0.00    -0.299 OA
BRANCH  12  13
HETATM   13  C   LIG     1      20.219  33.663  12.341  1.00  0.00     0.125 C 
HETATM   14  C   LIG     1      21.405  34.567  12.672  1.00  0.00     0.040 C 
HETATM   15  C   LIG     1      20.363  33.086  10.930  1.00  0.00     0.040 C 
ENDBRANCH  12  13
ENDBRANCH   2  12
TORSDOF 3
ENDMDL
MODEL 8
REMARK VINA RESULT:      -6.1      1.691      2.177
REMARK  3 active torsions:
REMARK  status: ('A' for Active; 'I' for Inactive)
REMARK       I    between atoms: C_2  and  N_7 
REMARK    1  A    between atoms: C_2  and  O_3 
REMARK    2  A    between atoms: O_3  and  C_4 
REMARK    3  A    between atoms: N_7  and  C_8 
ROOT
HETATM    1  O   LIG     1      14.747  35.696  20.652  1.00  0.00    -0.238 OA
HETATM    2  C   LIG     1      15.724  35.148  20.072  1.00  0.00     0.365 C 
HETATM    3  N   LIG     1      17.070  35.490  20.432  1.00  0.00    -0.303 N 
HETATM    4  H   LIG     1      17.826  34.833  20.134  1.00  0.00     0.171 HD
ENDROOT
BRANCH   3   5
HETATM    5  C   LIG     1      17.427  36.609  21.261  1.00  0.00     0.038 A 
HETATM    6  C   LIG     1      18.098  37.701  20.688  1.00  0.00     0.029 A 
HETATM    7  C   LIG     1      18.437  38.812  21.467  1.00  0.00     0.004 A 
HETATM    8  C   LIG     1      18.098  38.848  22.820  1.00  0.00     0.024 A 
HETATM    9  C   LIG     1      17.409  37.777  23.397  1.00  0.00     0.036 A 
HETATM   10  C   LIG     1      17.067  36.663  22.620  1.00  0.00     0.053 A 
HETATM   11 CL   LIG     1      16.958  37.834  25.092  1.00  0.00    -0.084 Cl
ENDBRANCH   3   5
BRANCH   2  12
HETATM   12  O   LIG     1      15.511  34.159  19.105  1.00  0.00    -0.299 OA
BRANCH  12  13
HETATM   13  C   LIG     1      15.428  32.766  19.407  1.00  0.00     0.125 C 
HETATM   14  C   LIG     1      14.696  32.057  18.269  1.00  0.00     0.040 C 
HETATM   15  C   LIG     1      14.690  32.554  20.732  1.00  0.00     0.040 C 
ENDBRANCH  12  13
ENDBRANCH   2  12
TORSDOF 3
ENDMDL
MODEL 9
REMARK VINA RESULT:      -6.1      3.796      5.088
REMARK  3 active torsions:
REMARK  status: ('A' for Active; 'I' for Inactive)
REMARK       I    between atoms: C_2  and  N_7 
REMARK    1  A    between atoms: C_2  and  O_3 
REMARK    2  A    between atoms: O_3  and  C_4 
REMARK    3  A    between atoms: N_7  and  C_8 
ROOT
HETATM    1  O   LIG     1      19.412  39.257  22.292  1.00  0.00    -0.238 OA
HETATM    2  C   LIG     1      18.612  39.068  21.335  1.00  0.00     0.365 C 
HETATM    3  N   LIG     1      17.524  38.144  21.466  1.00  0.00    -0.303 N 
HETATM    4  H   LIG     1      16.746  38.220  20.773  1.00  0.00     0.171 HD
ENDROOT
BRANCH   3   5
HETATM    5  C   LIG     1      17.386  37.203  22.544  1.00  0.00     0.038 A 
HETATM    6  C   LIG     1      17.051  35.870  22.254  1.00  0.00     0.029 A 
HETATM    7  C   LIG     1      16.933  34.931  23.283  1.00  0.00     0.004 A 
HETATM    8  C   LIG     1      17.162  35.309  24.607  1.00  0.00     0.024 A 
HETATM    9  C   LIG     1      17.519  36.626  24.906  1.00  0.00     0.036 A 
HETATM   10  C   LIG     1      17.639  37.570  23.879  1.00  0.00     0.053 A 
HETATM   11 CL   LIG     1      17.833  37.095  26.568  1.00  0.00    -0.084 Cl
ENDBRANCH   3   5
BRANCH   2  12
HETATM   12  O   LIG     1      18.744  39.797  20.147  1.00  0.00    -0.299 OA
BRANCH  12  13
HETATM   13  C   LIG     1      19.619  39.421  19.084  1.00  0.00     0.125 C 
HETATM   14  C   LIG     1      18.792  39.195  17.820  1.00  0.00     0.040 C 
HETATM   15  C   LIG     1      20.388  38.150  19.454  1.00  0.00     0.040 C 
ENDBRANCH  12  13
ENDBRANCH   2  12
TORSDOF 3
ENDMDL
MODEL 10
REMARK VINA RESULT:      -5.9      3.912      4.579
REMARK  3 active torsions:
REMARK  status: ('A' for Active; 'I' for Inactive)
REMARK       I    between atoms: C_2  and  N_7 
REMARK    1  A    between atoms: C_2  and  O_3 
REMARK    2  A    between atoms: O_3  and  C_4 
REMARK    3  A    between atoms: N_7  and  C_8 
ROOT
HETATM    1  O   LIG     1      19.225  39.372  22.018  1.00  0.00    -0.238 OA
HETATM    2  C   LIG     1      18.292  38.791  21.401  1.00  0.00     0.365 C 
HETATM    3  N   LIG     1      17.283  38.066  22.119  1.00  0.00    -0.303 N 
HETATM    4  H   LIG     1      16.402  37.840  21.606  1.00  0.00     0.171 HD
ENDROOT
BRANCH   3   5
HETATM    5  C   LIG     1      17.366  37.731  23.515  1.00  0.00     0.038 A 
HETATM    6  C   LIG     1      17.383  38.762  24.468  1.00  0.00     0.029 A 
HETATM    7  C   LIG     1      17.441  38.463  25.833  1.00  0.00     0.004 A 
HETATM    8  C   LIG     1      17.468  37.134  26.258  1.00  0.00     0.024 A 
HETATM    9  C   LIG     1      17.428  36.098  25.320  1.00  0.00     0.036 A 
HETATM   10  C   LIG     1      17.369  36.394  23.952  1.00  0.00     0.053 A 
HETATM   11 CL   LIG     1      17.434  34.427  25.856  1.00  0.00    -0.084 Cl
ENDBRANCH   3   5
BRANCH   2  12
HETATM   12  O   LIG     1      18.195  38.887  20.008  1.00  0.00    -0.299 OA
BRANCH  12  13
HETATM   13  C   LIG     1      19.081  38.219  19.108  1.00  0.00     0.125 C 
HETATM   14  C   LIG     1      19.188  36.751  19.519  1.00  0.00     0.040 C 
HETATM   15  C   LIG     1      20.460  38.883  19.131  1.00  0.00     0.040 C 
ENDBRANCH  12  13
ENDBRANCH   2  12
TORSDOF 3
ENDMDL
MODEL 11
REMARK VINA RESULT:      -5.6      2.378      2.759
REMARK  3 active torsions:
REMARK  status: ('A' for Active; 'I' for Inactive)
REMARK       I    between atoms: C_2  and  N_7 
REMARK    1  A    between atoms: C_2  and  O_3 
REMARK    2  A    between atoms: O_3  and  C_4 
REMARK    3  A    between atoms: N_7  and  C_8 
ROOT
HETATM    1  O   LIG     1      14.953  33.027  20.769  1.00  0.00    -0.238 OA
HETATM    2  C   LIG     1      15.464  33.406  19.680  1.00  0.00     0.365 C 
HETATM    3  N   LIG     1      16.135  34.671  19.591  1.00  0.00    -0.303 N 
HETATM    4  H   LIG     1      16.766  34.820  18.772  1.00  0.00     0.171 HD
ENDROOT
BRANCH   3   5
HETATM    5  C   LIG     1      16.076  35.691  20.603  1.00  0.00     0.038 A 
HETATM    6  C   LIG     1      14.910  35.829  21.372  1.00  0.00     0.029 A 
HETATM    7  C   LIG     1      14.836  36.799  22.377  1.00  0.00     0.004 A 
HETATM    8  C   LIG     1      15.930  37.629  22.632  1.00  0.00     0.024 A 
HETATM    9  C   LIG     1      17.105  37.485  21.889  1.00  0.00     0.036 A 
HETATM   10  C   LIG     1      17.183  36.515  20.882  1.00  0.00     0.053 A 
HETATM   11 CL   LIG     1      18.488  38.510  22.227  1.00  0.00    -0.084 Cl
ENDBRANCH   3   5
BRANCH   2  12
HETATM   12  O   LIG     1      15.432  32.575  18.555  1.00  0.00    -0.299 OA
BRANCH  12  13
HETATM   13  C   LIG     1      14.745  32.908  17.348  1.00  0.00     0.125 C 
HETATM   14  C   LIG     1      13.596  31.922  17.145  1.00  0.00     0.040 C 
HETATM   15  C   LIG     1      15.708  32.860  16.159  1.00  0.00     0.040 C 
ENDBRANCH  12  13
ENDBRANCH   2  12
TORSDOF 3
ENDMDL
MODEL 12
REMARK VINA RESULT:      -5.0      4.919      8.401
REMARK  3 active torsions:
REMARK  status: ('A' for Active; 'I' for Inactive)
REMARK       I    between atoms: C_2  and  N_7 
REMARK    1  A    between atoms: C_2  and  O_3 
REMARK    2  A    between atoms: O_3  and  C_4 
REMARK    3  A    between atoms: N_7  and  C_8 
ROOT
HETATM    1  O   LIG     1      13.985  32.495  17.785  1.00  0.00    -0.238 OA
HETATM    2  C   LIG     1      15.082  33.119  17.800  1.00  0.00     0.365 C 
HETATM    3  N   LIG     1      15.913  33.161  16.632  1.00  0.00    -0.303 N 
HETATM    4  H   LIG     1      16.654  33.895  16.600  1.00  0.00     0.171 HD
ENDROOT
BRANCH   3   5
HETATM    5  C   LIG     1      15.719  32.335  15.471  1.00  0.00     0.038 A 
HETATM    6  C   LIG     1      16.483  32.581  14.318  1.00  0.00     0.029 A 
HETATM    7  C   LIG     1      16.329  31.780  13.183  1.00  0.00     0.004 A 
HETATM    8  C   LIG     1      15.424  30.717  13.193  1.00  0.00     0.024 A 
HETATM    9  C   LIG     1      14.675  30.447  14.342  1.00  0.00     0.036 A 
HETATM   10  C   LIG     1      14.826  31.247  15.481  1.00  0.00     0.053 A 
HETATM   11 CL   LIG     1      13.557  29.094  14.364  1.00  0.00    -0.084 Cl
ENDBRANCH   3   5
BRANCH   2  12
HETATM   12  O   LIG     1      15.480  33.824  18.942  1.00  0.00    -0.299 OA
BRANCH  12  13
HETATM   13  C   LIG     1      15.610  33.226  20.232  1.00  0.00     0.125 C 
HETATM   14  C   LIG     1      14.932  31.858  20.213  1.00  0.00     0.040 C 
HETATM   15  C   LIG     1      14.975  34.124  21.298  1.00  0.00     0.040 C 
ENDBRANCH  12  13
ENDBRANCH   2  12
TORSDOF 3
ENDMDL
MODEL 13
REMARK VINA RESULT:      -4.7      4.751      8.128
REMARK  3 active torsions:
REMARK  status: ('A' for Active; 'I' for Inactive)
REMARK       I    between atoms: C_2  and  N_7 
REMARK    1  A    between atoms: C_2  and  O_3 
REMARK    2  A    between atoms: O_3  and  C_4 
REMARK    3  A    between atoms: N_7  and  C_8 
ROOT
HETATM    1  O   LIG     1      13.868  31.451  18.093  1.00  0.00    -0.238 OA
HETATM    2  C   LIG     1      14.782  32.252  18.432  1.00  0.00     0.365 C 
HETATM    3  N   LIG     1      15.660  32.815  17.447  1.00  0.00    -0.303 N 
HETATM    4  H   LIG     1      16.207  33.660  17.722  1.00  0.00     0.171 HD
ENDROOT
BRANCH   3   5
HETATM    5  C   LIG     1      15.749  32.357  16.086  1.00  0.00     0.038 A 
HETATM    6  C   LIG     1      14.905  31.322  15.653  1.00  0.00     0.029 A 
HETATM    7  C   LIG     1      14.957  30.874  14.329  1.00  0.00     0.004 A 
HETATM    8  C   LIG     1      15.841  31.465  13.424  1.00  0.00     0.024 A 
HETATM    9  C   LIG     1      16.669  32.512  13.837  1.00  0.00     0.036 A 
HETATM   10  C   LIG     1      16.620  32.964  15.162  1.00  0.00     0.053 A 
HETATM   11 CL   LIG     1      17.760  33.272  12.692  1.00  0.00    -0.084 Cl
ENDBRANCH   3   5
BRANCH   2  12
HETATM   12  O   LIG     1      14.921  32.645  19.768  1.00  0.00    -0.299 OA
BRANCH  12  13
HETATM   13  C   LIG     1      15.660  33.796  20.178  1.00  0.00     0.125 C 
HETATM   14  C   LIG     1      15.134  34.262  21.534  1.00  0.00     0.040 C 
HETATM   15  C   LIG     1      15.524  34.912  19.138  1.00  0.00     0.040 C 
ENDBRANCH  12  13
ENDBRANCH   2  12
TORSDOF 3
ENDMDL
MODEL 14
REMARK VINA RESULT:      -4.7      4.297      5.824
REMARK  3 active torsions:
REMARK  status: ('A' for Active; 'I' for Inactive)
REMARK       I    between atoms: C_2  and  N_7 
REMARK    1  A    between atoms: C_2  and  O_3 
REMARK    2  A    between atoms: O_3  and  C_4 
REMARK    3  A    between atoms: N_7  and  C_8 
ROOT
HETATM    1  O   LIG     1      13.219  30.726  17.066  1.00  0.00    -0.238 OA
HETATM    2  C   LIG     1      14.161  31.242  16.404  1.00  0.00     0.365 C 
HETATM    3  N   LIG     1      15.172  32.021  17.059  1.00  0.00    -0.303 N 
HETATM    4  H   LIG     1      16.058  32.192  16.533  1.00  0.00     0.171 HD
ENDROOT
BRANCH   3   5
HETATM    5  C   LIG     1      15.085  32.482  18.418  1.00  0.00     0.038 A 
HETATM    6  C   LIG     1      14.639  31.599  19.415  1.00  0.00     0.029 A 
HETATM    7  C   LIG     1      14.566  32.016  20.748  1.00  0.00     0.004 A 
HETATM    8  C   LIG     1      14.951  33.311  21.099  1.00  0.00     0.024 A 
HETATM    9  C   LIG     1      15.420  34.191  20.120  1.00  0.00     0.036 A 
HETATM   10  C   LIG     1      15.494  33.778  18.784  1.00  0.00     0.053 A 
HETATM   11 CL   LIG     1      15.929  35.810  20.566  1.00  0.00    -0.084 Cl
ENDBRANCH   3   5
BRANCH   2  12
HETATM   12  O   LIG     1      14.264  31.019  15.026  1.00  0.00    -0.299 OA
BRANCH  12  13
HETATM   13  C   LIG     1      15.474  30.621  14.380  1.00  0.00     0.125 C 
HETATM   14  C   LIG     1      15.834  31.663  13.323  1.00  0.00     0.040 C 
HETATM   15  C   LIG     1      15.302  29.243  13.735  1.00  0.00     0.040 C 
ENDBRANCH  12  13
ENDBRANCH   2  12
TORSDOF 3
ENDMDL
MODEL 15
REMARK VINA RESULT:      -4.2     14.482     15.493
REMARK  3 active torsions:
REMARK  status: ('A' for Active; 'I' for Inactive)
REMARK       I    between atoms: C_2  and  N_7 
REMARK    1  A    between atoms: C_2  and  O_3 
REMARK    2  A    between atoms: O_3  and  C_4 
REMARK    3  A    between atoms: N_7  and  C_8 
ROOT
HETATM    1  O   LIG     1      25.798  26.045  19.012  1.00  0.00    -0.238 OA
HETATM    2  C   LIG     1      26.757  25.408  19.529  1.00  0.00     0.365 C 
HETATM    3  N   LIG     1      26.660  23.994  19.746  1.00  0.00    -0.303 N 
HETATM    4  H   LIG     1      27.551  23.475  19.914  1.00  0.00     0.171 HD
ENDROOT
BRANCH   3   5
HETATM    5  C   LIG     1      25.441  23.240  19.640  1.00  0.00     0.038 A 
HETATM    6  C   LIG     1      25.064  22.714  18.394  1.00  0.00     0.029 A 
HETATM    7  C   LIG     1      23.894  21.959  18.269  1.00  0.00     0.004 A 
HETATM    8  C   LIG     1      23.098  21.710  19.388  1.00  0.00     0.024 A 
HETATM    9  C   LIG     1      23.474  22.207  20.639  1.00  0.00     0.036 A 
HETATM   10  C   LIG     1      24.645  22.964  20.768  1.00  0.00     0.053 A 
HETATM   11 CL   LIG     1      22.487  21.871  22.050  1.00  0.00    -0.084 Cl
ENDBRANCH   3   5
BRANCH   2  12
HETATM   12  O   LIG     1      27.950  26.064  19.851  1.00  0.00    -0.299 OA
BRANCH  12  13
HETATM   13  C   LIG     1      29.012  26.272  18.918  1.00  0.00     0.125 C 
HETATM   14  C   LIG     1      30.340  26.264  19.673  1.00  0.00     0.040 C 
HETATM   15  C   LIG     1      28.821  27.602  18.185  1.00  0.00     0.040 C 
ENDBRANCH  12  13
ENDBRANCH   2  12
TORSDOF 3
ENDMDL
