MODEL 1
REMARK VINA RESULT:      -7.9      0.000      0.000
REMARK  6 active torsions:
REMARK  status: ('A' for Active; 'I' for Inactive)
REMARK    1  A    between atoms: C_8  and  O_9 
REMARK    2  A    between atoms: O_9  and  C_10 
REMARK    3  A    between atoms: C_10  and  C_11 
REMARK    4  A    between atoms: C_11  and  C_14 
REMARK    5  A    between atoms: C_11  and  C_12 
REMARK    6  A    between atoms: C_12  and  O_13 
ROOT
HETATM    1  C   LIG     1      16.378  38.321  22.864  1.00  0.00     0.270 C 
HETATM    2  O   LIG     1      15.527  39.153  22.441  1.00  0.00    -0.264 OA
ENDROOT
BRANCH   1   3
HETATM    3  O   LIG     1      17.752  38.594  22.796  1.00  0.00    -0.315 OA
BRANCH   3   4
HETATM    4  C   LIG     1      18.599  38.342  21.669  1.00  0.00     0.136 C 
HETATM    5  C   LIG     1      17.921  37.385  20.643  1.00  0.00     0.068 C 
HETATM    6  C   LIG     1      18.621  37.443  19.266  1.00  0.00     0.225 C 
HETATM    7  N   LIG     1      18.583  38.842  18.831  1.00  0.00     0.093 N 
HETATM    8  C   LIG     1      20.108  37.067  19.387  1.00  0.00     0.038 C 
HETATM    9  C   LIG     1      18.788  38.984  17.377  1.00  0.00     0.310 C 
HETATM   10  C   LIG     1      19.677  39.433  19.608  1.00  0.00     0.225 C 
HETATM   11  C   LIG     1      20.814  38.402  19.607  1.00  0.00     0.038 C 
HETATM   12  C   LIG     1      19.135  39.662  21.039  1.00  0.00     0.068 C 
ENDBRANCH   3   4
ENDBRANCH   1   3
BRANCH   1  13
HETATM   13  C   LIG     1      15.926  37.006  23.437  1.00  0.00     0.142 C 
BRANCH  13  14
HETATM   14  C   LIG     1      16.864  36.558  24.543  1.00  0.00    -0.043 A 
HETATM   15  C   LIG     1      17.417  37.483  25.452  1.00  0.00     0.008 A 
HETATM   16  C   LIG     1      18.277  37.052  26.466  1.00  0.00     0.001 A 
HETATM   17  C   LIG     1      18.603  35.696  26.579  1.00  0.00     0.000 A 
HETATM   18  C   LIG     1      18.059  34.770  25.686  1.00  0.00     0.001 A 
HETATM   19  C   LIG     1      17.192  35.196  24.673  1.00  0.00     0.008 A 
ENDBRANCH  13  14
BRANCH  13  20
HETATM   20  C   LIG     1      15.769  35.945  22.334  1.00  0.00     0.183 C 
BRANCH  20  21
HETATM   21  O   LIG     1      14.596  36.171  21.598  1.00  0.00    -0.400 OA
HETATM   22  H   LIG     1      14.731  37.013  21.093  1.00  0.00     0.209 HD
ENDBRANCH  20  21
ENDBRANCH  13  20
ENDBRANCH   1  13
TORSDOF 6
ENDMDL
MODEL 2
REMARK VINA RESULT:      -7.6      4.121      6.155
REMARK  6 active torsions:
REMARK  status: ('A' for Active; 'I' for Inactive)
REMARK    1  A    between atoms: C_8  and  O_9 
REMARK    2  A    between atoms: O_9  and  C_10 
REMARK    3  A    between atoms: C_10  and  C_11 
REMARK    4  A    between atoms: C_11  and  C_14 
REMARK    5  A    between atoms: C_11  and  C_12 
REMARK    6  A    between atoms: C_12  and  O_13 
ROOT
HETATM    1  C   LIG     1      15.529  35.418  21.080  1.00  0.00     0.270 C 
HETATM    2  O   LIG     1      14.399  35.951  20.903  1.00  0.00    -0.264 OA
ENDROOT
BRANCH   1   3
HETATM    3  O   LIG     1      15.900  34.260  20.379  1.00  0.00    -0.315 OA
BRANCH   3   4
HETATM    4  C   LIG     1      15.209  33.707  19.254  1.00  0.00     0.136 C 
HETATM    5  C   LIG     1      15.408  34.573  17.974  1.00  0.00     0.068 C 
HETATM    6  C   LIG     1      15.037  33.786  16.696  1.00  0.00     0.225 C 
HETATM    7  N   LIG     1      15.866  32.579  16.686  1.00  0.00     0.093 N 
HETATM    8  C   LIG     1      13.575  33.309  16.748  1.00  0.00     0.038 C 
HETATM    9  C   LIG     1      15.964  31.976  15.343  1.00  0.00     0.310 C 
HETATM   10  C   LIG     1      15.158  31.714  17.634  1.00  0.00     0.225 C 
HETATM   11  C   LIG     1      13.659  31.917  17.368  1.00  0.00     0.038 C 
HETATM   12  C   LIG     1      15.541  32.198  19.052  1.00  0.00     0.068 C 
ENDBRANCH   3   4
ENDBRANCH   1   3
BRANCH   1  13
HETATM   13  C   LIG     1      16.496  36.010  22.067  1.00  0.00     0.142 C 
BRANCH  13  14
HETATM   14  C   LIG     1      17.451  36.962  21.369  1.00  0.00    -0.043 A 
HETATM   15  C   LIG     1      18.172  36.566  20.224  1.00  0.00     0.008 A 
HETATM   16  C   LIG     1      19.044  37.458  19.594  1.00  0.00     0.001 A 
HETATM   17  C   LIG     1      19.215  38.749  20.102  1.00  0.00     0.000 A 
HETATM   18  C   LIG     1      18.504  39.154  21.234  1.00  0.00     0.001 A 
HETATM   19  C   LIG     1      17.623  38.268  21.866  1.00  0.00     0.008 A 
ENDBRANCH  13  14
BRANCH  13  20
HETATM   20  C   LIG     1      17.232  34.910  22.852  1.00  0.00     0.183 C 
BRANCH  20  21
HETATM   21  O   LIG     1      17.275  35.226  24.218  1.00  0.00    -0.400 OA
HETATM   22  H   LIG     1      16.780  36.077  24.332  1.00  0.00     0.209 HD
ENDBRANCH  20  21
ENDBRANCH  13  20
ENDBRANCH   1  13
TORSDOF 6
ENDMDL
MODEL 3
REMARK VINA RESULT:      -7.6      4.133      5.510
REMARK  6 active torsions:
REMARK  status: ('A' for Active; 'I' for Inactive)
REMARK    1  A    between atoms: C_8  and  O_9 
REMARK    2  A    between atoms: O_9  and  C_10 
REMARK    3  A    between atoms: C_10  and  C_11 
REMARK    4  A    between atoms: C_11  and  C_14 
REMARK    5  A    between atoms: C_11  and  C_12 
REMARK    6  A    between atoms: C_12  and  O_13 
ROOT
HETATM    1  C   LIG     1      15.770  34.975  21.222  1.00  0.00     0.270 C 
HETATM    2  O   LIG     1      14.733  35.635  21.507  1.00  0.00    -0.264 OA
ENDROOT
BRANCH   1   3
HETATM    3  O   LIG     1      15.681  33.703  20.638  1.00  0.00    -0.315 OA
BRANCH   3   4
HETATM    4  C   LIG     1      15.049  33.399  19.390  1.00  0.00     0.136 C 
HETATM    5  C   LIG     1      15.415  34.442  18.291  1.00  0.00     0.068 C 
HETATM    6  C   LIG     1      15.096  33.908  16.875  1.00  0.00     0.225 C 
HETATM    7  N   LIG     1      15.837  32.653  16.721  1.00  0.00     0.093 N 
HETATM    8  C   LIG     1      13.606  33.552  16.743  1.00  0.00     0.038 C 
HETATM    9  C   LIG     1      16.004  32.271  15.306  1.00  0.00     0.310 C 
HETATM   10  C   LIG     1      14.993  31.708  17.458  1.00  0.00     0.225 C 
HETATM   11  C   LIG     1      13.540  32.075  17.125  1.00  0.00     0.038 C 
HETATM   12  C   LIG     1      15.290  31.921  18.960  1.00  0.00     0.068 C 
ENDBRANCH   3   4
ENDBRANCH   1   3
BRANCH   1  13
HETATM   13  C   LIG     1      17.131  35.542  21.523  1.00  0.00     0.142 C 
BRANCH  13  14
HETATM   14  C   LIG     1      17.223  35.956  22.980  1.00  0.00    -0.043 A 
HETATM   15  C   LIG     1      17.234  37.315  23.355  1.00  0.00     0.008 A 
HETATM   16  C   LIG     1      17.317  37.676  24.703  1.00  0.00     0.001 A 
HETATM   17  C   LIG     1      17.400  36.690  25.690  1.00  0.00     0.000 A 
HETATM   18  C   LIG     1      17.387  35.340  25.331  1.00  0.00     0.001 A 
HETATM   19  C   LIG     1      17.296  34.971  23.983  1.00  0.00     0.008 A 
ENDBRANCH  13  14
BRANCH  13  20
HETATM   20  C   LIG     1      17.478  36.693  20.562  1.00  0.00     0.183 C 
BRANCH  20  21
HETATM   21  O   LIG     1      18.628  36.383  19.820  1.00  0.00    -0.400 OA
HETATM   22  H   LIG     1      18.441  35.536  19.340  1.00  0.00     0.209 HD
ENDBRANCH  20  21
ENDBRANCH  13  20
ENDBRANCH   1  13
TORSDOF 6
ENDMDL
MODEL 4
REMARK VINA RESULT:      -7.3      8.096     10.272
REMARK  6 active torsions:
REMARK  status: ('A' for Active; 'I' for Inactive)
REMARK    1  A    between atoms: C_8  and  O_9 
REMARK    2  A    between atoms: O_9  and  C_10 
REMARK    3  A    between atoms: C_10  and  C_11 
REMARK    4  A    between atoms: C_11  and  C_14 
REMARK    5  A    between atoms: C_11  and  C_12 
REMARK    6  A    between atoms: C_12  and  O_13 
ROOT
HETATM    1  C   LIG     1      16.905  33.078  14.182  1.00  0.00     0.270 C 
HETATM    2  O   LIG     1      16.137  32.948  13.189  1.00  0.00    -0.264 OA
ENDROOT
BRANCH   1   3
HETATM    3  O   LIG     1      18.215  33.556  14.026  1.00  0.00    -0.315 OA
BRANCH   3   4
HETATM    4  C   LIG     1      19.018  33.422  12.848  1.00  0.00     0.136 C 
HETATM    5  C   LIG     1      18.493  34.323  11.689  1.00  0.00     0.068 C 
HETATM    6  C   LIG     1      19.563  34.510  10.589  1.00  0.00     0.225 C 
HETATM    7  N   LIG     1      20.747  35.075  11.242  1.00  0.00     0.093 N 
HETATM    8  C   LIG     1      19.995  33.154  10.005  1.00  0.00     0.038 C 
HETATM    9  C   LIG     1      21.660  35.724  10.283  1.00  0.00     0.310 C 
HETATM   10  C   LIG     1      21.345  33.892  11.868  1.00  0.00     0.225 C 
HETATM   11  C   LIG     1      21.195  32.746  10.857  1.00  0.00     0.038 C 
HETATM   12  C   LIG     1      20.534  33.609  13.154  1.00  0.00     0.068 C 
ENDBRANCH   3   4
ENDBRANCH   1   3
BRANCH   1  13
HETATM   13  C   LIG     1      16.428  32.703  15.558  1.00  0.00     0.142 C 
BRANCH  13  14
HETATM   14  C   LIG     1      15.257  31.741  15.471  1.00  0.00    -0.043 A 
HETATM   15  C   LIG     1      15.218  30.723  14.497  1.00  0.00     0.008 A 
HETATM   16  C   LIG     1      14.133  29.845  14.434  1.00  0.00     0.001 A 
HETATM   17  C   LIG     1      13.070  29.978  15.334  1.00  0.00     0.000 A 
HETATM   18  C   LIG     1      13.099  30.982  16.305  1.00  0.00     0.001 A 
HETATM   19  C   LIG     1      14.187  31.859  16.377  1.00  0.00     0.008 A 
ENDBRANCH  13  14
BRANCH  13  20
HETATM   20  C   LIG     1      16.101  33.954  16.393  1.00  0.00     0.183 C 
BRANCH  20  21
HETATM   21  O   LIG     1      16.762  35.078  15.874  1.00  0.00    -0.400 OA
HETATM   22  H   LIG     1      16.520  35.137  14.915  1.00  0.00     0.209 HD
ENDBRANCH  20  21
ENDBRANCH  13  20
ENDBRANCH   1  13
TORSDOF 6
ENDMDL
MODEL 5
REMARK VINA RESULT:      -7.1      4.666      7.224
REMARK  6 active torsions:
REMARK  status: ('A' for Active; 'I' for Inactive)
REMARK    1  A    between atoms: C_8  and  O_9 
REMARK    2  A    between atoms: O_9  and  C_10 
REMARK    3  A    between atoms: C_10  and  C_11 
REMARK    4  A    between atoms: C_11  and  C_14 
REMARK    5  A    between atoms: C_11  and  C_12 
REMARK    6  A    between atoms: C_12  and  O_13 
ROOT
HETATM    1  C   LIG     1      15.434  34.099  19.348  1.00  0.00     0.270 C 
HETATM    2  O   LIG     1      15.641  34.824  18.336  1.00  0.00    -0.264 OA
ENDROOT
BRANCH   1   3
HETATM    3  O   LIG     1      15.174  34.666  20.605  1.00  0.00    -0.315 OA
BRANCH   3   4
HETATM    4  C   LIG     1      15.777  35.855  21.125  1.00  0.00     0.136 C 
HETATM    5  C   LIG     1      14.822  36.605  22.103  1.00  0.00     0.068 C 
HETATM    6  C   LIG     1      15.592  37.624  22.975  1.00  0.00     0.225 C 
HETATM    7  N   LIG     1      16.634  36.874  23.681  1.00  0.00     0.093 N 
HETATM    8  C   LIG     1      16.318  38.660  22.100  1.00  0.00     0.038 C 
HETATM    9  C   LIG     1      17.137  37.593  24.866  1.00  0.00     0.310 C 
HETATM   10  C   LIG     1      17.659  36.725  22.643  1.00  0.00     0.225 C 
HETATM   11  C   LIG     1      17.706  38.060  21.887  1.00  0.00     0.038 C 
HETATM   12  C   LIG     1      17.192  35.578  21.716  1.00  0.00     0.068 C 
ENDBRANCH   3   4
ENDBRANCH   1   3
BRANCH   1  13
HETATM   13  C   LIG     1      15.481  32.601  19.224  1.00  0.00     0.142 C 
BRANCH  13  14
HETATM   14  C   LIG     1      15.086  32.171  17.823  1.00  0.00    -0.043 A 
HETATM   15  C   LIG     1      15.935  32.401  16.721  1.00  0.00     0.008 A 
HETATM   16  C   LIG     1      15.555  31.995  15.439  1.00  0.00     0.001 A 
HETATM   17  C   LIG     1      14.322  31.366  15.238  1.00  0.00     0.000 A 
HETATM   18  C   LIG     1      13.474  31.131  16.323  1.00  0.00     0.001 A 
HETATM   19  C   LIG     1      13.852  31.528  17.611  1.00  0.00     0.008 A 
ENDBRANCH  13  14
BRANCH  13  20
HETATM   20  C   LIG     1      14.623  31.927  20.309  1.00  0.00     0.183 C 
BRANCH  20  21
HETATM   21  O   LIG     1      15.016  30.591  20.488  1.00  0.00    -0.400 OA
HETATM   22  H   LIG     1      15.066  30.183  19.586  1.00  0.00     0.209 HD
ENDBRANCH  20  21
ENDBRANCH  13  20
ENDBRANCH   1  13
TORSDOF 6
ENDMDL
MODEL 6
REMARK VINA RESULT:      -6.6      5.310      7.791
REMARK  6 active torsions:
REMARK  status: ('A' for Active; 'I' for Inactive)
REMARK    1  A    between atoms: C_8  and  O_9 
REMARK    2  A    between atoms: O_9  and  C_10 
REMARK    3  A    between atoms: C_10  and  C_11 
REMARK    4  A    between atoms: C_11  and  C_14 
REMARK    5  A    between atoms: C_11  and  C_12 
REMARK    6  A    between atoms: C_12  and  O_13 
ROOT
HETATM    1  C   LIG     1      15.328  34.126  17.649  1.00  0.00     0.270 C 
HETATM    2  O   LIG     1      15.529  34.595  16.495  1.00  0.00    -0.264 OA
ENDROOT
BRANCH   1   3
HETATM    3  O   LIG     1      14.962  34.960  18.717  1.00  0.00    -0.315 OA
BRANCH   3   4
HETATM    4  C   LIG     1      15.676  35.101  19.949  1.00  0.00     0.136 C 
HETATM    5  C   LIG     1      17.033  35.841  19.746  1.00  0.00     0.068 C 
HETATM    6  C   LIG     1      17.598  36.364  21.086  1.00  0.00     0.225 C 
HETATM    7  N   LIG     1      16.572  37.234  21.667  1.00  0.00     0.093 N 
HETATM    8  C   LIG     1      17.807  35.212  22.084  1.00  0.00     0.038 C 
HETATM    9  C   LIG     1      17.122  38.149  22.684  1.00  0.00     0.310 C 
HETATM   10  C   LIG     1      15.637  36.261  22.241  1.00  0.00     0.225 C 
HETATM   11  C   LIG     1      16.495  35.151  22.863  1.00  0.00     0.038 C 
HETATM   12  C   LIG     1      14.786  35.716  21.070  1.00  0.00     0.068 C 
ENDBRANCH   3   4
ENDBRANCH   1   3
BRANCH   1  13
HETATM   13  C   LIG     1      15.498  32.653  17.904  1.00  0.00     0.142 C 
BRANCH  13  14
HETATM   14  C   LIG     1      14.867  31.844  16.786  1.00  0.00    -0.043 A 
HETATM   15  C   LIG     1      13.548  31.357  16.891  1.00  0.00     0.008 A 
HETATM   16  C   LIG     1      12.982  30.617  15.849  1.00  0.00     0.001 A 
HETATM   17  C   LIG     1      13.727  30.344  14.697  1.00  0.00     0.000 A 
HETATM   18  C   LIG     1      15.034  30.824  14.581  1.00  0.00     0.001 A 
HETATM   19  C   LIG     1      15.603  31.573  15.618  1.00  0.00     0.008 A 
ENDBRANCH  13  14
BRANCH  13  20
HETATM   20  C   LIG     1      14.955  32.263  19.290  1.00  0.00     0.183 C 
BRANCH  20  21
HETATM   21  O   LIG     1      15.864  31.427  19.957  1.00  0.00    -0.400 OA
HETATM   22  H   LIG     1      16.116  31.888  20.798  1.00  0.00     0.209 HD
ENDBRANCH  20  21
ENDBRANCH  13  20
ENDBRANCH   1  13
TORSDOF 6
ENDMDL
MODEL 7
REMARK VINA RESULT:      -6.5      7.401      9.358
REMARK  6 active torsions:
REMARK  status: ('A' for Active; 'I' for Inactive)
REMARK    1  A    between atoms: C_8  and  O_9 
REMARK    2  A    between atoms: O_9  and  C_10 
REMARK    3  A    between atoms: C_10  and  C_11 
REMARK    4  A    between atoms: C_11  and  C_14 
REMARK    5  A    between atoms: C_11  and  C_12 
REMARK    6  A    between atoms: C_12  and  O_13 
ROOT
HETATM    1  C   LIG     1      17.159  32.928  14.804  1.00  0.00     0.270 C 
HETATM    2  O   LIG     1      18.079  32.341  15.438  1.00  0.00    -0.264 OA
ENDROOT
BRANCH   1   3
HETATM    3  O   LIG     1      17.454  33.807  13.750  1.00  0.00    -0.315 OA
BRANCH   3   4
HETATM    4  C   LIG     1      18.383  33.558  12.690  1.00  0.00     0.136 C 
HETATM    5  C   LIG     1      18.101  34.463  11.453  1.00  0.00     0.068 C 
HETATM    6  C   LIG     1      19.316  34.510  10.498  1.00  0.00     0.225 C 
HETATM    7  N   LIG     1      20.456  34.985  11.287  1.00  0.00     0.093 N 
HETATM    8  C   LIG     1      19.685  33.100  10.006  1.00  0.00     0.038 C 
HETATM    9  C   LIG     1      21.543  35.511  10.441  1.00  0.00     0.310 C 
HETATM   10  C   LIG     1      20.851  33.773  12.011  1.00  0.00     0.225 C 
HETATM   11  C   LIG     1      20.720  32.612  11.016  1.00  0.00     0.038 C 
HETATM   12  C   LIG     1      19.859  33.612  13.187  1.00  0.00     0.068 C 
ENDBRANCH   3   4
ENDBRANCH   1   3
BRANCH   1  13
HETATM   13  C   LIG     1      15.721  32.706  15.183  1.00  0.00     0.142 C 
BRANCH  13  14
HETATM   14  C   LIG     1      15.516  32.968  16.664  1.00  0.00    -0.043 A 
HETATM   15  C   LIG     1      15.337  31.908  17.577  1.00  0.00     0.008 A 
HETATM   16  C   LIG     1      15.152  32.169  18.937  1.00  0.00     0.001 A 
HETATM   17  C   LIG     1      15.133  33.488  19.402  1.00  0.00     0.000 A 
HETATM   18  C   LIG     1      15.312  34.546  18.508  1.00  0.00     0.001 A 
HETATM   19  C   LIG     1      15.505  34.291  17.145  1.00  0.00     0.008 A 
ENDBRANCH  13  14
BRANCH  13  20
HETATM   20  C   LIG     1      15.246  31.304  14.763  1.00  0.00     0.183 C 
BRANCH  20  21
HETATM   21  O   LIG     1      16.084  30.779  13.767  1.00  0.00    -0.400 OA
HETATM   22  H   LIG     1      15.991  29.793  13.803  1.00  0.00     0.209 HD
ENDBRANCH  20  21
ENDBRANCH  13  20
ENDBRANCH   1  13
TORSDOF 6
ENDMDL
MODEL 8
REMARK VINA RESULT:      -6.1      3.782      5.172
REMARK  6 active torsions:
REMARK  status: ('A' for Active; 'I' for Inactive)
REMARK    1  A    between atoms: C_8  and  O_9 
REMARK    2  A    between atoms: O_9  and  C_10 
REMARK    3  A    between atoms: C_10  and  C_11 
REMARK    4  A    between atoms: C_11  and  C_14 
REMARK    5  A    between atoms: C_11  and  C_12 
REMARK    6  A    between atoms: C_12  and  O_13 
ROOT
HETATM    1  C   LIG     1      16.786  35.338  21.127  1.00  0.00     0.270 C 
HETATM    2  O   LIG     1      17.875  35.322  20.489  1.00  0.00    -0.264 OA
ENDROOT
BRANCH   1   3
HETATM    3  O   LIG     1      15.864  34.286  21.013  1.00  0.00    -0.315 OA
BRANCH   3   4
HETATM    4  C   LIG     1      15.263  33.831  19.796  1.00  0.00     0.136 C 
HETATM    5  C   LIG     1      15.542  34.810  18.615  1.00  0.00     0.068 C 
HETATM    6  C   LIG     1      15.273  34.138  17.249  1.00  0.00     0.225 C 
HETATM    7  N   LIG     1      16.118  32.942  17.192  1.00  0.00     0.093 N 
HETATM    8  C   LIG     1      13.818  33.648  17.152  1.00  0.00     0.038 C 
HETATM    9  C   LIG     1      16.319  32.463  15.812  1.00  0.00     0.310 C 
HETATM   10  C   LIG     1      15.354  31.991  18.006  1.00  0.00     0.225 C 
HETATM   11  C   LIG     1      13.876  32.207  17.651  1.00  0.00     0.038 C 
HETATM   12  C   LIG     1      15.629  32.349  19.486  1.00  0.00     0.068 C 
ENDBRANCH   3   4
ENDBRANCH   1   3
BRANCH   1  13
HETATM   13  C   LIG     1      16.448  36.506  22.013  1.00  0.00     0.142 C 
BRANCH  13  14
HETATM   14  C   LIG     1      17.031  36.306  23.400  1.00  0.00    -0.043 A 
HETATM   15  C   LIG     1      17.046  35.036  24.011  1.00  0.00     0.008 A 
HETATM   16  C   LIG     1      17.590  34.871  25.288  1.00  0.00     0.001 A 
HETATM   17  C   LIG     1      18.116  35.971  25.974  1.00  0.00     0.000 A 
HETATM   18  C   LIG     1      18.109  37.234  25.377  1.00  0.00     0.001 A 
HETATM   19  C   LIG     1      17.572  37.404  24.095  1.00  0.00     0.008 A 
ENDBRANCH  13  14
BRANCH  13  20
HETATM   20  C   LIG     1      14.930  36.759  22.044  1.00  0.00     0.183 C 
BRANCH  20  21
HETATM   21  O   LIG     1      14.624  37.805  22.927  1.00  0.00    -0.400 OA
HETATM   22  H   LIG     1      14.303  37.388  23.767  1.00  0.00     0.209 HD
ENDBRANCH  20  21
ENDBRANCH  13  20
ENDBRANCH   1  13
TORSDOF 6
ENDMDL
MODEL 9
REMARK VINA RESULT:      -6.0      5.214      8.295
REMARK  6 active torsions:
REMARK  status: ('A' for Active; 'I' for Inactive)
REMARK    1  A    between atoms: C_8  and  O_9 
REMARK    2  A    between atoms: O_9  and  C_10 
REMARK    3  A    between atoms: C_10  and  C_11 
REMARK    4  A    between atoms: C_11  and  C_14 
REMARK    5  A    between atoms: C_11  and  C_12 
REMARK    6  A    between atoms: C_12  and  O_13 
ROOT
HETATM    1  C   LIG     1      15.026  33.436  17.488  1.00  0.00     0.270 C 
HETATM    2  O   LIG     1      14.850  34.531  16.886  1.00  0.00    -0.264 OA
ENDROOT
BRANCH   1   3
HETATM    3  O   LIG     1      14.863  33.339  18.878  1.00  0.00    -0.315 OA
BRANCH   3   4
HETATM    4  C   LIG     1      15.671  33.994  19.861  1.00  0.00     0.136 C 
HETATM    5  C   LIG     1      16.100  35.419  19.397  1.00  0.00     0.068 C 
HETATM    6  C   LIG     1      16.596  36.275  20.585  1.00  0.00     0.225 C 
HETATM    7  N   LIG     1      15.506  36.313  21.563  1.00  0.00     0.093 N 
HETATM    8  C   LIG     1      17.788  35.604  21.288  1.00  0.00     0.038 C 
HETATM    9  C   LIG     1      15.641  37.436  22.510  1.00  0.00     0.310 C 
HETATM   10  C   LIG     1      15.641  35.010  22.220  1.00  0.00     0.225 C 
HETATM   11  C   LIG     1      17.147  34.764  22.389  1.00  0.00     0.038 C 
HETATM   12  C   LIG     1      15.010  33.964  21.272  1.00  0.00     0.068 C 
ENDBRANCH   3   4
ENDBRANCH   1   3
BRANCH   1  13
HETATM   13  C   LIG     1      15.434  32.210  16.718  1.00  0.00     0.142 C 
BRANCH  13  14
HETATM   14  C   LIG     1      16.157  32.600  15.442  1.00  0.00    -0.043 A 
HETATM   15  C   LIG     1      15.817  32.021  14.203  1.00  0.00     0.008 A 
HETATM   16  C   LIG     1      16.493  32.396  13.038  1.00  0.00     0.001 A 
HETATM   17  C   LIG     1      17.521  33.342  13.096  1.00  0.00     0.000 A 
HETATM   18  C   LIG     1      17.864  33.925  14.319  1.00  0.00     0.001 A 
HETATM   19  C   LIG     1      17.186  33.559  15.487  1.00  0.00     0.008 A 
ENDBRANCH  13  14
BRANCH  13  20
HETATM   20  C   LIG     1      14.227  31.293  16.453  1.00  0.00     0.183 C 
BRANCH  20  21
HETATM   21  O   LIG     1      13.652  30.874  17.662  1.00  0.00    -0.400 OA
HETATM   22  H   LIG     1      13.312  31.686  18.116  1.00  0.00     0.209 HD
ENDBRANCH  20  21
ENDBRANCH  13  20
ENDBRANCH   1  13
TORSDOF 6
ENDMDL
MODEL 10
REMARK VINA RESULT:      -5.9      8.229     10.085
REMARK  6 active torsions:
REMARK  status: ('A' for Active; 'I' for Inactive)
REMARK    1  A    between atoms: C_8  and  O_9 
REMARK    2  A    between atoms: O_9  and  C_10 
REMARK    3  A    between atoms: C_10  and  C_11 
REMARK    4  A    between atoms: C_11  and  C_14 
REMARK    5  A    between atoms: C_11  and  C_12 
REMARK    6  A    between atoms: C_12  and  O_13 
ROOT
HETATM    1  C   LIG     1      17.436  33.001  14.473  1.00  0.00     0.270 C 
HETATM    2  O   LIG     1      18.240  32.425  15.257  1.00  0.00    -0.264 OA
ENDROOT
BRANCH   1   3
HETATM    3  O   LIG     1      17.773  34.215  13.855  1.00  0.00    -0.315 OA
BRANCH   3   4
HETATM    4  C   LIG     1      18.785  34.392  12.858  1.00  0.00     0.136 C 
HETATM    5  C   LIG     1      20.112  33.675  13.252  1.00  0.00     0.068 C 
HETATM    6  C   LIG     1      21.045  33.501  12.032  1.00  0.00     0.225 C 
HETATM    7  N   LIG     1      20.288  32.754  11.024  1.00  0.00     0.093 N 
HETATM    8  C   LIG     1      21.386  34.861  11.400  1.00  0.00     0.038 C 
HETATM    9  C   LIG     1      21.163  32.123  10.019  1.00  0.00     0.310 C 
HETATM   10  C   LIG     1      19.438  33.799  10.445  1.00  0.00     0.225 C 
HETATM   11  C   LIG     1      20.313  35.055  10.331  1.00  0.00     0.038 C 
HETATM   12  C   LIG     1      18.270  34.024  11.435  1.00  0.00     0.068 C 
ENDBRANCH   3   4
ENDBRANCH   1   3
BRANCH   1  13
HETATM   13  C   LIG     1      16.086  32.398  14.200  1.00  0.00     0.142 C 
BRANCH  13  14
HETATM   14  C   LIG     1      15.332  32.173  15.498  1.00  0.00    -0.043 A 
HETATM   15  C   LIG     1      14.435  31.095  15.646  1.00  0.00     0.008 A 
HETATM   16  C   LIG     1      13.752  30.903  16.850  1.00  0.00     0.001 A 
HETATM   17  C   LIG     1      13.947  31.788  17.916  1.00  0.00     0.000 A 
HETATM   18  C   LIG     1      14.835  32.857  17.781  1.00  0.00     0.001 A 
HETATM   19  C   LIG     1      15.528  33.051  16.581  1.00  0.00     0.008 A 
ENDBRANCH  13  14
BRANCH  13  20
HETATM   20  C   LIG     1      16.211  31.112  13.363  1.00  0.00     0.183 C 
BRANCH  20  21
HETATM   21  O   LIG     1      14.941  30.625  13.018  1.00  0.00    -0.400 OA
HETATM   22  H   LIG     1      14.296  31.359  13.184  1.00  0.00     0.209 HD
ENDBRANCH  20  21
ENDBRANCH  13  20
ENDBRANCH   1  13
TORSDOF 6
ENDMDL
MODEL 11
REMARK VINA RESULT:      -5.9      6.355      9.012
REMARK  6 active torsions:
REMARK  status: ('A' for Active; 'I' for Inactive)
REMARK    1  A    between atoms: C_8  and  O_9 
REMARK    2  A    between atoms: O_9  and  C_10 
REMARK    3  A    between atoms: C_10  and  C_11 
REMARK    4  A    between atoms: C_11  and  C_14 
REMARK    5  A    between atoms: C_11  and  C_12 
REMARK    6  A    between atoms: C_12  and  O_13 
ROOT
HETATM    1  C   LIG     1      15.515  33.618  16.465  1.00  0.00     0.270 C 
HETATM    2  O   LIG     1      14.944  34.729  16.281  1.00  0.00    -0.264 OA
ENDROOT
BRANCH   1   3
HETATM    3  O   LIG     1      15.730  33.120  17.758  1.00  0.00    -0.315 OA
BRANCH   3   4
HETATM    4  C   LIG     1      15.378  33.782  18.978  1.00  0.00     0.136 C 
HETATM    5  C   LIG     1      15.575  32.854  20.214  1.00  0.00     0.068 C 
HETATM    6  C   LIG     1      15.609  33.665  21.530  1.00  0.00     0.225 C 
HETATM    7  N   LIG     1      16.688  34.647  21.394  1.00  0.00     0.093 N 
HETATM    8  C   LIG     1      14.311  34.469  21.716  1.00  0.00     0.038 C 
HETATM    9  C   LIG     1      17.140  35.168  22.697  1.00  0.00     0.310 C 
HETATM   10  C   LIG     1      16.057  35.681  20.569  1.00  0.00     0.225 C 
HETATM   11  C   LIG     1      14.616  35.823  21.080  1.00  0.00     0.038 C 
HETATM   12  C   LIG     1      16.082  35.166  19.111  1.00  0.00     0.068 C 
ENDBRANCH   3   4
ENDBRANCH   1   3
BRANCH   1  13
HETATM   13  C   LIG     1      15.995  32.814  15.288  1.00  0.00     0.142 C 
BRANCH  13  14
HETATM   14  C   LIG     1      15.100  31.608  15.068  1.00  0.00    -0.043 A 
HETATM   15  C   LIG     1      15.433  30.613  14.127  1.00  0.00     0.008 A 
HETATM   16  C   LIG     1      14.597  29.508  13.940  1.00  0.00     0.001 A 
HETATM   17  C   LIG     1      13.417  29.388  14.680  1.00  0.00     0.000 A 
HETATM   18  C   LIG     1      13.078  30.367  15.618  1.00  0.00     0.001 A 
HETATM   19  C   LIG     1      13.915  31.472  15.815  1.00  0.00     0.008 A 
ENDBRANCH  13  14
BRANCH  13  20
HETATM   20  C   LIG     1      17.476  32.425  15.448  1.00  0.00     0.183 C 
BRANCH  20  21
HETATM   21  O   LIG     1      18.236  32.935  14.384  1.00  0.00    -0.400 OA
HETATM   22  H   LIG     1      18.058  32.354  13.600  1.00  0.00     0.209 HD
ENDBRANCH  20  21
ENDBRANCH  13  20
ENDBRANCH   1  13
TORSDOF 6
ENDMDL
MODEL 12
REMARK VINA RESULT:      -5.4     15.738     17.200
REMARK  6 active torsions:
REMARK  status: ('A' for Active; 'I' for Inactive)
REMARK    1  A    between atoms: C_8  and  O_9 
REMARK    2  A    between atoms: O_9  and  C_10 
REMARK    3  A    between atoms: C_10  and  C_11 
REMARK    4  A    between atoms: C_11  and  C_14 
REMARK    5  A    between atoms: C_11  and  C_12 
REMARK    6  A    between atoms: C_12  and  O_13 
ROOT
HETATM    1  C   LIG     1      24.326  21.867  21.959  1.00  0.00     0.270 C 
HETATM    2  O   LIG     1      24.563  22.079  23.180  1.00  0.00    -0.264 OA
ENDROOT
BRANCH   1   3
HETATM    3  O   LIG     1      25.343  21.965  20.997  1.00  0.00    -0.315 OA
BRANCH   3   4
HETATM    4  C   LIG     1      25.870  23.182  20.460  1.00  0.00     0.136 C 
HETATM    5  C   LIG     1      27.407  23.296  20.691  1.00  0.00     0.068 C 
HETATM    6  C   LIG     1      28.040  24.365  19.771  1.00  0.00     0.225 C 
HETATM    7  N   LIG     1      27.711  23.986  18.395  1.00  0.00     0.093 N 
HETATM    8  C   LIG     1      27.401  25.744  20.007  1.00  0.00     0.038 C 
HETATM    9  C   LIG     1      28.604  24.623  17.409  1.00  0.00     0.310 C 
HETATM   10  C   LIG     1      26.326  24.451  18.273  1.00  0.00     0.225 C 
HETATM   11  C   LIG     1      26.258  25.803  18.997  1.00  0.00     0.038 C 
HETATM   12  C   LIG     1      25.439  23.398  18.978  1.00  0.00     0.068 C 
ENDBRANCH   3   4
ENDBRANCH   1   3
BRANCH   1  13
HETATM   13  C   LIG     1      22.933  21.519  21.510  1.00  0.00     0.142 C 
BRANCH  13  14
HETATM   14  C   LIG     1      22.978  20.604  20.300  1.00  0.00    -0.043 A 
HETATM   15  C   LIG     1      23.183  19.216  20.440  1.00  0.00     0.008 A 
HETATM   16  C   LIG     1      23.218  18.390  19.314  1.00  0.00     0.001 A 
HETATM   17  C   LIG     1      23.060  18.936  18.036  1.00  0.00     0.000 A 
HETATM   18  C   LIG     1      22.853  20.310  17.886  1.00  0.00     0.001 A 
HETATM   19  C   LIG     1      22.809  21.142  19.010  1.00  0.00     0.008 A 
ENDBRANCH  13  14
BRANCH  13  20
HETATM   20  C   LIG     1      22.099  22.787  21.258  1.00  0.00     0.183 C 
BRANCH  20  21
HETATM   21  O   LIG     1      22.817  23.932  21.636  1.00  0.00    -0.400 OA
HETATM   22  H   LIG     1      22.835  23.946  22.627  1.00  0.00     0.209 HD
ENDBRANCH  20  21
ENDBRANCH  13  20
ENDBRANCH   1  13
TORSDOF 6
ENDMDL
MODEL 13
REMARK VINA RESULT:      -5.3     15.628     16.530
REMARK  6 active torsions:
REMARK  status: ('A' for Active; 'I' for Inactive)
REMARK    1  A    between atoms: C_8  and  O_9 
REMARK    2  A    between atoms: O_9  and  C_10 
REMARK    3  A    between atoms: C_10  and  C_11 
REMARK    4  A    between atoms: C_11  and  C_14 
REMARK    5  A    between atoms: C_11  and  C_12 
REMARK    6  A    between atoms: C_12  and  O_13 
ROOT
HETATM    1  C   LIG     1      25.079  22.157  19.538  1.00  0.00     0.270 C 
HETATM    2  O   LIG     1      25.562  21.002  19.690  1.00  0.00    -0.264 OA
ENDROOT
BRANCH   1   3
HETATM    3  O   LIG     1      25.720  23.111  18.733  1.00  0.00    -0.315 OA
BRANCH   3   4
HETATM    4  C   LIG     1      26.887  23.858  19.092  1.00  0.00     0.136 C 
HETATM    5  C   LIG     1      27.869  24.004  17.891  1.00  0.00     0.068 C 
HETATM    6  C   LIG     1      28.896  25.134  18.134  1.00  0.00     0.225 C 
HETATM    7  N   LIG     1      28.127  26.358  18.376  1.00  0.00     0.093 N 
HETATM    8  C   LIG     1      29.711  24.873  19.411  1.00  0.00     0.038 C 
HETATM    9  C   LIG     1      28.933  27.576  18.169  1.00  0.00     0.310 C 
HETATM   10  C   LIG     1      27.720  26.190  19.774  1.00  0.00     0.225 C 
HETATM   11  C   LIG     1      28.927  25.589  20.508  1.00  0.00     0.038 C 
HETATM   12  C   LIG     1      26.524  25.210  19.776  1.00  0.00     0.068 C 
ENDBRANCH   3   4
ENDBRANCH   1   3
BRANCH   1  13
HETATM   13  C   LIG     1      23.804  22.539  20.240  1.00  0.00     0.142 C 
BRANCH  13  14
HETATM   14  C   LIG     1      23.829  22.066  21.682  1.00  0.00    -0.043 A 
HETATM   15  C   LIG     1      24.669  22.675  22.637  1.00  0.00     0.008 A 
HETATM   16  C   LIG     1      24.676  22.227  23.960  1.00  0.00     0.001 A 
HETATM   17  C   LIG     1      23.854  21.163  24.346  1.00  0.00     0.000 A 
HETATM   18  C   LIG     1      23.016  20.554  23.409  1.00  0.00     0.001 A 
HETATM   19  C   LIG     1      22.999  21.003  22.083  1.00  0.00     0.008 A 
ENDBRANCH  13  14
BRANCH  13  20
HETATM   20  C   LIG     1      22.573  22.024  19.473  1.00  0.00     0.183 C 
BRANCH  20  21
HETATM   21  O   LIG     1      22.872  21.867  18.111  1.00  0.00    -0.400 OA
HETATM   22  H   LIG     1      22.958  22.777  17.729  1.00  0.00     0.209 HD
ENDBRANCH  20  21
ENDBRANCH  13  20
ENDBRANCH   1  13
TORSDOF 6
ENDMDL
MODEL 14
REMARK VINA RESULT:      -5.3     16.592     18.538
REMARK  6 active torsions:
REMARK  status: ('A' for Active; 'I' for Inactive)
REMARK    1  A    between atoms: C_8  and  O_9 
REMARK    2  A    between atoms: O_9  and  C_10 
REMARK    3  A    between atoms: C_10  and  C_11 
REMARK    4  A    between atoms: C_11  and  C_14 
REMARK    5  A    between atoms: C_11  and  C_12 
REMARK    6  A    between atoms: C_12  and  O_13 
ROOT
HETATM    1  C   LIG     1      27.018  27.376  32.719  1.00  0.00     0.270 C 
HETATM    2  O   LIG     1      25.805  27.347  32.373  1.00  0.00    -0.264 OA
ENDROOT
BRANCH   1   3
HETATM    3  O   LIG     1      27.383  27.545  34.064  1.00  0.00    -0.315 OA
BRANCH   3   4
HETATM    4  C   LIG     1      26.960  28.615  34.916  1.00  0.00     0.136 C 
HETATM    5  C   LIG     1      27.421  28.394  36.388  1.00  0.00     0.068 C 
HETATM    6  C   LIG     1      27.346  29.703  37.207  1.00  0.00     0.225 C 
HETATM    7  N   LIG     1      28.175  30.687  36.506  1.00  0.00     0.093 N 
HETATM    8  C   LIG     1      25.915  30.267  37.215  1.00  0.00     0.038 C 
HETATM    9  C   LIG     1      28.571  31.810  37.378  1.00  0.00     0.310 C 
HETATM   10  C   LIG     1      27.290  31.112  35.417  1.00  0.00     0.225 C 
HETATM   11  C   LIG     1      25.882  31.218  36.021  1.00  0.00     0.038 C 
HETATM   12  C   LIG     1      27.350  30.008  34.337  1.00  0.00     0.068 C 
ENDBRANCH   3   4
ENDBRANCH   1   3
BRANCH   1  13
HETATM   13  C   LIG     1      28.102  27.248  31.684  1.00  0.00     0.142 C 
BRANCH  13  14
HETATM   14  C   LIG     1      27.726  26.204  30.648  1.00  0.00    -0.043 A 
HETATM   15  C   LIG     1      27.182  26.573  29.401  1.00  0.00     0.008 A 
HETATM   16  C   LIG     1      26.844  25.598  28.459  1.00  0.00     0.001 A 
HETATM   17  C   LIG     1      27.035  24.244  28.752  1.00  0.00     0.000 A 
HETATM   18  C   LIG     1      27.577  23.866  29.984  1.00  0.00     0.001 A 
HETATM   19  C   LIG     1      27.924  24.839  30.928  1.00  0.00     0.008 A 
ENDBRANCH  13  14
BRANCH  13  20
HETATM   20  C   LIG     1      29.465  26.961  32.339  1.00  0.00     0.183 C 
BRANCH  20  21
HETATM   21  O   LIG     1      30.011  28.139  32.871  1.00  0.00    -0.400 OA
HETATM   22  H   LIG     1      30.393  28.648  32.111  1.00  0.00     0.209 HD
ENDBRANCH  20  21
ENDBRANCH  13  20
ENDBRANCH   1  13
TORSDOF 6
ENDMDL
MODEL 15
REMARK VINA RESULT:      -5.2     16.432     18.039
REMARK  6 active torsions:
REMARK  status: ('A' for Active; 'I' for Inactive)
REMARK    1  A    between atoms: C_8  and  O_9 
REMARK    2  A    between atoms: O_9  and  C_10 
REMARK    3  A    between atoms: C_10  and  C_11 
REMARK    4  A    between atoms: C_11  and  C_14 
REMARK    5  A    between atoms: C_11  and  C_12 
REMARK    6  A    between atoms: C_12  and  O_13 
ROOT
HETATM    1  C   LIG     1      27.091  27.408  32.036  1.00  0.00     0.270 C 
HETATM    2  O   LIG     1      25.884  27.324  32.396  1.00  0.00    -0.264 OA
ENDROOT
BRANCH   1   3
HETATM    3  O   LIG     1      28.122  27.520  32.981  1.00  0.00    -0.315 OA
BRANCH   3   4
HETATM    4  C   LIG     1      28.212  28.515  34.006  1.00  0.00     0.136 C 
HETATM    5  C   LIG     1      27.923  29.942  33.449  1.00  0.00     0.068 C 
HETATM    6  C   LIG     1      27.604  30.938  34.587  1.00  0.00     0.225 C 
HETATM    7  N   LIG     1      26.464  30.388  35.324  1.00  0.00     0.093 N 
HETATM    8  C   LIG     1      28.768  31.024  35.588  1.00  0.00     0.038 C 
HETATM    9  C   LIG     1      25.765  31.411  36.124  1.00  0.00     0.310 C 
HETATM   10  C   LIG     1      27.105  29.369  36.160  1.00  0.00     0.225 C 
HETATM   11  C   LIG     1      28.428  29.978  36.647  1.00  0.00     0.038 C 
HETATM   12  C   LIG     1      27.358  28.141  35.254  1.00  0.00     0.068 C 
ENDBRANCH   3   4
ENDBRANCH   1   3
BRANCH   1  13
HETATM   13  C   LIG     1      27.444  27.409  30.573  1.00  0.00     0.142 C 
BRANCH  13  14
HETATM   14  C   LIG     1      27.323  26.010  29.997  1.00  0.00    -0.043 A 
HETATM   15  C   LIG     1      27.889  24.898  30.653  1.00  0.00     0.008 A 
HETATM   16  C   LIG     1      27.765  23.617  30.108  1.00  0.00     0.001 A 
HETATM   17  C   LIG     1      27.085  23.431  28.900  1.00  0.00     0.000 A 
HETATM   18  C   LIG     1      26.517  24.525  28.243  1.00  0.00     0.001 A 
HETATM   19  C   LIG     1      26.632  25.809  28.788  1.00  0.00     0.008 A 
ENDBRANCH  13  14
BRANCH  13  20
HETATM   20  C   LIG     1      28.835  28.024  30.338  1.00  0.00     0.183 C 
BRANCH  20  21
HETATM   21  O   LIG     1      28.948  28.494  29.020  1.00  0.00    -0.400 OA
HETATM   22  H   LIG     1      28.132  28.201  28.540  1.00  0.00     0.209 HD
ENDBRANCH  20  21
ENDBRANCH  13  20
ENDBRANCH   1  13
TORSDOF 6
ENDMDL
MODEL 16
REMARK VINA RESULT:      -5.2     16.387     17.807
REMARK  6 active torsions:
REMARK  status: ('A' for Active; 'I' for Inactive)
REMARK    1  A    between atoms: C_8  and  O_9 
REMARK    2  A    between atoms: O_9  and  C_10 
REMARK    3  A    between atoms: C_10  and  C_11 
REMARK    4  A    between atoms: C_11  and  C_14 
REMARK    5  A    between atoms: C_11  and  C_12 
REMARK    6  A    between atoms: C_12  and  O_13 
ROOT
HETATM    1  C   LIG     1      26.989  27.390  33.290  1.00  0.00     0.270 C 
HETATM    2  O   LIG     1      26.257  26.556  33.892  1.00  0.00    -0.264 OA
ENDROOT
BRANCH   1   3
HETATM    3  O   LIG     1      26.943  27.517  31.893  1.00  0.00    -0.315 OA
BRANCH   3   4
HETATM    4  C   LIG     1      27.045  26.443  30.953  1.00  0.00     0.136 C 
HETATM    5  C   LIG     1      27.194  26.969  29.493  1.00  0.00     0.068 C 
HETATM    6  C   LIG     1      27.719  25.866  28.546  1.00  0.00     0.225 C 
HETATM    7  N   LIG     1      28.992  25.402  29.102  1.00  0.00     0.093 N 
HETATM    8  C   LIG     1      26.778  24.650  28.540  1.00  0.00     0.038 C 
HETATM    9  C   LIG     1      29.821  24.703  28.102  1.00  0.00     0.310 C 
HETATM   10  C   LIG     1      28.548  24.509  30.177  1.00  0.00     0.225 C 
HETATM   11  C   LIG     1      27.340  23.738  29.628  1.00  0.00     0.038 C 
HETATM   12  C   LIG     1      28.138  25.412  31.365  1.00  0.00     0.068 C 
ENDBRANCH   3   4
ENDBRANCH   1   3
BRANCH   1  13
HETATM   13  C   LIG     1      27.944  28.254  34.067  1.00  0.00     0.142 C 
BRANCH  13  14
HETATM   14  C   LIG     1      27.202  29.041  35.131  1.00  0.00    -0.043 A 
HETATM   15  C   LIG     1      27.136  28.586  36.464  1.00  0.00     0.008 A 
HETATM   16  C   LIG     1      26.450  29.326  37.431  1.00  0.00     0.001 A 
HETATM   17  C   LIG     1      25.815  30.522  37.080  1.00  0.00     0.000 A 
HETATM   18  C   LIG     1      25.876  30.984  35.763  1.00  0.00     0.001 A 
HETATM   19  C   LIG     1      26.568  30.251  34.792  1.00  0.00     0.008 A 
ENDBRANCH  13  14
BRANCH  13  20
HETATM   20  C   LIG     1      28.762  29.160  33.129  1.00  0.00     0.183 C 
BRANCH  20  21
HETATM   21  O   LIG     1      29.697  28.403  32.407  1.00  0.00    -0.400 OA
HETATM   22  H   LIG     1      29.415  27.456  32.475  1.00  0.00     0.209 HD
ENDBRANCH  20  21
ENDBRANCH  13  20
ENDBRANCH   1  13
TORSDOF 6
ENDMDL
MODEL 17
REMARK VINA RESULT:      -5.1     16.458     17.754
REMARK  6 active torsions:
REMARK  status: ('A' for Active; 'I' for Inactive)
REMARK    1  A    between atoms: C_8  and  O_9 
REMARK    2  A    between atoms: O_9  and  C_10 
REMARK    3  A    between atoms: C_10  and  C_11 
REMARK    4  A    between atoms: C_11  and  C_14 
REMARK    5  A    between atoms: C_11  and  C_12 
REMARK    6  A    between atoms: C_12  and  O_13 
ROOT
HETATM    1  C   LIG     1      27.995  28.419  33.692  1.00  0.00     0.270 C 
HETATM    2  O   LIG     1      29.127  28.760  34.136  1.00  0.00    -0.264 OA
ENDROOT
BRANCH   1   3
HETATM    3  O   LIG     1      27.731  28.408  32.314  1.00  0.00    -0.315 OA
BRANCH   3   4
HETATM    4  C   LIG     1      28.116  27.377  31.399  1.00  0.00     0.136 C 
HETATM    5  C   LIG     1      27.196  26.125  31.522  1.00  0.00     0.068 C 
HETATM    6  C   LIG     1      27.326  25.204  30.287  1.00  0.00     0.225 C 
HETATM    7  N   LIG     1      26.999  26.021  29.115  1.00  0.00     0.093 N 
HETATM    8  C   LIG     1      28.778  24.735  30.099  1.00  0.00     0.038 C 
HETATM    9  C   LIG     1      26.635  25.202  27.944  1.00  0.00     0.310 C 
HETATM   10  C   LIG     1      28.244  26.767  28.907  1.00  0.00     0.225 C 
HETATM   11  C   LIG     1      29.390  25.778  29.167  1.00  0.00     0.038 C 
HETATM   12  C   LIG     1      28.255  27.915  29.943  1.00  0.00     0.068 C 
ENDBRANCH   3   4
ENDBRANCH   1   3
BRANCH   1  13
HETATM   13  C   LIG     1      26.897  28.033  34.645  1.00  0.00     0.142 C 
BRANCH  13  14
HETATM   14  C   LIG     1      26.605  29.169  35.608  1.00  0.00    -0.043 A 
HETATM   15  C   LIG     1      26.160  30.424  35.144  1.00  0.00     0.008 A 
HETATM   16  C   LIG     1      25.893  31.458  36.046  1.00  0.00     0.001 A 
HETATM   17  C   LIG     1      26.075  31.256  37.418  1.00  0.00     0.000 A 
HETATM   18  C   LIG     1      26.513  30.016  37.889  1.00  0.00     0.001 A 
HETATM   19  C   LIG     1      26.774  28.975  36.991  1.00  0.00     0.008 A 
ENDBRANCH  13  14
BRANCH  13  20
HETATM   20  C   LIG     1      27.230  26.718  35.372  1.00  0.00     0.183 C 
BRANCH  20  21
HETATM   21  O   LIG     1      28.397  26.145  34.842  1.00  0.00    -0.400 OA
HETATM   22  H   LIG     1      28.139  25.265  34.466  1.00  0.00     0.209 HD
ENDBRANCH  20  21
ENDBRANCH  13  20
ENDBRANCH   1  13
TORSDOF 6
ENDMDL
MODEL 18
REMARK VINA RESULT:      -5.0     16.433     18.398
REMARK  6 active torsions:
REMARK  status: ('A' for Active; 'I' for Inactive)
REMARK    1  A    between atoms: C_8  and  O_9 
REMARK    2  A    between atoms: O_9  and  C_10 
REMARK    3  A    between atoms: C_10  and  C_11 
REMARK    4  A    between atoms: C_11  and  C_14 
REMARK    5  A    between atoms: C_11  and  C_12 
REMARK    6  A    between atoms: C_12  and  O_13 
ROOT
HETATM    1  C   LIG     1      27.155  27.065  32.792  1.00  0.00     0.270 C 
HETATM    2  O   LIG     1      26.104  27.373  32.165  1.00  0.00    -0.264 OA
ENDROOT
BRANCH   1   3
HETATM    3  O   LIG     1      27.259  27.270  34.176  1.00  0.00    -0.315 OA
BRANCH   3   4
HETATM    4  C   LIG     1      26.886  28.464  34.874  1.00  0.00     0.136 C 
HETATM    5  C   LIG     1      27.197  28.360  36.398  1.00  0.00     0.068 C 
HETATM    6  C   LIG     1      27.197  29.752  37.070  1.00  0.00     0.225 C 
HETATM    7  N   LIG     1      28.183  30.566  36.355  1.00  0.00     0.093 N 
HETATM    8  C   LIG     1      25.840  30.453  36.888  1.00  0.00     0.038 C 
HETATM    9  C   LIG     1      28.625  31.733  37.143  1.00  0.00     0.310 C 
HETATM   10  C   LIG     1      27.442  30.956  35.152  1.00  0.00     0.225 C 
HETATM   11  C   LIG     1      26.009  31.266  35.607  1.00  0.00     0.038 C 
HETATM   12  C   LIG     1      27.471  29.739  34.197  1.00  0.00     0.068 C 
ENDBRANCH   3   4
ENDBRANCH   1   3
BRANCH   1  13
HETATM   13  C   LIG     1      28.331  26.485  32.054  1.00  0.00     0.142 C 
BRANCH  13  14
HETATM   14  C   LIG     1      28.794  27.433  30.963  1.00  0.00    -0.043 A 
HETATM   15  C   LIG     1      29.311  28.707  31.273  1.00  0.00     0.008 A 
HETATM   16  C   LIG     1      29.735  29.565  30.254  1.00  0.00     0.001 A 
HETATM   17  C   LIG     1      29.639  29.168  28.916  1.00  0.00     0.000 A 
HETATM   18  C   LIG     1      29.130  27.907  28.598  1.00  0.00     0.001 A 
HETATM   19  C   LIG     1      28.711  27.040  29.614  1.00  0.00     0.008 A 
ENDBRANCH  13  14
BRANCH  13  20
HETATM   20  C   LIG     1      28.009  25.080  31.515  1.00  0.00     0.183 C 
BRANCH  20  21
HETATM   21  O   LIG     1      27.995  24.144  32.560  1.00  0.00    -0.400 OA
HETATM   22  H   LIG     1      28.941  23.934  32.771  1.00  0.00     0.209 HD
ENDBRANCH  20  21
ENDBRANCH  13  20
ENDBRANCH   1  13
TORSDOF 6
ENDMDL
MODEL 19
REMARK VINA RESULT:      -5.0     15.577     17.421
REMARK  6 active torsions:
REMARK  status: ('A' for Active; 'I' for Inactive)
REMARK    1  A    between atoms: C_8  and  O_9 
REMARK    2  A    between atoms: O_9  and  C_10 
REMARK    3  A    between atoms: C_10  and  C_11 
REMARK    4  A    between atoms: C_11  and  C_14 
REMARK    5  A    between atoms: C_11  and  C_12 
REMARK    6  A    between atoms: C_12  and  O_13 
ROOT
HETATM    1  C   LIG     1      24.314  22.658  21.907  1.00  0.00     0.270 C 
HETATM    2  O   LIG     1      23.356  23.441  21.661  1.00  0.00    -0.264 OA
ENDROOT
BRANCH   1   3
HETATM    3  O   LIG     1      24.582  22.231  23.217  1.00  0.00    -0.315 OA
BRANCH   3   4
HETATM    4  C   LIG     1      25.346  22.951  24.190  1.00  0.00     0.136 C 
HETATM    5  C   LIG     1      24.723  22.831  25.614  1.00  0.00     0.068 C 
HETATM    6  C   LIG     1      25.737  23.232  26.710  1.00  0.00     0.225 C 
HETATM    7  N   LIG     1      26.907  22.367  26.540  1.00  0.00     0.093 N 
HETATM    8  C   LIG     1      26.229  24.675  26.504  1.00  0.00     0.038 C 
HETATM    9  C   LIG     1      27.742  22.307  27.754  1.00  0.00     0.310 C 
HETATM   10  C   LIG     1      27.601  23.009  25.419  1.00  0.00     0.225 C 
HETATM   11  C   LIG     1      27.483  24.523  25.647  1.00  0.00     0.038 C 
HETATM   12  C   LIG     1      26.858  22.582  24.131  1.00  0.00     0.068 C 
ENDBRANCH   3   4
ENDBRANCH   1   3
BRANCH   1  13
HETATM   13  C   LIG     1      25.203  22.179  20.792  1.00  0.00     0.142 C 
BRANCH  13  14
HETATM   14  C   LIG     1      25.854  23.357  20.089  1.00  0.00    -0.043 A 
HETATM   15  C   LIG     1      25.658  23.586  18.712  1.00  0.00     0.008 A 
HETATM   16  C   LIG     1      26.264  24.677  18.084  1.00  0.00     0.001 A 
HETATM   17  C   LIG     1      27.080  25.546  18.817  1.00  0.00     0.000 A 
HETATM   18  C   LIG     1      27.279  25.330  20.183  1.00  0.00     0.001 A 
HETATM   19  C   LIG     1      26.668  24.243  20.819  1.00  0.00     0.008 A 
ENDBRANCH  13  14
BRANCH  13  20
HETATM   20  C   LIG     1      24.433  21.268  19.820  1.00  0.00     0.183 C 
BRANCH  20  21
HETATM   21  O   LIG     1      23.218  20.857  20.390  1.00  0.00    -0.400 OA
HETATM   22  H   LIG     1      23.390  19.988  20.836  1.00  0.00     0.209 HD
ENDBRANCH  20  21
ENDBRANCH  13  20
ENDBRANCH   1  13
TORSDOF 6
ENDMDL
