MODEL 1
REMARK VINA RESULT:      -9.3      0.000      0.000
REMARK  2 active torsions:
REMARK  status: ('A' for Active; 'I' for Inactive)
REMARK    1  A    between atoms: C_1  and  C_2 
REMARK    2  A    between atoms: C_2  and  C_3 
ROOT
HETATM    1  C   LIG     1      16.459  37.355  22.773  1.00  0.00     0.077 C 
ENDROOT
BRANCH   1   2
HETATM    2  C   LIG     1      17.103  36.772  24.002  1.00  0.00    -0.054 A 
HETATM    3  C   LIG     1      17.077  35.385  24.231  1.00  0.00     0.007 A 
HETATM    4  C   LIG     1      17.649  34.853  25.391  1.00  0.00     0.001 A 
HETATM    5  C   LIG     1      18.244  35.699  26.331  1.00  0.00     0.000 A 
HETATM    6  C   LIG     1      18.266  37.079  26.114  1.00  0.00     0.001 A 
HETATM    7  C   LIG     1      17.693  37.616  24.956  1.00  0.00     0.007 A 
ENDBRANCH   1   2
BRANCH   1   8
HETATM    8  C   LIG     1      17.493  37.617  21.710  1.00  0.00    -0.054 A 
HETATM    9  C   LIG     1      18.133  38.867  21.631  1.00  0.00     0.007 A 
HETATM   10  C   LIG     1      19.086  39.107  20.636  1.00  0.00     0.001 A 
HETATM   11  C   LIG     1      19.408  38.106  19.717  1.00  0.00     0.000 A 
HETATM   12  C   LIG     1      18.777  36.861  19.789  1.00  0.00     0.001 A 
HETATM   13  C   LIG     1      17.823  36.615  20.782  1.00  0.00     0.007 A 
ENDBRANCH   1   8
TORSDOF 2
ENDMDL
MODEL 2
REMARK VINA RESULT:      -9.3      0.029      5.241
REMARK  2 active torsions:
REMARK  status: ('A' for Active; 'I' for Inactive)
REMARK    1  A    between atoms: C_1  and  C_2 
REMARK    2  A    between atoms: C_2  and  C_3 
ROOT
HETATM    1  C   LIG     1      16.440  37.324  22.757  1.00  0.00     0.077 C 
ENDROOT
BRANCH   1   2
HETATM    2  C   LIG     1      17.487  37.600  21.712  1.00  0.00    -0.054 A 
HETATM    3  C   LIG     1      18.092  38.866  21.625  1.00  0.00     0.007 A 
HETATM    4  C   LIG     1      19.041  39.125  20.632  1.00  0.00     0.001 A 
HETATM    5  C   LIG     1      19.387  38.128  19.715  1.00  0.00     0.000 A 
HETATM    6  C   LIG     1      18.782  36.870  19.789  1.00  0.00     0.001 A 
HETATM    7  C   LIG     1      17.832  36.607  20.781  1.00  0.00     0.007 A 
ENDBRANCH   1   2
BRANCH   1   8
HETATM    8  C   LIG     1      17.073  36.760  24.001  1.00  0.00    -0.054 A 
HETATM    9  C   LIG     1      17.077  35.374  24.234  1.00  0.00     0.007 A 
HETATM   10  C   LIG     1      17.659  34.857  25.395  1.00  0.00     0.001 A 
HETATM   11  C   LIG     1      18.240  35.716  26.331  1.00  0.00     0.000 A 
HETATM   12  C   LIG     1      18.241  37.096  26.107  1.00  0.00     0.001 A 
HETATM   13  C   LIG     1      17.660  37.618  24.947  1.00  0.00     0.007 A 
ENDBRANCH   1   8
TORSDOF 2
ENDMDL
MODEL 3
REMARK VINA RESULT:      -7.9      1.579      5.119
REMARK  2 active torsions:
REMARK  status: ('A' for Active; 'I' for Inactive)
REMARK    1  A    between atoms: C_1  and  C_2 
REMARK    2  A    between atoms: C_2  and  C_3 
ROOT
HETATM    1  C   LIG     1      16.633  37.762  23.490  1.00  0.00     0.077 C 
ENDROOT
BRANCH   1   2
HETATM    2  C   LIG     1      16.342  36.918  22.278  1.00  0.00    -0.054 A 
HETATM    3  C   LIG     1      15.060  36.377  22.078  1.00  0.00     0.007 A 
HETATM    4  C   LIG     1      14.804  35.568  20.967  1.00  0.00     0.001 A 
HETATM    5  C   LIG     1      15.824  35.288  20.053  1.00  0.00     0.000 A 
HETATM    6  C   LIG     1      17.104  35.815  20.251  1.00  0.00     0.001 A 
HETATM    7  C   LIG     1      17.364  36.623  21.362  1.00  0.00     0.007 A 
ENDBRANCH   1   2
BRANCH   1   8
HETATM    8  C   LIG     1      17.259  36.926  24.575  1.00  0.00    -0.054 A 
HETATM    9  C   LIG     1      17.082  35.532  24.593  1.00  0.00     0.007 A 
HETATM   10  C   LIG     1      17.658  34.763  25.609  1.00  0.00     0.001 A 
HETATM   11  C   LIG     1      18.413  35.377  26.611  1.00  0.00     0.000 A 
HETATM   12  C   LIG     1      18.593  36.763  26.601  1.00  0.00     0.001 A 
HETATM   13  C   LIG     1      18.020  37.536  25.588  1.00  0.00     0.007 A 
ENDBRANCH   1   8
TORSDOF 2
ENDMDL
