REMARK  3 active torsions:
REMARK  status: ('A' for Active; 'I' for Inactive)
REMARK       I    between atoms: C_2  and  N_7 
REMARK    1  A    between atoms: C_2  and  O_3 
REMARK    2  A    between atoms: O_3  and  C_4 
REMARK    3  A    between atoms: N_7  and  C_8 
ROOT
HETATM    1  O   LIG     1      -0.432   0.920   1.072  1.00  0.00    -0.238 OA
HETATM    2  C   LIG     1      -0.573  -0.155   0.427  1.00  0.00     0.365 C 
HETATM    3  N   LIG     1       0.568  -0.952   0.080  1.00  0.00    -0.303 N 
HETATM    4  H   LIG     1       0.391  -1.942  -0.202  1.00  0.00     0.171 HD
ENDROOT
BRANCH   3   5
HETATM    5  C   LIG     1       1.931  -0.510   0.200  1.00  0.00     0.038 A 
HETATM    6  C   LIG     1       2.932  -1.446   0.505  1.00  0.00     0.029 A 
HETATM    7  C   LIG     1       4.268  -1.046   0.606  1.00  0.00     0.004 A 
HETATM    8  C   LIG     1       4.618   0.288   0.389  1.00  0.00     0.024 A 
HETATM    9  C   LIG     1       3.634   1.225   0.061  1.00  0.00     0.036 A 
HETATM   10  C   LIG     1       2.295   0.828  -0.041  1.00  0.00     0.053 A 
HETATM   11 CL   LIG     1       4.078   2.896  -0.238  1.00  0.00    -0.084 Cl
ENDBRANCH   3   5
BRANCH   2  12
HETATM   12  O   LIG     1      -1.850  -0.614   0.085  1.00  0.00    -0.299 OA
BRANCH  12  13
HETATM   13  C   LIG     1      -3.048   0.117   0.350  1.00  0.00     0.125 C 
HETATM   14  C   LIG     1      -4.241  -0.829   0.227  1.00  0.00     0.040 C 
HETATM   15  C   LIG     1      -3.186   1.283  -0.633  1.00  0.00     0.040 C 
ENDBRANCH  12  13
ENDBRANCH   2  12
TORSDOF 3
