MODEL 1
REMARK VINA RESULT:      -8.9      0.000      0.000
REMARK  4 active torsions:
REMARK  status: ('A' for Active; 'I' for Inactive)
REMARK    1  A    between atoms: N_1  and  C_2 
REMARK    2  A    between atoms: C_5  and  C_8 
REMARK    3  A    between atoms: C_8  and  C_9 
REMARK    4  A    between atoms: C_12  and  N_13 
ROOT
HETATM    1  C   LIG     1      16.490  36.750  21.844  1.00  0.00     0.077 C 
ENDROOT
BRANCH   1   2
HETATM    2  C   LIG     1      16.895  36.546  23.279  1.00  0.00    -0.054 A 
HETATM    3  C   LIG     1      17.125  35.253  23.777  1.00  0.00     0.009 A 
HETATM    4  C   LIG     1      17.531  35.070  25.103  1.00  0.00     0.029 A 
HETATM    5  C   LIG     1      17.719  36.177  25.943  1.00  0.00     0.025 A 
HETATM    6  C   LIG     1      17.499  37.469  25.445  1.00  0.00     0.029 A 
HETATM    7  C   LIG     1      17.093  37.653  24.120  1.00  0.00     0.009 A 
BRANCH   5   8
HETATM    8  N   LIG     1      18.136  35.989  27.299  1.00  0.00    -0.399 N 
HETATM    9  H   LIG     1      17.783  36.614  28.057  1.00  0.00     0.156 HD
HETATM   10  H   LIG     1      18.798  35.222  27.553  1.00  0.00     0.156 HD
ENDBRANCH   5   8
ENDBRANCH   1   2
BRANCH   1  11
HETATM   11  C   LIG     1      17.598  37.417  21.074  1.00  0.00    -0.054 A 
HETATM   12  C   LIG     1      17.880  38.778  21.278  1.00  0.00     0.009 A 
HETATM   13  C   LIG     1      18.901  39.403  20.558  1.00  0.00     0.029 A 
HETATM   14  C   LIG     1      19.654  38.678  19.625  1.00  0.00     0.025 A 
HETATM   15  C   LIG     1      19.375  37.319  19.418  1.00  0.00     0.029 A 
HETATM   16  C   LIG     1      18.354  36.693  20.137  1.00  0.00     0.009 A 
BRANCH  14  17
HETATM   17  N   LIG     1      20.698  39.319  18.888  1.00  0.00    -0.399 N 
HETATM   18  H   LIG     1      21.345  39.994  19.355  1.00  0.00     0.156 HD
HETATM   19  H   LIG     1      20.834  39.122  17.872  1.00  0.00     0.156 HD
ENDBRANCH  14  17
ENDBRANCH   1  11
TORSDOF 4
ENDMDL
MODEL 2
REMARK VINA RESULT:      -8.9      0.040      5.696
REMARK  4 active torsions:
REMARK  status: ('A' for Active; 'I' for Inactive)
REMARK    1  A    between atoms: N_1  and  C_2 
REMARK    2  A    between atoms: C_5  and  C_8 
REMARK    3  A    between atoms: C_8  and  C_9 
REMARK    4  A    between atoms: C_12  and  N_13 
ROOT
HETATM    1  C   LIG     1      16.507  36.762  21.876  1.00  0.00     0.077 C 
ENDROOT
BRANCH   1   2
HETATM    2  C   LIG     1      17.610  37.431  21.101  1.00  0.00    -0.054 A 
HETATM    3  C   LIG     1      18.343  36.713  20.143  1.00  0.00     0.009 A 
HETATM    4  C   LIG     1      19.346  37.346  19.401  1.00  0.00     0.029 A 
HETATM    5  C   LIG     1      19.623  38.706  19.605  1.00  0.00     0.025 A 
HETATM    6  C   LIG     1      18.885  39.427  20.554  1.00  0.00     0.029 A 
HETATM    7  C   LIG     1      17.882  38.795  21.296  1.00  0.00     0.009 A 
BRANCH   5   8
HETATM    8  N   LIG     1      20.648  39.353  18.847  1.00  0.00    -0.399 N 
HETATM    9  H   LIG     1      21.346  39.974  19.313  1.00  0.00     0.156 HD
HETATM   10  H   LIG     1      20.716  39.216  17.814  1.00  0.00     0.156 HD
ENDBRANCH   5   8
ENDBRANCH   1   2
BRANCH   1  11
HETATM   11  C   LIG     1      16.924  36.549  23.307  1.00  0.00    -0.054 A 
HETATM   12  C   LIG     1      17.115  37.650  24.159  1.00  0.00     0.009 A 
HETATM   13  C   LIG     1      17.511  37.457  25.484  1.00  0.00     0.029 A 
HETATM   14  C   LIG     1      17.722  36.162  25.977  1.00  0.00     0.025 A 
HETATM   15  C   LIG     1      17.533  35.061  25.131  1.00  0.00     0.029 A 
HETATM   16  C   LIG     1      17.137  35.253  23.804  1.00  0.00     0.009 A 
BRANCH  14  17
HETATM   17  N   LIG     1      18.128  35.966  27.334  1.00  0.00    -0.399 N 
HETATM   18  H   LIG     1      19.040  35.507  27.558  1.00  0.00     0.156 HD
HETATM   19  H   LIG     1      17.522  36.278  28.124  1.00  0.00     0.156 HD
ENDBRANCH  14  17
ENDBRANCH   1  11
TORSDOF 4
ENDMDL
MODEL 3
REMARK VINA RESULT:      -7.1      3.811      5.684
REMARK  4 active torsions:
REMARK  status: ('A' for Active; 'I' for Inactive)
REMARK    1  A    between atoms: N_1  and  C_2 
REMARK    2  A    between atoms: C_5  and  C_8 
REMARK    3  A    between atoms: C_8  and  C_9 
REMARK    4  A    between atoms: C_12  and  N_13 
ROOT
HETATM    1  C   LIG     1      16.290  34.923  21.617  1.00  0.00     0.077 C 
ENDROOT
BRANCH   1   2
HETATM    2  C   LIG     1      17.029  36.200  21.322  1.00  0.00    -0.054 A 
HETATM    3  C   LIG     1      16.777  37.358  22.074  1.00  0.00     0.009 A 
HETATM    4  C   LIG     1      17.488  38.535  21.818  1.00  0.00     0.029 A 
HETATM    5  C   LIG     1      18.464  38.564  20.811  1.00  0.00     0.025 A 
HETATM    6  C   LIG     1      18.725  37.406  20.066  1.00  0.00     0.029 A 
HETATM    7  C   LIG     1      18.014  36.229  20.322  1.00  0.00     0.009 A 
BRANCH   5   8
HETATM    8  N   LIG     1      19.193  39.768  20.550  1.00  0.00    -0.399 N 
HETATM    9  H   LIG     1      20.230  39.799  20.663  1.00  0.00     0.156 HD
HETATM   10  H   LIG     1      18.699  40.634  20.240  1.00  0.00     0.156 HD
ENDBRANCH   5   8
ENDBRANCH   1   2
BRANCH   1  11
HETATM   11  C   LIG     1      15.840  34.267  20.339  1.00  0.00    -0.054 A 
HETATM   12  C   LIG     1      15.682  32.872  20.278  1.00  0.00     0.009 A 
HETATM   13  C   LIG     1      15.274  32.259  19.091  1.00  0.00     0.029 A 
HETATM   14  C   LIG     1      15.020  33.030  17.949  1.00  0.00     0.025 A 
HETATM   15  C   LIG     1      15.177  34.423  18.005  1.00  0.00     0.029 A 
HETATM   16  C   LIG     1      15.585  35.037  19.193  1.00  0.00     0.009 A 
BRANCH  14  17
HETATM   17  N   LIG     1      14.603  32.402  16.734  1.00  0.00    -0.399 N 
HETATM   18  H   LIG     1      13.709  32.678  16.268  1.00  0.00     0.156 HD
HETATM   19  H   LIG     1      15.185  31.658  16.290  1.00  0.00     0.156 HD
ENDBRANCH  14  17
ENDBRANCH   1  11
TORSDOF 4
ENDMDL
MODEL 4
REMARK VINA RESULT:      -7.1      3.788      5.439
REMARK  4 active torsions:
REMARK  status: ('A' for Active; 'I' for Inactive)
REMARK    1  A    between atoms: N_1  and  C_2 
REMARK    2  A    between atoms: C_5  and  C_8 
REMARK    3  A    between atoms: C_8  and  C_9 
REMARK    4  A    between atoms: C_12  and  N_13 
ROOT
HETATM    1  C   LIG     1      16.147  35.023  21.613  1.00  0.00     0.077 C 
ENDROOT
BRANCH   1   2
HETATM    2  C   LIG     1      15.759  34.318  20.341  1.00  0.00    -0.054 A 
HETATM    3  C   LIG     1      15.527  35.049  19.165  1.00  0.00     0.009 A 
HETATM    4  C   LIG     1      15.197  34.388  17.977  1.00  0.00     0.029 A 
HETATM    5  C   LIG     1      15.103  32.989  17.951  1.00  0.00     0.025 A 
HETATM    6  C   LIG     1      15.345  32.257  19.121  1.00  0.00     0.029 A 
HETATM    7  C   LIG     1      15.675  32.917  20.310  1.00  0.00     0.009 A 
BRANCH   5   8
HETATM    8  N   LIG     1      14.768  32.313  16.736  1.00  0.00    -0.399 N 
HETATM    9  H   LIG     1      14.497  32.851  15.882  1.00  0.00     0.156 HD
HETATM   10  H   LIG     1      14.788  31.271  16.681  1.00  0.00     0.156 HD
ENDBRANCH   5   8
ENDBRANCH   1   2
BRANCH   1  11
HETATM   11  C   LIG     1      16.998  36.228  21.310  1.00  0.00    -0.054 A 
HETATM   12  C   LIG     1      16.817  37.420  22.030  1.00  0.00     0.009 A 
HETATM   13  C   LIG     1      17.598  38.542  21.744  1.00  0.00     0.029 A 
HETATM   14  C   LIG     1      18.569  38.490  20.736  1.00  0.00     0.025 A 
HETATM   15  C   LIG     1      18.753  37.302  20.014  1.00  0.00     0.029 A 
HETATM   16  C   LIG     1      17.972  36.178  20.299  1.00  0.00     0.009 A 
BRANCH  14  17
HETATM   17  N   LIG     1      19.367  39.639  20.444  1.00  0.00    -0.399 N 
HETATM   18  H   LIG     1      19.803  40.197  21.213  1.00  0.00     0.156 HD
HETATM   19  H   LIG     1      19.530  39.941  19.457  1.00  0.00     0.156 HD
ENDBRANCH  14  17
ENDBRANCH   1  11
TORSDOF 4
ENDMDL
MODEL 5
REMARK VINA RESULT:      -7.1      3.785      5.604
REMARK  4 active torsions:
REMARK  status: ('A' for Active; 'I' for Inactive)
REMARK    1  A    between atoms: N_1  and  C_2 
REMARK    2  A    between atoms: C_5  and  C_8 
REMARK    3  A    between atoms: C_8  and  C_9 
REMARK    4  A    between atoms: C_12  and  N_13 
ROOT
HETATM    1  C   LIG     1      16.129  35.040  21.619  1.00  0.00     0.077 C 
ENDROOT
BRANCH   1   2
HETATM    2  C   LIG     1      16.998  36.234  21.325  1.00  0.00    -0.054 A 
HETATM    3  C   LIG     1      17.967  36.177  20.311  1.00  0.00     0.009 A 
HETATM    4  C   LIG     1      18.751  37.298  20.020  1.00  0.00     0.029 A 
HETATM    5  C   LIG     1      18.570  38.490  20.736  1.00  0.00     0.025 A 
HETATM    6  C   LIG     1      17.596  38.553  21.742  1.00  0.00     0.029 A 
HETATM    7  C   LIG     1      16.812  37.432  22.034  1.00  0.00     0.009 A 
BRANCH   5   8
HETATM    8  N   LIG     1      19.371  39.638  20.438  1.00  0.00    -0.399 N 
HETATM    9  H   LIG     1      20.214  39.556  19.827  1.00  0.00     0.156 HD
HETATM   10  H   LIG     1      19.125  40.576  20.825  1.00  0.00     0.156 HD
ENDBRANCH   5   8
ENDBRANCH   1   2
BRANCH   1  11
HETATM   11  C   LIG     1      15.764  34.328  20.343  1.00  0.00    -0.054 A 
HETATM   12  C   LIG     1      15.676  32.926  20.317  1.00  0.00     0.009 A 
HETATM   13  C   LIG     1      15.348  32.262  19.133  1.00  0.00     0.029 A 
HETATM   14  C   LIG     1      15.104  32.987  17.960  1.00  0.00     0.025 A 
HETATM   15  C   LIG     1      15.192  34.387  17.981  1.00  0.00     0.029 A 
HETATM   16  C   LIG     1      15.521  35.053  19.165  1.00  0.00     0.009 A 
BRANCH  14  17
HETATM   17  N   LIG     1      14.769  32.306  16.748  1.00  0.00    -0.399 N 
HETATM   18  H   LIG     1      13.775  32.081  16.519  1.00  0.00     0.156 HD
HETATM   19  H   LIG     1      15.511  32.023  16.071  1.00  0.00     0.156 HD
ENDBRANCH  14  17
ENDBRANCH   1  11
TORSDOF 4
ENDMDL
MODEL 6
REMARK VINA RESULT:      -6.4      2.541      3.241
REMARK  4 active torsions:
REMARK  status: ('A' for Active; 'I' for Inactive)
REMARK    1  A    between atoms: N_1  and  C_2 
REMARK    2  A    between atoms: C_5  and  C_8 
REMARK    3  A    between atoms: C_8  and  C_9 
REMARK    4  A    between atoms: C_12  and  N_13 
ROOT
HETATM    1  C   LIG     1      16.526  37.747  23.246  1.00  0.00     0.077 C 
ENDROOT
BRANCH   1   2
HETATM    2  C   LIG     1      17.161  36.951  24.354  1.00  0.00    -0.054 A 
HETATM    3  C   LIG     1      17.008  35.556  24.406  1.00  0.00     0.009 A 
HETATM    4  C   LIG     1      17.625  34.816  25.419  1.00  0.00     0.029 A 
HETATM    5  C   LIG     1      18.408  35.461  26.388  1.00  0.00     0.025 A 
HETATM    6  C   LIG     1      18.571  36.852  26.332  1.00  0.00     0.029 A 
HETATM    7  C   LIG     1      17.953  37.593  25.319  1.00  0.00     0.009 A 
BRANCH   5   8
HETATM    8  N   LIG     1      19.040  34.703  27.423  1.00  0.00    -0.399 N 
HETATM    9  H   LIG     1      18.990  35.014  28.419  1.00  0.00     0.156 HD
HETATM   10  H   LIG     1      19.562  33.827  27.201  1.00  0.00     0.156 HD
ENDBRANCH   5   8
ENDBRANCH   1   2
BRANCH   1  11
HETATM   11  C   LIG     1      16.254  36.868  22.054  1.00  0.00    -0.054 A 
HETATM   12  C   LIG     1      17.275  36.597  21.129  1.00  0.00     0.009 A 
HETATM   13  C   LIG     1      17.024  35.790  20.017  1.00  0.00     0.029 A 
HETATM   14  C   LIG     1      15.750  35.243  19.814  1.00  0.00     0.025 A 
HETATM   15  C   LIG     1      14.727  35.512  20.735  1.00  0.00     0.029 A 
HETATM   16  C   LIG     1      14.977  36.320  21.848  1.00  0.00     0.009 A 
BRANCH  14  17
HETATM   17  N   LIG     1      15.493  34.417  18.675  1.00  0.00    -0.399 N 
HETATM   18  H   LIG     1      14.537  34.038  18.494  1.00  0.00     0.156 HD
HETATM   19  H   LIG     1      16.257  34.180  18.003  1.00  0.00     0.156 HD
ENDBRANCH  14  17
ENDBRANCH   1  11
TORSDOF 4
ENDMDL
MODEL 7
REMARK VINA RESULT:      -6.3      7.786      9.059
REMARK  4 active torsions:
REMARK  status: ('A' for Active; 'I' for Inactive)
REMARK    1  A    between atoms: N_1  and  C_2 
REMARK    2  A    between atoms: C_5  and  C_8 
REMARK    3  A    between atoms: C_8  and  C_9 
REMARK    4  A    between atoms: C_12  and  N_13 
ROOT
HETATM    1  C   LIG     1      15.812  32.907  16.007  1.00  0.00     0.077 C 
ENDROOT
BRANCH   1   2
HETATM    2  C   LIG     1      15.542  33.157  17.466  1.00  0.00    -0.054 A 
HETATM    3  C   LIG     1      15.414  32.082  18.361  1.00  0.00     0.009 A 
HETATM    4  C   LIG     1      15.194  32.319  19.722  1.00  0.00     0.029 A 
HETATM    5  C   LIG     1      15.105  33.632  20.204  1.00  0.00     0.025 A 
HETATM    6  C   LIG     1      15.243  34.707  19.315  1.00  0.00     0.029 A 
HETATM    7  C   LIG     1      15.463  34.471  17.954  1.00  0.00     0.009 A 
BRANCH   5   8
HETATM    8  N   LIG     1      14.881  33.874  21.596  1.00  0.00    -0.399 N 
HETATM    9  H   LIG     1      14.354  33.187  22.180  1.00  0.00     0.156 HD
HETATM   10  H   LIG     1      15.242  34.741  22.053  1.00  0.00     0.156 HD
ENDBRANCH   5   8
ENDBRANCH   1   2
BRANCH   1  11
HETATM   11  C   LIG     1      14.992  31.746  15.510  1.00  0.00    -0.054 A 
HETATM   12  C   LIG     1      15.499  30.901  14.509  1.00  0.00     0.009 A 
HETATM   13  C   LIG     1      14.737  29.829  14.038  1.00  0.00     0.029 A 
HETATM   14  C   LIG     1      13.460  29.587  14.561  1.00  0.00     0.025 A 
HETATM   15  C   LIG     1      12.950  30.428  15.560  1.00  0.00     0.029 A 
HETATM   16  C   LIG     1      13.711  31.502  16.032  1.00  0.00     0.009 A 
BRANCH  14  17
HETATM   17  N   LIG     1      12.680  28.489  14.079  1.00  0.00    -0.399 N 
HETATM   18  H   LIG     1      12.335  28.472  13.093  1.00  0.00     0.156 HD
HETATM   19  H   LIG     1      12.444  27.686  14.702  1.00  0.00     0.156 HD
ENDBRANCH  14  17
ENDBRANCH   1  11
TORSDOF 4
ENDMDL
MODEL 8
REMARK VINA RESULT:      -6.3      7.797      9.827
REMARK  4 active torsions:
REMARK  status: ('A' for Active; 'I' for Inactive)
REMARK    1  A    between atoms: N_1  and  C_2 
REMARK    2  A    between atoms: C_5  and  C_8 
REMARK    3  A    between atoms: C_8  and  C_9 
REMARK    4  A    between atoms: C_12  and  N_13 
ROOT
HETATM    1  C   LIG     1      15.799  32.908  15.997  1.00  0.00     0.077 C 
ENDROOT
BRANCH   1   2
HETATM    2  C   LIG     1      14.992  31.734  15.511  1.00  0.00    -0.054 A 
HETATM    3  C   LIG     1      13.710  31.489  16.027  1.00  0.00     0.009 A 
HETATM    4  C   LIG     1      12.950  30.415  15.550  1.00  0.00     0.029 A 
HETATM    5  C   LIG     1      13.463  29.579  14.548  1.00  0.00     0.025 A 
HETATM    6  C   LIG     1      14.739  29.827  14.024  1.00  0.00     0.029 A 
HETATM    7  C   LIG     1      15.499  30.901  14.500  1.00  0.00     0.009 A 
BRANCH   5   8
HETATM    8  N   LIG     1      12.685  28.481  14.060  1.00  0.00    -0.399 N 
HETATM    9  H   LIG     1      11.832  28.647  13.481  1.00  0.00     0.156 HD
HETATM   10  H   LIG     1      12.959  27.496  14.273  1.00  0.00     0.156 HD
ENDBRANCH   5   8
ENDBRANCH   1   2
BRANCH   1  11
HETATM   11  C   LIG     1      15.542  33.154  17.460  1.00  0.00    -0.054 A 
HETATM   12  C   LIG     1      15.454  34.467  17.951  1.00  0.00     0.009 A 
HETATM   13  C   LIG     1      15.225  34.699  19.309  1.00  0.00     0.029 A 
HETATM   14  C   LIG     1      15.083  33.623  20.196  1.00  0.00     0.025 A 
HETATM   15  C   LIG     1      15.171  32.311  19.710  1.00  0.00     0.029 A 
HETATM   16  C   LIG     1      15.400  32.077  18.351  1.00  0.00     0.009 A 
BRANCH  14  17
HETATM   17  N   LIG     1      14.850  33.862  21.586  1.00  0.00    -0.399 N 
HETATM   18  H   LIG     1      14.015  34.404  21.903  1.00  0.00     0.156 HD
HETATM   19  H   LIG     1      15.510  33.498  22.309  1.00  0.00     0.156 HD
ENDBRANCH  14  17
ENDBRANCH   1  11
TORSDOF 4
ENDMDL
MODEL 9
REMARK VINA RESULT:      -6.2      3.370      4.344
REMARK  4 active torsions:
REMARK  status: ('A' for Active; 'I' for Inactive)
REMARK    1  A    between atoms: N_1  and  C_2 
REMARK    2  A    between atoms: C_5  and  C_8 
REMARK    3  A    between atoms: C_8  and  C_9 
REMARK    4  A    between atoms: C_12  and  N_13 
ROOT
HETATM    1  C   LIG     1      16.404  36.625  21.421  1.00  0.00     0.077 C 
ENDROOT
BRANCH   1   2
HETATM    2  C   LIG     1      16.771  36.491  22.874  1.00  0.00    -0.054 A 
HETATM    3  C   LIG     1      17.094  35.236  23.414  1.00  0.00     0.009 A 
HETATM    4  C   LIG     1      17.466  35.120  24.758  1.00  0.00     0.029 A 
HETATM    5  C   LIG     1      17.524  36.258  25.574  1.00  0.00     0.025 A 
HETATM    6  C   LIG     1      17.211  37.514  25.035  1.00  0.00     0.029 A 
HETATM    7  C   LIG     1      16.840  37.630  23.692  1.00  0.00     0.009 A 
BRANCH   5   8
HETATM    8  N   LIG     1      17.905  36.139  26.948  1.00  0.00    -0.399 N 
HETATM    9  H   LIG     1      17.892  35.212  27.428  1.00  0.00     0.156 HD
HETATM   10  H   LIG     1      18.203  36.978  27.494  1.00  0.00     0.156 HD
ENDBRANCH   5   8
ENDBRANCH   1   2
BRANCH   1  11
HETATM   11  C   LIG     1      15.870  35.321  20.890  1.00  0.00    -0.054 A 
HETATM   12  C   LIG     1      15.133  34.466  21.728  1.00  0.00     0.009 A 
HETATM   13  C   LIG     1      14.645  33.251  21.242  1.00  0.00     0.029 A 
HETATM   14  C   LIG     1      14.885  32.873  19.914  1.00  0.00     0.025 A 
HETATM   15  C   LIG     1      15.620  33.723  19.075  1.00  0.00     0.029 A 
HETATM   16  C   LIG     1      16.110  34.939  19.560  1.00  0.00     0.009 A 
BRANCH  14  17
HETATM   17  N   LIG     1      14.385  31.629  19.418  1.00  0.00    -0.399 N 
HETATM   18  H   LIG     1      14.002  30.908  20.070  1.00  0.00     0.156 HD
HETATM   19  H   LIG     1      14.393  31.419  18.395  1.00  0.00     0.156 HD
ENDBRANCH  14  17
ENDBRANCH   1  11
TORSDOF 4
ENDMDL
MODEL 10
REMARK VINA RESULT:      -5.9      9.368     11.726
REMARK  4 active torsions:
REMARK  status: ('A' for Active; 'I' for Inactive)
REMARK    1  A    between atoms: N_1  and  C_2 
REMARK    2  A    between atoms: C_5  and  C_8 
REMARK    3  A    between atoms: C_8  and  C_9 
REMARK    4  A    between atoms: C_12  and  N_13 
ROOT
HETATM    1  C   LIG     1      17.230  33.692  14.900  1.00  0.00     0.077 C 
ENDROOT
BRANCH   1   2
HETATM    2  C   LIG     1      17.947  33.998  13.613  1.00  0.00    -0.054 A 
HETATM    3  C   LIG     1      17.281  34.657  12.567  1.00  0.00     0.009 A 
HETATM    4  C   LIG     1      17.960  34.968  11.384  1.00  0.00     0.029 A 
HETATM    5  C   LIG     1      19.312  34.629  11.236  1.00  0.00     0.025 A 
HETATM    6  C   LIG     1      19.981  33.980  12.283  1.00  0.00     0.029 A 
HETATM    7  C   LIG     1      19.304  33.669  13.466  1.00  0.00     0.009 A 
BRANCH   5   8
HETATM    8  N   LIG     1      20.006  34.948  10.026  1.00  0.00    -0.399 N 
HETATM    9  H   LIG     1      20.709  35.720  10.001  1.00  0.00     0.156 HD
HETATM   10  H   LIG     1      19.822  34.414   9.148  1.00  0.00     0.156 HD
ENDBRANCH   5   8
ENDBRANCH   1   2
BRANCH   1  11
HETATM   11  C   LIG     1      16.294  32.527  14.718  1.00  0.00    -0.054 A 
HETATM   12  C   LIG     1      16.257  31.835  13.496  1.00  0.00     0.009 A 
HETATM   13  C   LIG     1      15.383  30.760  13.319  1.00  0.00     0.029 A 
HETATM   14  C   LIG     1      14.534  30.361  14.361  1.00  0.00     0.025 A 
HETATM   15  C   LIG     1      14.567  31.049  15.582  1.00  0.00     0.029 A 
HETATM   16  C   LIG     1      15.442  32.126  15.759  1.00  0.00     0.009 A 
BRANCH  14  17
HETATM   17  N   LIG     1      13.639  29.261  14.179  1.00  0.00    -0.399 N 
HETATM   18  H   LIG     1      12.883  29.300  13.460  1.00  0.00     0.156 HD
HETATM   19  H   LIG     1      13.727  28.398  14.762  1.00  0.00     0.156 HD
ENDBRANCH  14  17
ENDBRANCH   1  11
TORSDOF 4
ENDMDL
MODEL 11
REMARK VINA RESULT:      -5.9      9.457     10.604
REMARK  4 active torsions:
REMARK  status: ('A' for Active; 'I' for Inactive)
REMARK    1  A    between atoms: N_1  and  C_2 
REMARK    2  A    between atoms: C_5  and  C_8 
REMARK    3  A    between atoms: C_8  and  C_9 
REMARK    4  A    between atoms: C_12  and  N_13 
ROOT
HETATM    1  C   LIG     1      17.348  33.327  14.987  1.00  0.00     0.077 C 
ENDROOT
BRANCH   1   2
HETATM    2  C   LIG     1      16.308  32.265  14.754  1.00  0.00    -0.054 A 
HETATM    3  C   LIG     1      16.313  31.511  13.570  1.00  0.00     0.009 A 
HETATM    4  C   LIG     1      15.364  30.503  13.371  1.00  0.00     0.029 A 
HETATM    5  C   LIG     1      14.404  30.233  14.357  1.00  0.00     0.025 A 
HETATM    6  C   LIG     1      14.404  30.977  15.545  1.00  0.00     0.029 A 
HETATM    7  C   LIG     1      15.353  31.985  15.745  1.00  0.00     0.009 A 
BRANCH   5   8
HETATM    8  N   LIG     1      13.435  29.201  14.154  1.00  0.00    -0.399 N 
HETATM    9  H   LIG     1      13.702  28.194  14.233  1.00  0.00     0.156 HD
HETATM   10  H   LIG     1      12.444  29.436  13.926  1.00  0.00     0.156 HD
ENDBRANCH   5   8
ENDBRANCH   1   2
BRANCH   1  11
HETATM   11  C   LIG     1      17.931  33.790  13.677  1.00  0.00    -0.054 A 
HETATM   12  C   LIG     1      19.266  33.496  13.355  1.00  0.00     0.009 A 
HETATM   13  C   LIG     1      19.813  33.932  12.146  1.00  0.00     0.029 A 
HETATM   14  C   LIG     1      19.034  34.667  11.242  1.00  0.00     0.025 A 
HETATM   15  C   LIG     1      17.700  34.963  11.560  1.00  0.00     0.029 A 
HETATM   16  C   LIG     1      17.152  34.527  12.770  1.00  0.00     0.009 A 
BRANCH  14  17
HETATM   17  N   LIG     1      19.594  35.113  10.005  1.00  0.00    -0.399 N 
HETATM   18  H   LIG     1      20.133  34.457   9.395  1.00  0.00     0.156 HD
HETATM   19  H   LIG     1      19.475  36.101   9.689  1.00  0.00     0.156 HD
ENDBRANCH  14  17
ENDBRANCH   1  11
TORSDOF 4
ENDMDL
