MODEL 1
REMARK VINA RESULT:      -6.1      0.000      0.000
REMARK  1 active torsions:
REMARK  status: ('A' for Active; 'I' for Inactive)
REMARK       I    between atoms: C_2  and  N_3 
REMARK       I    between atoms: C_2  and  N_10 
REMARK    1  A    between atoms: N_3  and  C_4 
ROOT
HETATM    1  O   LIG     1      17.315  36.438  21.609  1.00  0.00    -0.247 OA
HETATM    2  C   LIG     1      16.458  35.563  21.920  1.00  0.00     0.322 C 
HETATM    3  N   LIG     1      16.147  35.337  23.307  1.00  0.00    -0.309 N 
HETATM    4  N   LIG     1      15.781  34.829  20.879  1.00  0.00    -0.343 N 
HETATM    5  C   LIG     1      16.062  35.153  19.476  1.00  0.00     0.154 C 
HETATM    6  C   LIG     1      14.855  33.742  21.212  1.00  0.00     0.154 C 
HETATM    7  H   LIG     1      15.208  34.950  23.552  1.00  0.00     0.170 HD
ENDROOT
BRANCH   3   8
HETATM    8  C   LIG     1      17.001  35.739  24.392  1.00  0.00     0.036 A 
HETATM    9  C   LIG     1      17.278  37.103  24.583  1.00  0.00     0.029 A 
HETATM   10  C   LIG     1      18.087  37.519  25.645  1.00  0.00     0.002 A 
HETATM   11  C   LIG     1      18.615  36.579  26.534  1.00  0.00     0.000 A 
HETATM   12  C   LIG     1      18.328  35.222  26.367  1.00  0.00     0.002 A 
HETATM   13  C   LIG     1      17.520  34.801  25.305  1.00  0.00     0.029 A 
ENDBRANCH   3   8
TORSDOF 1
ENDMDL
MODEL 2
REMARK VINA RESULT:      -6.0      2.904      5.204
REMARK  1 active torsions:
REMARK  status: ('A' for Active; 'I' for Inactive)
REMARK       I    between atoms: C_2  and  N_3 
REMARK       I    between atoms: C_2  and  N_10 
REMARK    1  A    between atoms: N_3  and  C_4 
ROOT
HETATM    1  O   LIG     1      17.314  35.366  22.744  1.00  0.00    -0.247 OA
HETATM    2  C   LIG     1      17.383  36.405  23.458  1.00  0.00     0.322 C 
HETATM    3  N   LIG     1      17.528  37.691  22.827  1.00  0.00    -0.309 N 
HETATM    4  N   LIG     1      17.281  36.290  24.893  1.00  0.00    -0.343 N 
HETATM    5  C   LIG     1      17.044  34.972  25.490  1.00  0.00     0.154 C 
HETATM    6  C   LIG     1      17.455  37.467  25.751  1.00  0.00     0.154 C 
HETATM    7  H   LIG     1      17.186  38.537  23.334  1.00  0.00     0.170 HD
ENDROOT
BRANCH   3   8
HETATM    8  C   LIG     1      17.993  37.870  21.478  1.00  0.00     0.036 A 
HETATM    9  C   LIG     1      18.412  39.143  21.056  1.00  0.00     0.029 A 
HETATM   10  C   LIG     1      18.890  39.336  19.756  1.00  0.00     0.002 A 
HETATM   11  C   LIG     1      18.967  38.258  18.871  1.00  0.00     0.000 A 
HETATM   12  C   LIG     1      18.574  36.984  19.286  1.00  0.00     0.002 A 
HETATM   13  C   LIG     1      18.095  36.785  20.586  1.00  0.00     0.029 A 
ENDBRANCH   3   8
TORSDOF 1
ENDMDL
MODEL 3
REMARK VINA RESULT:      -5.9      3.293      3.874
REMARK  1 active torsions:
REMARK  status: ('A' for Active; 'I' for Inactive)
REMARK       I    between atoms: C_2  and  N_3 
REMARK       I    between atoms: C_2  and  N_10 
REMARK    1  A    between atoms: N_3  and  C_4 
ROOT
HETATM    1  O   LIG     1      15.621  34.895  18.303  1.00  0.00    -0.247 OA
HETATM    2  C   LIG     1      15.381  34.016  19.178  1.00  0.00     0.322 C 
HETATM    3  N   LIG     1      15.331  34.392  20.566  1.00  0.00    -0.309 N 
HETATM    4  N   LIG     1      15.127  32.656  18.768  1.00  0.00    -0.343 N 
HETATM    5  C   LIG     1      15.098  32.333  17.338  1.00  0.00     0.154 C 
HETATM    6  C   LIG     1      14.942  31.597  19.765  1.00  0.00     0.154 C 
HETATM    7  H   LIG     1      14.758  33.813  21.220  1.00  0.00     0.170 HD
ENDROOT
BRANCH   3   8
HETATM    8  C   LIG     1      15.913  35.599  21.087  1.00  0.00     0.036 A 
HETATM    9  C   LIG     1      15.165  36.403  21.964  1.00  0.00     0.029 A 
HETATM   10  C   LIG     1      15.718  37.569  22.502  1.00  0.00     0.002 A 
HETATM   11  C   LIG     1      17.028  37.936  22.180  1.00  0.00     0.000 A 
HETATM   12  C   LIG     1      17.788  37.133  21.327  1.00  0.00     0.002 A 
HETATM   13  C   LIG     1      17.238  35.965  20.786  1.00  0.00     0.029 A 
ENDBRANCH   3   8
TORSDOF 1
ENDMDL
MODEL 4
REMARK VINA RESULT:      -5.8      2.398      2.999
REMARK  1 active torsions:
REMARK  status: ('A' for Active; 'I' for Inactive)
REMARK       I    between atoms: C_2  and  N_3 
REMARK       I    between atoms: C_2  and  N_10 
REMARK    1  A    between atoms: N_3  and  C_4 
ROOT
HETATM    1  O   LIG     1      18.351  38.925  22.808  1.00  0.00    -0.247 OA
HETATM    2  C   LIG     1      18.027  37.947  22.077  1.00  0.00     0.322 C 
HETATM    3  N   LIG     1      17.433  36.780  22.676  1.00  0.00    -0.309 N 
HETATM    4  N   LIG     1      18.225  38.029  20.650  1.00  0.00    -0.343 N 
HETATM    5  C   LIG     1      18.749  39.270  20.070  1.00  0.00     0.154 C 
HETATM    6  C   LIG     1      17.948  36.874  19.790  1.00  0.00     0.154 C 
HETATM    7  H   LIG     1      16.813  36.178  22.090  1.00  0.00     0.170 HD
ENDROOT
BRANCH   3   8
HETATM    8  C   LIG     1      17.532  36.464  24.076  1.00  0.00     0.036 A 
HETATM    9  C   LIG     1      17.285  35.149  24.505  1.00  0.00     0.029 A 
HETATM   10  C   LIG     1      17.398  34.813  25.857  1.00  0.00     0.002 A 
HETATM   11  C   LIG     1      17.771  35.783  26.791  1.00  0.00     0.000 A 
HETATM   12  C   LIG     1      18.040  37.088  26.373  1.00  0.00     0.002 A 
HETATM   13  C   LIG     1      17.928  37.429  25.021  1.00  0.00     0.029 A 
ENDBRANCH   3   8
TORSDOF 1
ENDMDL
MODEL 5
REMARK VINA RESULT:      -5.6      3.246      4.337
REMARK  1 active torsions:
REMARK  status: ('A' for Active; 'I' for Inactive)
REMARK       I    between atoms: C_2  and  N_3 
REMARK       I    between atoms: C_2  and  N_10 
REMARK    1  A    between atoms: N_3  and  C_4 
ROOT
HETATM    1  O   LIG     1      15.127  32.773  20.345  1.00  0.00    -0.247 OA
HETATM    2  C   LIG     1      15.242  33.396  19.253  1.00  0.00     0.322 C 
HETATM    3  N   LIG     1      15.855  34.699  19.240  1.00  0.00    -0.309 N 
HETATM    4  N   LIG     1      14.789  32.777  18.031  1.00  0.00    -0.343 N 
HETATM    5  C   LIG     1      14.252  31.413  18.075  1.00  0.00     0.154 C 
HETATM    6  C   LIG     1      14.821  33.514  16.763  1.00  0.00     0.154 C 
HETATM    7  H   LIG     1      16.313  35.026  18.360  1.00  0.00     0.170 HD
ENDROOT
BRANCH   3   8
HETATM    8  C   LIG     1      15.997  35.525  20.408  1.00  0.00     0.036 A 
HETATM    9  C   LIG     1      17.260  36.048  20.733  1.00  0.00     0.029 A 
HETATM   10  C   LIG     1      17.417  36.874  21.851  1.00  0.00     0.002 A 
HETATM   11  C   LIG     1      16.313  37.196  22.645  1.00  0.00     0.000 A 
HETATM   12  C   LIG     1      15.049  36.699  22.318  1.00  0.00     0.002 A 
HETATM   13  C   LIG     1      14.887  35.872  21.201  1.00  0.00     0.029 A 
ENDBRANCH   3   8
TORSDOF 1
ENDMDL
MODEL 6
REMARK VINA RESULT:      -5.5      5.500      9.571
REMARK  1 active torsions:
REMARK  status: ('A' for Active; 'I' for Inactive)
REMARK       I    between atoms: C_2  and  N_3 
REMARK       I    between atoms: C_2  and  N_10 
REMARK    1  A    between atoms: N_3  and  C_4 
ROOT
HETATM    1  O   LIG     1      14.383  31.292  18.806  1.00  0.00    -0.247 OA
HETATM    2  C   LIG     1      14.705  32.405  18.304  1.00  0.00     0.322 C 
HETATM    3  N   LIG     1      14.569  32.610  16.886  1.00  0.00    -0.309 N 
HETATM    4  N   LIG     1      15.172  33.465  19.165  1.00  0.00    -0.343 N 
HETATM    5  C   LIG     1      15.211  33.245  20.615  1.00  0.00     0.154 C 
HETATM    6  C   LIG     1      15.644  34.733  18.600  1.00  0.00     0.154 C 
HETATM    7  H   LIG     1      14.435  33.583  16.532  1.00  0.00     0.170 HD
ENDROOT
BRANCH   3   8
HETATM    8  C   LIG     1      14.469  31.539  15.931  1.00  0.00     0.036 A 
HETATM    9  C   LIG     1      13.287  30.782  15.864  1.00  0.00     0.029 A 
HETATM   10  C   LIG     1      13.158  29.752  14.928  1.00  0.00     0.002 A 
HETATM   11  C   LIG     1      14.203  29.476  14.042  1.00  0.00     0.000 A 
HETATM   12  C   LIG     1      15.374  30.236  14.085  1.00  0.00     0.002 A 
HETATM   13  C   LIG     1      15.508  31.268  15.020  1.00  0.00     0.029 A 
ENDBRANCH   3   8
TORSDOF 1
ENDMDL
MODEL 7
REMARK VINA RESULT:      -5.4      9.530     11.010
REMARK  1 active torsions:
REMARK  status: ('A' for Active; 'I' for Inactive)
REMARK       I    between atoms: C_2  and  N_3 
REMARK       I    between atoms: C_2  and  N_10 
REMARK    1  A    between atoms: N_3  and  C_4 
ROOT
HETATM    1  O   LIG     1      18.621  33.294  14.563  1.00  0.00    -0.247 OA
HETATM    2  C   LIG     1      18.307  33.332  13.340  1.00  0.00     0.322 C 
HETATM    3  N   LIG     1      16.978  32.955  12.936  1.00  0.00    -0.309 N 
HETATM    4  N   LIG     1      19.277  33.784  12.372  1.00  0.00    -0.343 N 
HETATM    5  C   LIG     1      20.591  34.244  12.835  1.00  0.00     0.154 C 
HETATM    6  C   LIG     1      18.974  33.746  10.937  1.00  0.00     0.154 C 
HETATM    7  H   LIG     1      16.594  33.354  12.051  1.00  0.00     0.170 HD
ENDROOT
BRANCH   3   8
HETATM    8  C   LIG     1      16.090  32.168  13.748  1.00  0.00     0.036 A 
HETATM    9  C   LIG     1      15.561  30.973  13.231  1.00  0.00     0.029 A 
HETATM   10  C   LIG     1      14.714  30.179  14.011  1.00  0.00     0.002 A 
HETATM   11  C   LIG     1      14.399  30.563  15.317  1.00  0.00     0.000 A 
HETATM   12  C   LIG     1      14.938  31.737  15.848  1.00  0.00     0.002 A 
HETATM   13  C   LIG     1      15.785  32.535  15.072  1.00  0.00     0.029 A 
ENDBRANCH   3   8
TORSDOF 1
ENDMDL
MODEL 8
REMARK VINA RESULT:      -5.3      3.387      4.316
REMARK  1 active torsions:
REMARK  status: ('A' for Active; 'I' for Inactive)
REMARK       I    between atoms: C_2  and  N_3 
REMARK       I    between atoms: C_2  and  N_10 
REMARK    1  A    between atoms: N_3  and  C_4 
ROOT
HETATM    1  O   LIG     1      16.025  35.866  22.160  1.00  0.00    -0.247 OA
HETATM    2  C   LIG     1      16.254  35.211  21.104  1.00  0.00     0.322 C 
HETATM    3  N   LIG     1      17.377  35.565  20.278  1.00  0.00    -0.309 N 
HETATM    4  N   LIG     1      15.404  34.095  20.763  1.00  0.00    -0.343 N 
HETATM    5  C   LIG     1      14.324  33.711  21.678  1.00  0.00     0.154 C 
HETATM    6  C   LIG     1      15.585  33.378  19.497  1.00  0.00     0.154 C 
HETATM    7  H   LIG     1      17.805  34.828  19.673  1.00  0.00     0.170 HD
ENDROOT
BRANCH   3   8
HETATM    8  C   LIG     1      18.037  36.842  20.333  1.00  0.00     0.036 A 
HETATM    9  C   LIG     1      17.688  37.756  21.342  1.00  0.00     0.029 A 
HETATM   10  C   LIG     1      18.332  38.993  21.430  1.00  0.00     0.002 A 
HETATM   11  C   LIG     1      19.341  39.324  20.521  1.00  0.00     0.000 A 
HETATM   12  C   LIG     1      19.711  38.415  19.527  1.00  0.00     0.002 A 
HETATM   13  C   LIG     1      19.069  37.175  19.435  1.00  0.00     0.029 A 
ENDBRANCH   3   8
TORSDOF 1
ENDMDL
MODEL 9
REMARK VINA RESULT:      -5.2      5.709      7.586
REMARK  1 active torsions:
REMARK  status: ('A' for Active; 'I' for Inactive)
REMARK       I    between atoms: C_2  and  N_3 
REMARK       I    between atoms: C_2  and  N_10 
REMARK    1  A    between atoms: N_3  and  C_4 
ROOT
HETATM    1  O   LIG     1      16.208  32.168  15.376  1.00  0.00    -0.247 OA
HETATM    2  C   LIG     1      15.073  31.640  15.547  1.00  0.00     0.322 C 
HETATM    3  N   LIG     1      14.260  32.050  16.662  1.00  0.00    -0.309 N 
HETATM    4  N   LIG     1      14.597  30.658  14.603  1.00  0.00    -0.343 N 
HETATM    5  C   LIG     1      15.418  30.334  13.432  1.00  0.00     0.154 C 
HETATM    6  C   LIG     1      13.328  29.958  14.829  1.00  0.00     0.154 C 
HETATM    7  H   LIG     1      13.223  31.947  16.588  1.00  0.00     0.170 HD
ENDROOT
BRANCH   3   8
HETATM    8  C   LIG     1      14.778  32.724  17.822  1.00  0.00     0.036 A 
HETATM    9  C   LIG     1      15.075  34.095  17.749  1.00  0.00     0.029 A 
HETATM   10  C   LIG     1      15.557  34.776  18.871  1.00  0.00     0.002 A 
HETATM   11  C   LIG     1      15.735  34.098  20.079  1.00  0.00     0.000 A 
HETATM   12  C   LIG     1      15.422  32.739  20.170  1.00  0.00     0.002 A 
HETATM   13  C   LIG     1      14.939  32.053  19.049  1.00  0.00     0.029 A 
ENDBRANCH   3   8
TORSDOF 1
ENDMDL
MODEL 10
REMARK VINA RESULT:      -5.2      8.332     10.395
REMARK  1 active torsions:
REMARK  status: ('A' for Active; 'I' for Inactive)
REMARK       I    between atoms: C_2  and  N_3 
REMARK       I    between atoms: C_2  and  N_10 
REMARK    1  A    between atoms: N_3  and  C_4 
ROOT
HETATM    1  O   LIG     1      16.074  29.401  14.034  1.00  0.00    -0.247 OA
HETATM    2  C   LIG     1      14.855  29.077  14.098  1.00  0.00     0.322 C 
HETATM    3  N   LIG     1      13.917  29.965  14.732  1.00  0.00    -0.309 N 
HETATM    4  N   LIG     1      14.418  27.836  13.504  1.00  0.00    -0.343 N 
HETATM    5  C   LIG     1      15.391  27.003  12.789  1.00  0.00     0.154 C 
HETATM    6  C   LIG     1      13.029  27.388  13.647  1.00  0.00     0.154 C 
HETATM    7  H   LIG     1      12.914  29.920  14.443  1.00  0.00     0.170 HD
ENDROOT
BRANCH   3   8
HETATM    8  C   LIG     1      14.297  31.009  15.645  1.00  0.00     0.036 A 
HETATM    9  C   LIG     1      13.797  30.993  16.958  1.00  0.00     0.029 A 
HETATM   10  C   LIG     1      14.172  31.984  17.870  1.00  0.00     0.002 A 
HETATM   11  C   LIG     1      15.059  32.993  17.484  1.00  0.00     0.000 A 
HETATM   12  C   LIG     1      15.579  33.006  16.187  1.00  0.00     0.002 A 
HETATM   13  C   LIG     1      15.207  32.016  15.271  1.00  0.00     0.029 A 
ENDBRANCH   3   8
TORSDOF 1
ENDMDL
MODEL 11
REMARK VINA RESULT:      -5.1      8.750     11.321
REMARK  1 active torsions:
REMARK  status: ('A' for Active; 'I' for Inactive)
REMARK       I    between atoms: C_2  and  N_3 
REMARK       I    between atoms: C_2  and  N_10 
REMARK    1  A    between atoms: N_3  and  C_4 
ROOT
HETATM    1  O   LIG     1      16.841  31.741  12.881  1.00  0.00    -0.247 OA
HETATM    2  C   LIG     1      16.750  32.613  13.791  1.00  0.00     0.322 C 
HETATM    3  N   LIG     1      17.477  33.849  13.663  1.00  0.00    -0.309 N 
HETATM    4  N   LIG     1      15.894  32.369  14.926  1.00  0.00    -0.343 N 
HETATM    5  C   LIG     1      15.102  31.135  14.974  1.00  0.00     0.154 C 
HETATM    6  C   LIG     1      15.844  33.319  16.042  1.00  0.00     0.154 C 
HETATM    7  H   LIG     1      17.112  34.695  14.156  1.00  0.00     0.170 HD
ENDROOT
BRANCH   3   8
HETATM    8  C   LIG     1      18.602  34.026  12.787  1.00  0.00     0.036 A 
HETATM    9  C   LIG     1      18.402  34.576  11.509  1.00  0.00     0.029 A 
HETATM   10  C   LIG     1      19.484  34.779  10.648  1.00  0.00     0.002 A 
HETATM   11  C   LIG     1      20.778  34.449  11.059  1.00  0.00     0.000 A 
HETATM   12  C   LIG     1      20.992  33.922  12.335  1.00  0.00     0.002 A 
HETATM   13  C   LIG     1      19.912  33.716  13.200  1.00  0.00     0.029 A 
ENDBRANCH   3   8
TORSDOF 1
ENDMDL
MODEL 12
REMARK VINA RESULT:      -5.1      5.417      7.336
REMARK  1 active torsions:
REMARK  status: ('A' for Active; 'I' for Inactive)
REMARK       I    between atoms: C_2  and  N_3 
REMARK       I    between atoms: C_2  and  N_10 
REMARK    1  A    between atoms: N_3  and  C_4 
ROOT
HETATM    1  O   LIG     1      16.745  34.019  15.582  1.00  0.00    -0.247 OA
HETATM    2  C   LIG     1      16.008  33.005  15.429  1.00  0.00     0.322 C 
HETATM    3  N   LIG     1      15.086  32.635  16.471  1.00  0.00    -0.309 N 
HETATM    4  N   LIG     1      16.077  32.255  14.198  1.00  0.00    -0.343 N 
HETATM    5  C   LIG     1      16.964  32.718  13.126  1.00  0.00     0.154 C 
HETATM    6  C   LIG     1      15.305  31.020  14.032  1.00  0.00     0.154 C 
HETATM    7  H   LIG     1      14.230  32.095  16.211  1.00  0.00     0.170 HD
ENDROOT
BRANCH   3   8
HETATM    8  C   LIG     1      15.200  33.081  17.833  1.00  0.00     0.036 A 
HETATM    9  C   LIG     1      15.195  32.134  18.871  1.00  0.00     0.029 A 
HETATM   10  C   LIG     1      15.328  32.542  20.202  1.00  0.00     0.002 A 
HETATM   11  C   LIG     1      15.482  33.897  20.507  1.00  0.00     0.000 A 
HETATM   12  C   LIG     1      15.511  34.845  19.482  1.00  0.00     0.002 A 
HETATM   13  C   LIG     1      15.378  34.441  18.148  1.00  0.00     0.029 A 
ENDBRANCH   3   8
TORSDOF 1
ENDMDL
MODEL 13
REMARK VINA RESULT:      -5.0      7.389     11.227
REMARK  1 active torsions:
REMARK  status: ('A' for Active; 'I' for Inactive)
REMARK       I    between atoms: C_2  and  N_3 
REMARK       I    between atoms: C_2  and  N_10 
REMARK    1  A    between atoms: N_3  and  C_4 
ROOT
HETATM    1  O   LIG     1      13.841  30.693  17.206  1.00  0.00    -0.247 OA
HETATM    2  C   LIG     1      14.478  31.469  16.439  1.00  0.00     0.322 C 
HETATM    3  N   LIG     1      14.562  31.166  15.034  1.00  0.00    -0.309 N 
HETATM    4  N   LIG     1      15.081  32.664  16.979  1.00  0.00    -0.343 N 
HETATM    5  C   LIG     1      14.896  32.981  18.399  1.00  0.00     0.154 C 
HETATM    6  C   LIG     1      15.907  33.531  16.133  1.00  0.00     0.154 C 
HETATM    7  H   LIG     1      14.708  31.953  14.363  1.00  0.00     0.170 HD
ENDROOT
BRANCH   3   8
HETATM    8  C   LIG     1      14.321  29.860  14.483  1.00  0.00     0.036 A 
HETATM    9  C   LIG     1      15.412  29.057  14.109  1.00  0.00     0.029 A 
HETATM   10  C   LIG     1      15.202  27.775  13.593  1.00  0.00     0.002 A 
HETATM   11  C   LIG     1      13.903  27.278  13.458  1.00  0.00     0.000 A 
HETATM   12  C   LIG     1      12.812  28.059  13.847  1.00  0.00     0.002 A 
HETATM   13  C   LIG     1      13.017  29.343  14.364  1.00  0.00     0.029 A 
ENDBRANCH   3   8
TORSDOF 1
ENDMDL
MODEL 14
REMARK VINA RESULT:      -5.0     11.126     13.281
REMARK  1 active torsions:
REMARK  status: ('A' for Active; 'I' for Inactive)
REMARK       I    between atoms: C_2  and  N_3 
REMARK       I    between atoms: C_2  and  N_10 
REMARK    1  A    between atoms: N_3  and  C_4 
ROOT
HETATM    1  O   LIG     1      11.854  26.996  13.372  1.00  0.00    -0.247 OA
HETATM    2  C   LIG     1      12.894  26.761  12.694  1.00  0.00     0.322 C 
HETATM    3  N   LIG     1      14.129  27.414  13.039  1.00  0.00    -0.309 N 
HETATM    4  N   LIG     1      12.833  25.815  11.605  1.00  0.00    -0.343 N 
HETATM    5  C   LIG     1      11.577  25.104  11.343  1.00  0.00     0.154 C 
HETATM    6  C   LIG     1      13.997  25.595  10.741  1.00  0.00     0.154 C 
HETATM    7  H   LIG     1      15.028  26.948  12.782  1.00  0.00     0.170 HD
ENDROOT
BRANCH   3   8
HETATM    8  C   LIG     1      14.205  28.606  13.840  1.00  0.00     0.036 A 
HETATM    9  C   LIG     1      15.412  29.322  13.897  1.00  0.00     0.029 A 
HETATM   10  C   LIG     1      15.503  30.497  14.650  1.00  0.00     0.002 A 
HETATM   11  C   LIG     1      14.387  30.974  15.342  1.00  0.00     0.000 A 
HETATM   12  C   LIG     1      13.175  30.281  15.275  1.00  0.00     0.002 A 
HETATM   13  C   LIG     1      13.080  29.105  14.522  1.00  0.00     0.029 A 
ENDBRANCH   3   8
TORSDOF 1
ENDMDL
MODEL 15
REMARK VINA RESULT:      -5.0      8.973     10.792
REMARK  1 active torsions:
REMARK  status: ('A' for Active; 'I' for Inactive)
REMARK       I    between atoms: C_2  and  N_3 
REMARK       I    between atoms: C_2  and  N_10 
REMARK    1  A    between atoms: N_3  and  C_4 
ROOT
HETATM    1  O   LIG     1      17.395  34.822  12.654  1.00  0.00    -0.247 OA
HETATM    2  C   LIG     1      17.910  33.737  12.261  1.00  0.00     0.322 C 
HETATM    3  N   LIG     1      17.386  32.487  12.745  1.00  0.00    -0.309 N 
HETATM    4  N   LIG     1      18.991  33.768  11.306  1.00  0.00    -0.343 N 
HETATM    5  C   LIG     1      19.436  35.059  10.769  1.00  0.00     0.154 C 
HETATM    6  C   LIG     1      19.671  32.532  10.907  1.00  0.00     0.154 C 
HETATM    7  H   LIG     1      17.504  31.634  12.154  1.00  0.00     0.170 HD
ENDROOT
BRANCH   3   8
HETATM    8  C   LIG     1      16.587  32.364  13.934  1.00  0.00     0.036 A 
HETATM    9  C   LIG     1      16.768  33.279  14.985  1.00  0.00     0.029 A 
HETATM   10  C   LIG     1      15.987  33.193  16.141  1.00  0.00     0.002 A 
HETATM   11  C   LIG     1      15.009  32.202  16.254  1.00  0.00     0.000 A 
HETATM   12  C   LIG     1      14.805  31.300  15.206  1.00  0.00     0.002 A 
HETATM   13  C   LIG     1      15.585  31.382  14.047  1.00  0.00     0.029 A 
ENDBRANCH   3   8
TORSDOF 1
ENDMDL
MODEL 16
REMARK VINA RESULT:      -4.8      1.633      5.178
REMARK  1 active torsions:
REMARK  status: ('A' for Active; 'I' for Inactive)
REMARK       I    between atoms: C_2  and  N_3 
REMARK       I    between atoms: C_2  and  N_10 
REMARK    1  A    between atoms: N_3  and  C_4 
ROOT
HETATM    1  O   LIG     1      16.432  38.172  23.585  1.00  0.00    -0.247 OA
HETATM    2  C   LIG     1      17.131  37.272  24.128  1.00  0.00     0.322 C 
HETATM    3  N   LIG     1      17.525  36.119  23.360  1.00  0.00    -0.309 N 
HETATM    4  N   LIG     1      17.554  37.429  25.499  1.00  0.00    -0.343 N 
HETATM    5  C   LIG     1      17.207  38.659  26.218  1.00  0.00     0.154 C 
HETATM    6  C   LIG     1      18.283  36.357  26.184  1.00  0.00     0.154 C 
HETATM    7  H   LIG     1      18.392  35.607  23.637  1.00  0.00     0.170 HD
ENDROOT
BRANCH   3   8
HETATM    8  C   LIG     1      16.871  35.707  22.147  1.00  0.00     0.036 A 
HETATM    9  C   LIG     1      17.367  36.152  20.910  1.00  0.00     0.029 A 
HETATM   10  C   LIG     1      16.762  35.746  19.717  1.00  0.00     0.002 A 
HETATM   11  C   LIG     1      15.664  34.882  19.747  1.00  0.00     0.000 A 
HETATM   12  C   LIG     1      15.175  34.417  20.970  1.00  0.00     0.002 A 
HETATM   13  C   LIG     1      15.778  34.820  22.167  1.00  0.00     0.029 A 
ENDBRANCH   3   8
TORSDOF 1
ENDMDL
MODEL 17
REMARK VINA RESULT:      -4.4      8.883     11.576
REMARK  1 active torsions:
REMARK  status: ('A' for Active; 'I' for Inactive)
REMARK       I    between atoms: C_2  and  N_3 
REMARK       I    between atoms: C_2  and  N_10 
REMARK    1  A    between atoms: N_3  and  C_4 
ROOT
HETATM    1  O   LIG     1      15.375  32.168  15.582  1.00  0.00    -0.247 OA
HETATM    2  C   LIG     1      16.007  32.224  14.490  1.00  0.00     0.322 C 
HETATM    3  N   LIG     1      15.704  31.281  13.446  1.00  0.00    -0.309 N 
HETATM    4  N   LIG     1      17.000  33.253  14.296  1.00  0.00    -0.343 N 
HETATM    5  C   LIG     1      17.215  34.249  15.351  1.00  0.00     0.154 C 
HETATM    6  C   LIG     1      17.817  33.283  13.079  1.00  0.00     0.154 C 
HETATM    7  H   LIG     1      15.898  31.554  12.456  1.00  0.00     0.170 HD
ENDROOT
BRANCH   3   8
HETATM    8  C   LIG     1      15.022  30.036  13.668  1.00  0.00     0.036 A 
HETATM    9  C   LIG     1      13.688  30.049  14.110  1.00  0.00     0.029 A 
HETATM   10  C   LIG     1      12.996  28.851  14.311  1.00  0.00     0.002 A 
HETATM   11  C   LIG     1      13.625  27.629  14.060  1.00  0.00     0.000 A 
HETATM   12  C   LIG     1      14.944  27.604  13.600  1.00  0.00     0.002 A 
HETATM   13  C   LIG     1      15.640  28.800  13.397  1.00  0.00     0.029 A 
ENDBRANCH   3   8
TORSDOF 1
ENDMDL
MODEL 18
REMARK VINA RESULT:      -4.3      1.930      2.631
REMARK  1 active torsions:
REMARK  status: ('A' for Active; 'I' for Inactive)
REMARK       I    between atoms: C_2  and  N_3 
REMARK       I    between atoms: C_2  and  N_10 
REMARK    1  A    between atoms: N_3  and  C_4 
ROOT
HETATM    1  O   LIG     1      15.926  34.175  22.266  1.00  0.00    -0.247 OA
HETATM    2  C   LIG     1      16.101  34.703  21.132  1.00  0.00     0.322 C 
HETATM    3  N   LIG     1      16.827  35.942  21.030  1.00  0.00    -0.309 N 
HETATM    4  N   LIG     1      15.599  34.038  19.954  1.00  0.00    -0.343 N 
HETATM    5  C   LIG     1      14.943  32.734  20.093  1.00  0.00     0.154 C 
HETATM    6  C   LIG     1      15.701  34.674  18.637  1.00  0.00     0.154 C 
HETATM    7  H   LIG     1      17.316  36.161  20.133  1.00  0.00     0.170 HD
ENDROOT
BRANCH   3   8
HETATM    8  C   LIG     1      17.038  36.837  22.136  1.00  0.00     0.036 A 
HETATM    9  C   LIG     1      17.205  38.210  21.889  1.00  0.00     0.029 A 
HETATM   10  C   LIG     1      17.387  39.102  22.950  1.00  0.00     0.002 A 
HETATM   11  C   LIG     1      17.392  38.634  24.267  1.00  0.00     0.000 A 
HETATM   12  C   LIG     1      17.205  37.274  24.525  1.00  0.00     0.002 A 
HETATM   13  C   LIG     1      17.022  36.377  23.466  1.00  0.00     0.029 A 
ENDBRANCH   3   8
TORSDOF 1
ENDMDL
MODEL 19
REMARK VINA RESULT:      -4.2      8.696     10.411
REMARK  1 active torsions:
REMARK  status: ('A' for Active; 'I' for Inactive)
REMARK       I    between atoms: C_2  and  N_3 
REMARK       I    between atoms: C_2  and  N_10 
REMARK    1  A    between atoms: N_3  and  C_4 
ROOT
HETATM    1  O   LIG     1      12.964  29.910  14.839  1.00  0.00    -0.247 OA
HETATM    2  C   LIG     1      14.052  29.353  14.522  1.00  0.00     0.322 C 
HETATM    3  N   LIG     1      15.298  29.947  14.931  1.00  0.00    -0.309 N 
HETATM    4  N   LIG     1      14.027  28.112  13.785  1.00  0.00    -0.343 N 
HETATM    5  C   LIG     1      12.736  27.495  13.466  1.00  0.00     0.154 C 
HETATM    6  C   LIG     1      15.273  27.495  13.321  1.00  0.00     0.154 C 
HETATM    7  H   LIG     1      16.133  29.329  15.041  1.00  0.00     0.170 HD
ENDROOT
BRANCH   3   8
HETATM    8  C   LIG     1      15.434  31.321  15.331  1.00  0.00     0.036 A 
HETATM    9  C   LIG     1      14.624  31.822  16.365  1.00  0.00     0.029 A 
HETATM   10  C   LIG     1      14.755  33.148  16.786  1.00  0.00     0.002 A 
HETATM   11  C   LIG     1      15.704  33.983  16.190  1.00  0.00     0.000 A 
HETATM   12  C   LIG     1      16.529  33.490  15.176  1.00  0.00     0.002 A 
HETATM   13  C   LIG     1      16.401  32.163  14.751  1.00  0.00     0.029 A 
ENDBRANCH   3   8
TORSDOF 1
ENDMDL
MODEL 20
REMARK VINA RESULT:      -4.1     16.331     17.385
REMARK  1 active torsions:
REMARK  status: ('A' for Active; 'I' for Inactive)
REMARK       I    between atoms: C_2  and  N_3 
REMARK       I    between atoms: C_2  and  N_10 
REMARK    1  A    between atoms: N_3  and  C_4 
ROOT
HETATM    1  O   LIG     1      27.339  27.479  36.345  1.00  0.00    -0.247 OA
HETATM    2  C   LIG     1      27.119  27.921  35.182  1.00  0.00     0.322 C 
HETATM    3  N   LIG     1      27.317  29.320  34.905  1.00  0.00    -0.309 N 
HETATM    4  N   LIG     1      26.704  27.010  34.142  1.00  0.00    -0.343 N 
HETATM    5  C   LIG     1      26.601  25.579  34.444  1.00  0.00     0.154 C 
HETATM    6  C   LIG     1      26.348  27.509  32.810  1.00  0.00     0.154 C 
HETATM    7  H   LIG     1      27.536  29.608  33.926  1.00  0.00     0.170 HD
ENDROOT
BRANCH   3   8
HETATM    8  C   LIG     1      27.368  30.335  35.922  1.00  0.00     0.036 A 
HETATM    9  C   LIG     1      26.170  30.816  36.478  1.00  0.00     0.029 A 
HETATM   10  C   LIG     1      26.196  31.786  37.484  1.00  0.00     0.002 A 
HETATM   11  C   LIG     1      27.417  32.275  37.955  1.00  0.00     0.000 A 
HETATM   12  C   LIG     1      28.615  31.788  37.425  1.00  0.00     0.002 A 
HETATM   13  C   LIG     1      28.594  30.817  36.418  1.00  0.00     0.029 A 
ENDBRANCH   3   8
TORSDOF 1
ENDMDL
