MODEL 1
REMARK VINA RESULT:      -7.7      0.000      0.000
REMARK  5 active torsions:
REMARK  status: ('A' for Active; 'I' for Inactive)
REMARK       I    between atoms: C_2  and  N_9 
REMARK    1  A    between atoms: C_2  and  O_3 
REMARK    2  A    between atoms: O_3  and  C_4 
REMARK    3  A    between atoms: C_4  and  C_5 
REMARK    4  A    between atoms: C_6  and  C_7 
REMARK    5  A    between atoms: N_9  and  C_10 
ROOT
HETATM    1  O   LIG     1      14.565  34.134  21.645  1.00  0.00    -0.238 OA
HETATM    2  C   LIG     1      15.582  34.189  20.902  1.00  0.00     0.366 C 
HETATM    3  N   LIG     1      16.771  34.863  21.338  1.00  0.00    -0.303 N 
HETATM    4  H   LIG     1      17.653  34.661  20.816  1.00  0.00     0.171 HD
ENDROOT
BRANCH   3   5
HETATM    5  C   LIG     1      16.848  35.695  22.509  1.00  0.00     0.038 A 
HETATM    6  C   LIG     1      16.609  37.080  22.442  1.00  0.00     0.029 A 
HETATM    7  C   LIG     1      16.715  37.869  23.591  1.00  0.00     0.004 A 
HETATM    8  C   LIG     1      17.075  37.290  24.811  1.00  0.00     0.024 A 
HETATM    9  C   LIG     1      17.337  35.919  24.882  1.00  0.00     0.036 A 
HETATM   10  C   LIG     1      17.232  35.126  23.733  1.00  0.00     0.053 A 
HETATM   11 CL   LIG     1      17.802  35.193  26.409  1.00  0.00    -0.084 Cl
ENDBRANCH   3   5
BRANCH   2  12
HETATM   12  O   LIG     1      15.579  33.555  19.656  1.00  0.00    -0.292 OA
BRANCH  12  13
HETATM   13  C   LIG     1      15.497  32.142  19.513  1.00  0.00     0.274 C 
BRANCH  13  14
HETATM   14  C   LIG     1      14.618  31.821  18.390  1.00  0.00    -0.079 C 
HETATM   15  C   LIG     1      13.892  31.556  17.464  1.00  0.00    -0.089 C 
BRANCH  15  16
HETATM   16  C   LIG     1      13.011  31.234  16.341  1.00  0.00     0.208 C 
HETATM   17 CL   LIG     1      13.928  30.350  15.100  1.00  0.00    -0.117 Cl
ENDBRANCH  15  16
ENDBRANCH  13  14
ENDBRANCH  12  13
ENDBRANCH   2  12
TORSDOF 5
ENDMDL
MODEL 2
REMARK VINA RESULT:      -7.3      1.962      8.298
REMARK  5 active torsions:
REMARK  status: ('A' for Active; 'I' for Inactive)
REMARK       I    between atoms: C_2  and  N_9 
REMARK    1  A    between atoms: C_2  and  O_3 
REMARK    2  A    between atoms: O_3  and  C_4 
REMARK    3  A    between atoms: C_4  and  C_5 
REMARK    4  A    between atoms: C_6  and  C_7 
REMARK    5  A    between atoms: N_9  and  C_10 
ROOT
HETATM    1  O   LIG     1      15.855  31.648  19.768  1.00  0.00    -0.238 OA
HETATM    2  C   LIG     1      15.408  32.822  19.658  1.00  0.00     0.366 C 
HETATM    3  N   LIG     1      14.742  33.242  18.460  1.00  0.00    -0.303 N 
HETATM    4  H   LIG     1      14.170  34.116  18.513  1.00  0.00     0.171 HD
ENDROOT
BRANCH   3   5
HETATM    5  C   LIG     1      14.713  32.483  17.239  1.00  0.00     0.038 A 
HETATM    6  C   LIG     1      13.857  31.376  17.082  1.00  0.00     0.029 A 
HETATM    7  C   LIG     1      13.867  30.641  15.893  1.00  0.00     0.004 A 
HETATM    8  C   LIG     1      14.737  30.991  14.858  1.00  0.00     0.024 A 
HETATM    9  C   LIG     1      15.607  32.075  15.013  1.00  0.00     0.036 A 
HETATM   10  C   LIG     1      15.600  32.812  16.203  1.00  0.00     0.053 A 
HETATM   11 CL   LIG     1      16.709  32.507  13.719  1.00  0.00    -0.084 Cl
ENDBRANCH   3   5
BRANCH   2  12
HETATM   12  O   LIG     1      15.521  33.721  20.723  1.00  0.00    -0.292 OA
BRANCH  12  13
HETATM   13  C   LIG     1      16.245  34.942  20.625  1.00  0.00     0.274 C 
BRANCH  13  14
HETATM   14  C   LIG     1      16.605  35.399  21.966  1.00  0.00    -0.079 C 
HETATM   15  C   LIG     1      16.901  35.774  23.074  1.00  0.00    -0.089 C 
BRANCH  15  16
HETATM   16  C   LIG     1      17.260  36.230  24.417  1.00  0.00     0.208 C 
HETATM   17 CL   LIG     1      17.445  34.825  25.492  1.00  0.00    -0.117 Cl
ENDBRANCH  15  16
ENDBRANCH  13  14
ENDBRANCH  12  13
ENDBRANCH   2  12
TORSDOF 5
ENDMDL
MODEL 3
REMARK VINA RESULT:      -7.2      2.559      2.942
REMARK  5 active torsions:
REMARK  status: ('A' for Active; 'I' for Inactive)
REMARK       I    between atoms: C_2  and  N_9 
REMARK    1  A    between atoms: C_2  and  O_3 
REMARK    2  A    between atoms: O_3  and  C_4 
REMARK    3  A    between atoms: C_4  and  C_5 
REMARK    4  A    between atoms: C_6  and  C_7 
REMARK    5  A    between atoms: N_9  and  C_10 
ROOT
HETATM    1  O   LIG     1      14.510  35.714  21.238  1.00  0.00    -0.238 OA
HETATM    2  C   LIG     1      15.351  34.794  21.052  1.00  0.00     0.366 C 
HETATM    3  N   LIG     1      16.756  35.049  21.188  1.00  0.00    -0.303 N 
HETATM    4  H   LIG     1      17.384  34.219  21.283  1.00  0.00     0.171 HD
ENDROOT
BRANCH   3   5
HETATM    5  C   LIG     1      17.334  36.359  21.320  1.00  0.00     0.038 A 
HETATM    6  C   LIG     1      17.016  37.196  22.406  1.00  0.00     0.029 A 
HETATM    7  C   LIG     1      17.573  38.475  22.496  1.00  0.00     0.004 A 
HETATM    8  C   LIG     1      18.439  38.936  21.501  1.00  0.00     0.024 A 
HETATM    9  C   LIG     1      18.743  38.120  20.407  1.00  0.00     0.036 A 
HETATM   10  C   LIG     1      18.185  36.840  20.313  1.00  0.00     0.053 A 
HETATM   11 CL   LIG     1      19.818  38.703  19.150  1.00  0.00    -0.084 Cl
ENDBRANCH   3   5
BRANCH   2  12
HETATM   12  O   LIG     1      14.922  33.497  20.752  1.00  0.00    -0.292 OA
BRANCH  12  13
HETATM   13  C   LIG     1      15.679  32.607  19.941  1.00  0.00     0.274 C 
BRANCH  13  14
HETATM   14  C   LIG     1      14.873  32.198  18.791  1.00  0.00    -0.079 C 
HETATM   15  C   LIG     1      14.207  31.862  17.843  1.00  0.00    -0.089 C 
BRANCH  15  16
HETATM   16  C   LIG     1      13.398  31.454  16.694  1.00  0.00     0.208 C 
HETATM   17 CL   LIG     1      14.462  30.839  15.408  1.00  0.00    -0.117 Cl
ENDBRANCH  15  16
ENDBRANCH  13  14
ENDBRANCH  12  13
ENDBRANCH   2  12
TORSDOF 5
ENDMDL
MODEL 4
REMARK VINA RESULT:      -6.9      2.492      8.417
REMARK  5 active torsions:
REMARK  status: ('A' for Active; 'I' for Inactive)
REMARK       I    between atoms: C_2  and  N_9 
REMARK    1  A    between atoms: C_2  and  O_3 
REMARK    2  A    between atoms: O_3  and  C_4 
REMARK    3  A    between atoms: C_4  and  C_5 
REMARK    4  A    between atoms: C_6  and  C_7 
REMARK    5  A    between atoms: N_9  and  C_10 
ROOT
HETATM    1  O   LIG     1      15.399  32.060  19.678  1.00  0.00    -0.238 OA
HETATM    2  C   LIG     1      15.484  33.215  19.181  1.00  0.00     0.366 C 
HETATM    3  N   LIG     1      14.979  33.484  17.866  1.00  0.00    -0.303 N 
HETATM    4  H   LIG     1      14.834  34.486  17.606  1.00  0.00     0.171 HD
ENDROOT
BRANCH   3   5
HETATM    5  C   LIG     1      14.553  32.471  16.937  1.00  0.00     0.038 A 
HETATM    6  C   LIG     1      13.408  31.689  17.179  1.00  0.00     0.029 A 
HETATM    7  C   LIG     1      13.030  30.695  16.271  1.00  0.00     0.004 A 
HETATM    8  C   LIG     1      13.794  30.462  15.126  1.00  0.00     0.024 A 
HETATM    9  C   LIG     1      14.946  31.219  14.889  1.00  0.00     0.036 A 
HETATM   10  C   LIG     1      15.328  32.214  15.796  1.00  0.00     0.053 A 
HETATM   11 CL   LIG     1      15.914  30.918  13.458  1.00  0.00    -0.084 Cl
ENDBRANCH   3   5
BRANCH   2  12
HETATM   12  O   LIG     1      16.034  34.263  19.924  1.00  0.00    -0.292 OA
BRANCH  12  13
HETATM   13  C   LIG     1      15.668  34.522  21.275  1.00  0.00     0.274 C 
BRANCH  13  14
HETATM   14  C   LIG     1      16.314  35.755  21.722  1.00  0.00    -0.079 C 
HETATM   15  C   LIG     1      16.848  36.772  22.092  1.00  0.00    -0.089 C 
BRANCH  15  16
HETATM   16  C   LIG     1      17.495  38.004  22.540  1.00  0.00     0.208 C 
HETATM   17 CL   LIG     1      18.071  38.921  21.129  1.00  0.00    -0.117 Cl
ENDBRANCH  15  16
ENDBRANCH  13  14
ENDBRANCH  12  13
ENDBRANCH   2  12
TORSDOF 5
ENDMDL
MODEL 5
REMARK VINA RESULT:      -6.8      3.098      8.216
REMARK  5 active torsions:
REMARK  status: ('A' for Active; 'I' for Inactive)
REMARK       I    between atoms: C_2  and  N_9 
REMARK    1  A    between atoms: C_2  and  O_3 
REMARK    2  A    between atoms: O_3  and  C_4 
REMARK    3  A    between atoms: C_4  and  C_5 
REMARK    4  A    between atoms: C_6  and  C_7 
REMARK    5  A    between atoms: N_9  and  C_10 
ROOT
HETATM    1  O   LIG     1      15.895  33.028  19.964  1.00  0.00    -0.238 OA
HETATM    2  C   LIG     1      15.632  34.150  19.453  1.00  0.00     0.366 C 
HETATM    3  N   LIG     1      15.018  34.239  18.160  1.00  0.00    -0.303 N 
HETATM    4  H   LIG     1      14.587  35.155  17.898  1.00  0.00     0.171 HD
ENDROOT
BRANCH   3   5
HETATM    5  C   LIG     1      14.853  33.128  17.262  1.00  0.00     0.038 A 
HETATM    6  C   LIG     1      14.028  32.035  17.589  1.00  0.00     0.029 A 
HETATM    7  C   LIG     1      13.905  30.957  16.707  1.00  0.00     0.004 A 
HETATM    8  C   LIG     1      14.612  30.950  15.503  1.00  0.00     0.024 A 
HETATM    9  C   LIG     1      15.452  32.020  15.180  1.00  0.00     0.036 A 
HETATM   10  C   LIG     1      15.579  33.100  16.061  1.00  0.00     0.053 A 
HETATM   11 CL   LIG     1      16.352  32.005  13.675  1.00  0.00    -0.084 Cl
ENDBRANCH   3   5
BRANCH   2  12
HETATM   12  O   LIG     1      15.898  35.326  20.160  1.00  0.00    -0.292 OA
BRANCH  12  13
HETATM   13  C   LIG     1      16.929  35.418  21.137  1.00  0.00     0.274 C 
BRANCH  13  14
HETATM   14  C   LIG     1      17.619  36.699  20.991  1.00  0.00    -0.079 C 
HETATM   15  C   LIG     1      18.188  37.756  20.872  1.00  0.00    -0.089 C 
BRANCH  15  16
HETATM   16  C   LIG     1      18.878  39.038  20.728  1.00  0.00     0.208 C 
HETATM   17 CL   LIG     1      20.332  38.821  19.727  1.00  0.00    -0.117 Cl
ENDBRANCH  15  16
ENDBRANCH  13  14
ENDBRANCH  12  13
ENDBRANCH   2  12
TORSDOF 5
ENDMDL
MODEL 6
REMARK VINA RESULT:      -6.6      2.947      8.135
REMARK  5 active torsions:
REMARK  status: ('A' for Active; 'I' for Inactive)
REMARK       I    between atoms: C_2  and  N_9 
REMARK    1  A    between atoms: C_2  and  O_3 
REMARK    2  A    between atoms: O_3  and  C_4 
REMARK    3  A    between atoms: C_4  and  C_5 
REMARK    4  A    between atoms: C_6  and  C_7 
REMARK    5  A    between atoms: N_9  and  C_10 
ROOT
HETATM    1  O   LIG     1      15.813  32.146  19.504  1.00  0.00    -0.238 OA
HETATM    2  C   LIG     1      15.400  33.309  19.240  1.00  0.00     0.366 C 
HETATM    3  N   LIG     1      14.963  33.647  17.917  1.00  0.00    -0.303 N 
HETATM    4  H   LIG     1      14.396  34.519  17.810  1.00  0.00     0.171 HD
ENDROOT
BRANCH   3   5
HETATM    5  C   LIG     1      15.149  32.810  16.762  1.00  0.00     0.038 A 
HETATM    6  C   LIG     1      16.225  33.011  15.877  1.00  0.00     0.029 A 
HETATM    7  C   LIG     1      16.368  32.198  14.748  1.00  0.00     0.004 A 
HETATM    8  C   LIG     1      15.436  31.192  14.484  1.00  0.00     0.024 A 
HETATM    9  C   LIG     1      14.352  31.000  15.345  1.00  0.00     0.036 A 
HETATM   10  C   LIG     1      14.205  31.812  16.476  1.00  0.00     0.053 A 
HETATM   11 CL   LIG     1      13.174  29.745  15.007  1.00  0.00    -0.084 Cl
ENDBRANCH   3   5
BRANCH   2  12
HETATM   12  O   LIG     1      15.325  34.274  20.249  1.00  0.00    -0.292 OA
BRANCH  12  13
HETATM   13  C   LIG     1      16.307  34.395  21.271  1.00  0.00     0.274 C 
BRANCH  13  14
HETATM   14  C   LIG     1      17.033  35.652  21.097  1.00  0.00    -0.079 C 
HETATM   15  C   LIG     1      17.631  36.690  20.955  1.00  0.00    -0.089 C 
BRANCH  15  16
HETATM   16  C   LIG     1      18.357  37.948  20.783  1.00  0.00     0.208 C 
HETATM   17 CL   LIG     1      19.571  37.764  19.496  1.00  0.00    -0.117 Cl
ENDBRANCH  15  16
ENDBRANCH  13  14
ENDBRANCH  12  13
ENDBRANCH   2  12
TORSDOF 5
ENDMDL
MODEL 7
REMARK VINA RESULT:      -6.6      8.289      9.818
REMARK  5 active torsions:
REMARK  status: ('A' for Active; 'I' for Inactive)
REMARK       I    between atoms: C_2  and  N_9 
REMARK    1  A    between atoms: C_2  and  O_3 
REMARK    2  A    between atoms: O_3  and  C_4 
REMARK    3  A    between atoms: C_4  and  C_5 
REMARK    4  A    between atoms: C_6  and  C_7 
REMARK    5  A    between atoms: N_9  and  C_10 
ROOT
HETATM    1  O   LIG     1      17.464  34.773  13.863  1.00  0.00    -0.238 OA
HETATM    2  C   LIG     1      17.275  33.664  13.295  1.00  0.00     0.366 C 
HETATM    3  N   LIG     1      18.245  33.136  12.380  1.00  0.00    -0.303 N 
HETATM    4  H   LIG     1      18.174  32.120  12.142  1.00  0.00     0.171 HD
ENDROOT
BRANCH   3   5
HETATM    5  C   LIG     1      19.366  33.878  11.868  1.00  0.00     0.038 A 
HETATM    6  C   LIG     1      19.427  34.280  10.521  1.00  0.00     0.029 A 
HETATM    7  C   LIG     1      20.540  34.979  10.044  1.00  0.00     0.004 A 
HETATM    8  C   LIG     1      21.605  35.271  10.900  1.00  0.00     0.024 A 
HETATM    9  C   LIG     1      21.564  34.856  12.234  1.00  0.00     0.036 A 
HETATM   10  C   LIG     1      20.451  34.155  12.714  1.00  0.00     0.053 A 
HETATM   11 CL   LIG     1      22.907  35.209  13.305  1.00  0.00    -0.084 Cl
ENDBRANCH   3   5
BRANCH   2  12
HETATM   12  O   LIG     1      16.132  32.911  13.582  1.00  0.00    -0.292 OA
BRANCH  12  13
HETATM   13  C   LIG     1      15.977  32.185  14.796  1.00  0.00     0.274 C 
BRANCH  13  14
HETATM   14  C   LIG     1      15.185  30.982  14.541  1.00  0.00    -0.079 C 
HETATM   15  C   LIG     1      14.533  29.989  14.330  1.00  0.00    -0.089 C 
BRANCH  15  16
HETATM   16  C   LIG     1      13.743  28.785  14.075  1.00  0.00     0.208 C 
HETATM   17 CL   LIG     1      14.827  27.445  13.636  1.00  0.00    -0.117 Cl
ENDBRANCH  15  16
ENDBRANCH  13  14
ENDBRANCH  12  13
ENDBRANCH   2  12
TORSDOF 5
ENDMDL
MODEL 8
REMARK VINA RESULT:      -6.6      1.982      8.253
REMARK  5 active torsions:
REMARK  status: ('A' for Active; 'I' for Inactive)
REMARK       I    between atoms: C_2  and  N_9 
REMARK    1  A    between atoms: C_2  and  O_3 
REMARK    2  A    between atoms: O_3  and  C_4 
REMARK    3  A    between atoms: C_4  and  C_5 
REMARK    4  A    between atoms: C_6  and  C_7 
REMARK    5  A    between atoms: N_9  and  C_10 
ROOT
HETATM    1  O   LIG     1      15.825  33.013  19.954  1.00  0.00    -0.238 OA
HETATM    2  C   LIG     1      15.606  34.180  19.530  1.00  0.00     0.366 C 
HETATM    3  N   LIG     1      15.168  34.398  18.182  1.00  0.00    -0.303 N 
HETATM    4  H   LIG     1      14.754  35.332  17.959  1.00  0.00     0.171 HD
ENDROOT
BRANCH   3   5
HETATM    5  C   LIG     1      15.152  33.386  17.160  1.00  0.00     0.038 A 
HETATM    6  C   LIG     1      16.134  33.344  16.152  1.00  0.00     0.029 A 
HETATM    7  C   LIG     1      16.079  32.363  15.157  1.00  0.00     0.004 A 
HETATM    8  C   LIG     1      15.042  31.428  15.148  1.00  0.00     0.024 A 
HETATM    9  C   LIG     1      14.050  31.475  16.132  1.00  0.00     0.036 A 
HETATM   10  C   LIG     1      14.101  32.456  17.129  1.00  0.00     0.053 A 
HETATM   11 CL   LIG     1      12.740  30.310  16.113  1.00  0.00    -0.084 Cl
ENDBRANCH   3   5
BRANCH   2  12
HETATM   12  O   LIG     1      15.746  35.278  20.384  1.00  0.00    -0.292 OA
BRANCH  12  13
HETATM   13  C   LIG     1      17.013  35.836  20.715  1.00  0.00     0.274 C 
BRANCH  13  14
HETATM   14  C   LIG     1      16.932  36.470  22.030  1.00  0.00    -0.079 C 
HETATM   15  C   LIG     1      16.866  36.993  23.115  1.00  0.00    -0.089 C 
BRANCH  15  16
HETATM   16  C   LIG     1      16.787  37.627  24.431  1.00  0.00     0.208 C 
HETATM   17 CL   LIG     1      18.156  37.092  25.432  1.00  0.00    -0.117 Cl
ENDBRANCH  15  16
ENDBRANCH  13  14
ENDBRANCH  12  13
ENDBRANCH   2  12
TORSDOF 5
ENDMDL
MODEL 9
REMARK VINA RESULT:      -6.5      7.732     10.052
REMARK  5 active torsions:
REMARK  status: ('A' for Active; 'I' for Inactive)
REMARK       I    between atoms: C_2  and  N_9 
REMARK    1  A    between atoms: C_2  and  O_3 
REMARK    2  A    between atoms: O_3  and  C_4 
REMARK    3  A    between atoms: C_4  and  C_5 
REMARK    4  A    between atoms: C_6  and  C_7 
REMARK    5  A    between atoms: N_9  and  C_10 
ROOT
HETATM    1  O   LIG     1      14.544  27.415  13.573  1.00  0.00    -0.238 OA
HETATM    2  C   LIG     1      13.342  27.699  13.829  1.00  0.00     0.366 C 
HETATM    3  N   LIG     1      12.973  29.029  14.218  1.00  0.00    -0.303 N 
HETATM    4  H   LIG     1      11.959  29.278  14.164  1.00  0.00     0.171 HD
ENDROOT
BRANCH   3   5
HETATM    5  C   LIG     1      13.910  30.066  14.557  1.00  0.00     0.038 A 
HETATM    6  C   LIG     1      14.947  30.435  13.679  1.00  0.00     0.029 A 
HETATM    7  C   LIG     1      15.859  31.430  14.045  1.00  0.00     0.004 A 
HETATM    8  C   LIG     1      15.756  32.054  15.290  1.00  0.00     0.024 A 
HETATM    9  C   LIG     1      14.743  31.678  16.178  1.00  0.00     0.036 A 
HETATM   10  C   LIG     1      13.829  30.682  15.815  1.00  0.00     0.053 A 
HETATM   11 CL   LIG     1      14.622  32.451  17.747  1.00  0.00    -0.084 Cl
ENDBRANCH   3   5
BRANCH   2  12
HETATM   12  O   LIG     1      12.346  26.728  13.697  1.00  0.00    -0.292 OA
BRANCH  12  13
HETATM   13  C   LIG     1      11.402  26.737  12.632  1.00  0.00     0.274 C 
BRANCH  13  14
HETATM   14  C   LIG     1      11.712  25.651  11.703  1.00  0.00    -0.079 C 
HETATM   15  C   LIG     1      11.969  24.757  10.936  1.00  0.00    -0.089 C 
BRANCH  15  16
HETATM   16  C   LIG     1      12.279  23.672  10.005  1.00  0.00     0.208 C 
HETATM   17 CL   LIG     1      14.008  23.270  10.115  1.00  0.00    -0.117 Cl
ENDBRANCH  15  16
ENDBRANCH  13  14
ENDBRANCH  12  13
ENDBRANCH   2  12
TORSDOF 5
ENDMDL
MODEL 10
REMARK VINA RESULT:      -6.4      2.071      7.631
REMARK  5 active torsions:
REMARK  status: ('A' for Active; 'I' for Inactive)
REMARK       I    between atoms: C_2  and  N_9 
REMARK    1  A    between atoms: C_2  and  O_3 
REMARK    2  A    between atoms: O_3  and  C_4 
REMARK    3  A    between atoms: C_4  and  C_5 
REMARK    4  A    between atoms: C_6  and  C_7 
REMARK    5  A    between atoms: N_9  and  C_10 
ROOT
HETATM    1  O   LIG     1      17.812  35.663  21.193  1.00  0.00    -0.238 OA
HETATM    2  C   LIG     1      16.742  36.310  21.360  1.00  0.00     0.366 C 
HETATM    3  N   LIG     1      15.481  35.748  20.972  1.00  0.00    -0.303 N 
HETATM    4  H   LIG     1      14.619  36.195  21.361  1.00  0.00     0.171 HD
ENDROOT
BRANCH   3   5
HETATM    5  C   LIG     1      15.331  34.551  20.189  1.00  0.00     0.038 A 
HETATM    6  C   LIG     1      15.143  33.295  20.795  1.00  0.00     0.029 A 
HETATM    7  C   LIG     1      15.025  32.144  20.010  1.00  0.00     0.004 A 
HETATM    8  C   LIG     1      15.108  32.232  18.618  1.00  0.00     0.024 A 
HETATM    9  C   LIG     1      15.318  33.472  18.008  1.00  0.00     0.036 A 
HETATM   10  C   LIG     1      15.437  34.626  18.791  1.00  0.00     0.053 A 
HETATM   11 CL   LIG     1      15.436  33.581  16.261  1.00  0.00    -0.084 Cl
ENDBRANCH   3   5
BRANCH   2  12
HETATM   12  O   LIG     1      16.767  37.569  21.966  1.00  0.00    -0.292 OA
BRANCH  12  13
HETATM   13  C   LIG     1      16.068  37.855  23.172  1.00  0.00     0.274 C 
BRANCH  13  14
HETATM   14  C   LIG     1      16.867  37.403  24.311  1.00  0.00    -0.079 C 
HETATM   15  C   LIG     1      17.526  37.029  25.249  1.00  0.00    -0.089 C 
BRANCH  15  16
HETATM   16  C   LIG     1      18.324  36.574  26.388  1.00  0.00     0.208 C 
HETATM   17 CL   LIG     1      18.411  34.798  26.382  1.00  0.00    -0.117 Cl
ENDBRANCH  15  16
ENDBRANCH  13  14
ENDBRANCH  12  13
ENDBRANCH   2  12
TORSDOF 5
ENDMDL
MODEL 11
REMARK VINA RESULT:      -6.1      3.155      6.789
REMARK  5 active torsions:
REMARK  status: ('A' for Active; 'I' for Inactive)
REMARK       I    between atoms: C_2  and  N_9 
REMARK    1  A    between atoms: C_2  and  O_3 
REMARK    2  A    between atoms: O_3  and  C_4 
REMARK    3  A    between atoms: C_4  and  C_5 
REMARK    4  A    between atoms: C_6  and  C_7 
REMARK    5  A    between atoms: N_9  and  C_10 
ROOT
HETATM    1  O   LIG     1      17.449  35.188  22.432  1.00  0.00    -0.238 OA
HETATM    2  C   LIG     1      16.481  35.996  22.390  1.00  0.00     0.366 C 
HETATM    3  N   LIG     1      15.377  35.768  21.503  1.00  0.00    -0.303 N 
HETATM    4  H   LIG     1      14.499  36.304  21.687  1.00  0.00     0.171 HD
ENDROOT
BRANCH   3   5
HETATM    5  C   LIG     1      15.362  34.773  20.464  1.00  0.00     0.038 A 
HETATM    6  C   LIG     1      15.490  35.127  19.108  1.00  0.00     0.029 A 
HETATM    7  C   LIG     1      15.447  34.141  18.117  1.00  0.00     0.004 A 
HETATM    8  C   LIG     1      15.263  32.801  18.466  1.00  0.00     0.024 A 
HETATM    9  C   LIG     1      15.113  32.444  19.809  1.00  0.00     0.036 A 
HETATM   10  C   LIG     1      15.154  33.428  20.803  1.00  0.00     0.053 A 
HETATM   11 CL   LIG     1      14.868  30.763  20.247  1.00  0.00    -0.084 Cl
ENDBRANCH   3   5
BRANCH   2  12
HETATM   12  O   LIG     1      16.452  37.105  23.240  1.00  0.00    -0.292 OA
BRANCH  12  13
HETATM   13  C   LIG     1      16.376  38.441  22.756  1.00  0.00     0.274 C 
BRANCH  13  14
HETATM   14  C   LIG     1      17.495  38.689  21.848  1.00  0.00    -0.079 C 
HETATM   15  C   LIG     1      18.417  38.894  21.098  1.00  0.00    -0.089 C 
BRANCH  15  16
HETATM   16  C   LIG     1      19.535  39.143  20.187  1.00  0.00     0.208 C 
HETATM   17 CL   LIG     1      20.044  37.611  19.440  1.00  0.00    -0.117 Cl
ENDBRANCH  15  16
ENDBRANCH  13  14
ENDBRANCH  12  13
ENDBRANCH   2  12
TORSDOF 5
ENDMDL
MODEL 12
REMARK VINA RESULT:      -6.1      7.645      9.812
REMARK  5 active torsions:
REMARK  status: ('A' for Active; 'I' for Inactive)
REMARK       I    between atoms: C_2  and  N_9 
REMARK    1  A    between atoms: C_2  and  O_3 
REMARK    2  A    between atoms: O_3  and  C_4 
REMARK    3  A    between atoms: C_4  and  C_5 
REMARK    4  A    between atoms: C_6  and  C_7 
REMARK    5  A    between atoms: N_9  and  C_10 
ROOT
HETATM    1  O   LIG     1      17.168  35.198  12.881  1.00  0.00    -0.238 OA
HETATM    2  C   LIG     1      17.291  33.943  12.916  1.00  0.00     0.366 C 
HETATM    3  N   LIG     1      18.555  33.325  12.639  1.00  0.00    -0.303 N 
HETATM    4  H   LIG     1      18.673  32.328  12.932  1.00  0.00     0.171 HD
ENDROOT
BRANCH   3   5
HETATM    5  C   LIG     1      19.696  34.016  12.100  1.00  0.00     0.038 A 
HETATM    6  C   LIG     1      19.777  34.344  10.734  1.00  0.00     0.029 A 
HETATM    7  C   LIG     1      20.909  34.993  10.232  1.00  0.00     0.004 A 
HETATM    8  C   LIG     1      21.972  35.309  11.081  1.00  0.00     0.024 A 
HETATM    9  C   LIG     1      21.910  34.967  12.435  1.00  0.00     0.036 A 
HETATM   10  C   LIG     1      20.779  34.315  12.941  1.00  0.00     0.053 A 
HETATM   11 CL   LIG     1      23.251  35.350  13.499  1.00  0.00    -0.084 Cl
ENDBRANCH   3   5
BRANCH   2  12
HETATM   12  O   LIG     1      16.204  33.138  13.269  1.00  0.00    -0.292 OA
BRANCH  12  13
HETATM   13  C   LIG     1      16.352  31.924  13.996  1.00  0.00     0.274 C 
BRANCH  13  14
HETATM   14  C   LIG     1      15.594  32.015  15.244  1.00  0.00    -0.079 C 
HETATM   15  C   LIG     1      14.971  32.088  16.274  1.00  0.00    -0.089 C 
BRANCH  15  16
HETATM   16  C   LIG     1      14.213  32.176  17.523  1.00  0.00     0.208 C 
HETATM   17 CL   LIG     1      15.339  32.324  18.892  1.00  0.00    -0.117 Cl
ENDBRANCH  15  16
ENDBRANCH  13  14
ENDBRANCH  12  13
ENDBRANCH   2  12
TORSDOF 5
ENDMDL
MODEL 13
REMARK VINA RESULT:      -5.9      3.066      7.218
REMARK  5 active torsions:
REMARK  status: ('A' for Active; 'I' for Inactive)
REMARK       I    between atoms: C_2  and  N_9 
REMARK    1  A    between atoms: C_2  and  O_3 
REMARK    2  A    between atoms: O_3  and  C_4 
REMARK    3  A    between atoms: C_4  and  C_5 
REMARK    4  A    between atoms: C_6  and  C_7 
REMARK    5  A    between atoms: N_9  and  C_10 
ROOT
HETATM    1  O   LIG     1      17.138  35.110  22.145  1.00  0.00    -0.238 OA
HETATM    2  C   LIG     1      16.144  35.870  21.986  1.00  0.00     0.366 C 
HETATM    3  N   LIG     1      15.060  35.486  21.130  1.00  0.00    -0.303 N 
HETATM    4  H   LIG     1      14.162  36.012  21.232  1.00  0.00     0.171 HD
ENDROOT
BRANCH   3   5
HETATM    5  C   LIG     1      15.091  34.360  20.236  1.00  0.00     0.038 A 
HETATM    6  C   LIG     1      14.974  33.041  20.712  1.00  0.00     0.029 A 
HETATM    7  C   LIG     1      15.032  31.963  19.823  1.00  0.00     0.004 A 
HETATM    8  C   LIG     1      15.221  32.189  18.458  1.00  0.00     0.024 A 
HETATM    9  C   LIG     1      15.362  33.494  17.978  1.00  0.00     0.036 A 
HETATM   10  C   LIG     1      15.305  34.575  18.865  1.00  0.00     0.053 A 
HETATM   11 CL   LIG     1      15.614  33.777  16.266  1.00  0.00    -0.084 Cl
ENDBRANCH   3   5
BRANCH   2  12
HETATM   12  O   LIG     1      16.068  37.083  22.677  1.00  0.00    -0.292 OA
BRANCH  12  13
HETATM   13  C   LIG     1      17.222  37.806  23.089  1.00  0.00     0.274 C 
BRANCH  13  14
HETATM   14  C   LIG     1      17.869  38.391  21.914  1.00  0.00    -0.079 C 
HETATM   15  C   LIG     1      18.401  38.874  20.946  1.00  0.00    -0.089 C 
BRANCH  15  16
HETATM   16  C   LIG     1      19.046  39.459  19.770  1.00  0.00     0.208 C 
HETATM   17 CL   LIG     1      20.588  38.627  19.463  1.00  0.00    -0.117 Cl
ENDBRANCH  15  16
ENDBRANCH  13  14
ENDBRANCH  12  13
ENDBRANCH   2  12
TORSDOF 5
ENDMDL
MODEL 14
REMARK VINA RESULT:      -5.8      2.877      3.371
REMARK  5 active torsions:
REMARK  status: ('A' for Active; 'I' for Inactive)
REMARK       I    between atoms: C_2  and  N_9 
REMARK    1  A    between atoms: C_2  and  O_3 
REMARK    2  A    between atoms: O_3  and  C_4 
REMARK    3  A    between atoms: C_4  and  C_5 
REMARK    4  A    between atoms: C_6  and  C_7 
REMARK    5  A    between atoms: N_9  and  C_10 
ROOT
HETATM    1  O   LIG     1      15.214  34.916  17.548  1.00  0.00    -0.238 OA
HETATM    2  C   LIG     1      15.388  33.806  18.120  1.00  0.00     0.366 C 
HETATM    3  N   LIG     1      15.583  33.739  19.540  1.00  0.00    -0.303 N 
HETATM    4  H   LIG     1      15.461  32.805  19.994  1.00  0.00     0.171 HD
ENDROOT
BRANCH   3   5
HETATM    5  C   LIG     1      15.813  34.881  20.383  1.00  0.00     0.038 A 
HETATM    6  C   LIG     1      14.861  35.295  21.334  1.00  0.00     0.029 A 
HETATM    7  C   LIG     1      15.101  36.423  22.124  1.00  0.00     0.004 A 
HETATM    8  C   LIG     1      16.279  37.156  21.964  1.00  0.00     0.024 A 
HETATM    9  C   LIG     1      17.219  36.766  21.006  1.00  0.00     0.036 A 
HETATM   10  C   LIG     1      16.983  35.637  20.213  1.00  0.00     0.053 A 
HETATM   11 CL   LIG     1      18.693  37.693  20.794  1.00  0.00    -0.084 Cl
ENDBRANCH   3   5
BRANCH   2  12
HETATM   12  O   LIG     1      15.353  32.620  17.382  1.00  0.00    -0.292 OA
BRANCH  12  13
HETATM   13  C   LIG     1      15.756  32.551  16.020  1.00  0.00     0.274 C 
BRANCH  13  14
HETATM   14  C   LIG     1      15.108  31.405  15.382  1.00  0.00    -0.079 C 
HETATM   15  C   LIG     1      14.574  30.461  14.854  1.00  0.00    -0.089 C 
BRANCH  15  16
HETATM   16  C   LIG     1      13.926  29.316  14.215  1.00  0.00     0.208 C 
HETATM   17 CL   LIG     1      15.157  28.124  13.740  1.00  0.00    -0.117 Cl
ENDBRANCH  15  16
ENDBRANCH  13  14
ENDBRANCH  12  13
ENDBRANCH   2  12
TORSDOF 5
ENDMDL
MODEL 15
REMARK VINA RESULT:      -5.5      3.799      6.937
REMARK  5 active torsions:
REMARK  status: ('A' for Active; 'I' for Inactive)
REMARK       I    between atoms: C_2  and  N_9 
REMARK    1  A    between atoms: C_2  and  O_3 
REMARK    2  A    between atoms: O_3  and  C_4 
REMARK    3  A    between atoms: C_4  and  C_5 
REMARK    4  A    between atoms: C_6  and  C_7 
REMARK    5  A    between atoms: N_9  and  C_10 
ROOT
HETATM    1  O   LIG     1      17.937  36.001  20.869  1.00  0.00    -0.238 OA
HETATM    2  C   LIG     1      16.835  36.467  21.267  1.00  0.00     0.366 C 
HETATM    3  N   LIG     1      15.607  35.782  20.985  1.00  0.00    -0.303 N 
HETATM    4  H   LIG     1      14.768  36.055  21.545  1.00  0.00     0.171 HD
ENDROOT
BRANCH   3   5
HETATM    5  C   LIG     1      15.486  34.674  20.075  1.00  0.00     0.038 A 
HETATM    6  C   LIG     1      15.523  34.861  18.681  1.00  0.00     0.029 A 
HETATM    7  C   LIG     1      15.378  33.769  17.820  1.00  0.00     0.004 A 
HETATM    8  C   LIG     1      15.182  32.487  18.338  1.00  0.00     0.024 A 
HETATM    9  C   LIG     1      15.122  32.294  19.721  1.00  0.00     0.036 A 
HETATM   10  C   LIG     1      15.265  33.386  20.586  1.00  0.00     0.053 A 
HETATM   11 CL   LIG     1      14.862  30.687  20.373  1.00  0.00    -0.084 Cl
ENDBRANCH   3   5
BRANCH   2  12
HETATM   12  O   LIG     1      16.800  37.639  22.028  1.00  0.00    -0.292 OA
BRANCH  12  13
HETATM   13  C   LIG     1      17.970  38.383  22.346  1.00  0.00     0.274 C 
BRANCH  13  14
HETATM   14  C   LIG     1      18.689  38.703  21.114  1.00  0.00    -0.079 C 
HETATM   15  C   LIG     1      19.281  38.968  20.097  1.00  0.00    -0.089 C 
BRANCH  15  16
HETATM   16  C   LIG     1      19.998  39.290  18.863  1.00  0.00     0.208 C 
HETATM   17 CL   LIG     1      18.864  39.269  17.493  1.00  0.00    -0.117 Cl
ENDBRANCH  15  16
ENDBRANCH  13  14
ENDBRANCH  12  13
ENDBRANCH   2  12
TORSDOF 5
ENDMDL
MODEL 16
REMARK VINA RESULT:      -5.3      5.668      6.049
REMARK  5 active torsions:
REMARK  status: ('A' for Active; 'I' for Inactive)
REMARK       I    between atoms: C_2  and  N_9 
REMARK    1  A    between atoms: C_2  and  O_3 
REMARK    2  A    between atoms: O_3  and  C_4 
REMARK    3  A    between atoms: C_4  and  C_5 
REMARK    4  A    between atoms: C_6  and  C_7 
REMARK    5  A    between atoms: N_9  and  C_10 
ROOT
HETATM    1  O   LIG     1      18.948  38.910  21.943  1.00  0.00    -0.238 OA
HETATM    2  C   LIG     1      18.118  38.102  21.445  1.00  0.00     0.366 C 
HETATM    3  N   LIG     1      17.224  37.362  22.287  1.00  0.00    -0.303 N 
HETATM    4  H   LIG     1      16.396  36.916  21.829  1.00  0.00     0.171 HD
ENDROOT
BRANCH   3   5
HETATM    5  C   LIG     1      17.326  37.295  23.720  1.00  0.00     0.038 A 
HETATM    6  C   LIG     1      17.208  38.449  24.519  1.00  0.00     0.029 A 
HETATM    7  C   LIG     1      17.336  38.359  25.908  1.00  0.00     0.004 A 
HETATM    8  C   LIG     1      17.596  37.126  26.511  1.00  0.00     0.024 A 
HETATM    9  C   LIG     1      17.736  35.979  25.724  1.00  0.00     0.036 A 
HETATM   10  C   LIG     1      17.610  36.066  24.333  1.00  0.00     0.053 A 
HETATM   11 CL   LIG     1      18.076  34.433  26.480  1.00  0.00    -0.084 Cl
ENDBRANCH   3   5
BRANCH   2  12
HETATM   12  O   LIG     1      18.029  37.949  20.058  1.00  0.00    -0.292 OA
BRANCH  12  13
HETATM   13  C   LIG     1      19.176  37.899  19.217  1.00  0.00     0.274 C 
BRANCH  13  14
HETATM   14  C   LIG     1      18.928  38.698  18.017  1.00  0.00    -0.079 C 
HETATM   15  C   LIG     1      18.726  39.358  17.028  1.00  0.00    -0.089 C 
BRANCH  15  16
HETATM   16  C   LIG     1      18.480  40.159  15.829  1.00  0.00     0.208 C 
HETATM   17 CL   LIG     1      18.993  41.837  16.119  1.00  0.00    -0.117 Cl
ENDBRANCH  15  16
ENDBRANCH  13  14
ENDBRANCH  12  13
ENDBRANCH   2  12
TORSDOF 5
ENDMDL
MODEL 17
REMARK VINA RESULT:      -5.1      6.529      9.878
REMARK  5 active torsions:
REMARK  status: ('A' for Active; 'I' for Inactive)
REMARK       I    between atoms: C_2  and  N_9 
REMARK    1  A    between atoms: C_2  and  O_3 
REMARK    2  A    between atoms: O_3  and  C_4 
REMARK    3  A    between atoms: C_4  and  C_5 
REMARK    4  A    between atoms: C_6  and  C_7 
REMARK    5  A    between atoms: N_9  and  C_10 
ROOT
HETATM    1  O   LIG     1      16.136  32.491  13.382  1.00  0.00    -0.238 OA
HETATM    2  C   LIG     1      16.643  33.314  14.191  1.00  0.00     0.366 C 
HETATM    3  N   LIG     1      17.658  34.231  13.761  1.00  0.00    -0.303 N 
HETATM    4  H   LIG     1      17.855  35.051  14.380  1.00  0.00     0.171 HD
ENDROOT
BRANCH   3   5
HETATM    5  C   LIG     1      18.330  34.162  12.491  1.00  0.00     0.038 A 
HETATM    6  C   LIG     1      18.072  35.097  11.472  1.00  0.00     0.029 A 
HETATM    7  C   LIG     1      18.721  34.991  10.238  1.00  0.00     0.004 A 
HETATM    8  C   LIG     1      19.620  33.948  10.004  1.00  0.00     0.024 A 
HETATM    9  C   LIG     1      19.865  33.001  11.003  1.00  0.00     0.036 A 
HETATM   10  C   LIG     1      19.216  33.103  12.239  1.00  0.00     0.053 A 
HETATM   11 CL   LIG     1      20.983  31.682  10.706  1.00  0.00    -0.084 Cl
ENDBRANCH   3   5
BRANCH   2  12
HETATM   12  O   LIG     1      16.191  33.373  15.513  1.00  0.00    -0.292 OA
BRANCH  12  13
HETATM   13  C   LIG     1      15.153  32.534  16.006  1.00  0.00     0.274 C 
BRANCH  13  14
HETATM   14  C   LIG     1      15.162  32.564  17.468  1.00  0.00    -0.079 C 
HETATM   15  C   LIG     1      15.170  32.588  18.674  1.00  0.00    -0.089 C 
BRANCH  15  16
HETATM   16  C   LIG     1      15.177  32.617  20.137  1.00  0.00     0.208 C 
HETATM   17 CL   LIG     1      15.843  34.168  20.697  1.00  0.00    -0.117 Cl
ENDBRANCH  15  16
ENDBRANCH  13  14
ENDBRANCH  12  13
ENDBRANCH   2  12
TORSDOF 5
ENDMDL
MODEL 18
REMARK VINA RESULT:      -4.9      4.559      6.011
REMARK  5 active torsions:
REMARK  status: ('A' for Active; 'I' for Inactive)
REMARK       I    between atoms: C_2  and  N_9 
REMARK    1  A    between atoms: C_2  and  O_3 
REMARK    2  A    between atoms: O_3  and  C_4 
REMARK    3  A    between atoms: C_4  and  C_5 
REMARK    4  A    between atoms: C_6  and  C_7 
REMARK    5  A    between atoms: N_9  and  C_10 
ROOT
HETATM    1  O   LIG     1      12.609  30.707  16.931  1.00  0.00    -0.238 OA
HETATM    2  C   LIG     1      13.594  30.975  16.191  1.00  0.00     0.366 C 
HETATM    3  N   LIG     1      14.788  31.546  16.743  1.00  0.00    -0.303 N 
HETATM    4  H   LIG     1      15.652  31.506  16.156  1.00  0.00     0.171 HD
ENDROOT
BRANCH   3   5
HETATM    5  C   LIG     1      14.900  32.055  18.084  1.00  0.00     0.038 A 
HETATM    6  C   LIG     1      14.528  31.279  19.198  1.00  0.00     0.029 A 
HETATM    7  C   LIG     1      14.624  31.809  20.488  1.00  0.00     0.004 A 
HETATM    8  C   LIG     1      15.077  33.116  20.679  1.00  0.00     0.024 A 
HETATM    9  C   LIG     1      15.427  33.902  19.578  1.00  0.00     0.036 A 
HETATM   10  C   LIG     1      15.331  33.376  18.284  1.00  0.00     0.053 A 
HETATM   11 CL   LIG     1      15.982  35.549  19.816  1.00  0.00    -0.084 Cl
ENDBRANCH   3   5
BRANCH   2  12
HETATM   12  O   LIG     1      13.551  30.679  14.826  1.00  0.00    -0.292 OA
BRANCH  12  13
HETATM   13  C   LIG     1      14.669  30.155  14.118  1.00  0.00     0.274 C 
BRANCH  13  14
HETATM   14  C   LIG     1      15.587  31.245  13.790  1.00  0.00    -0.079 C 
HETATM   15  C   LIG     1      16.343  32.145  13.518  1.00  0.00    -0.089 C 
BRANCH  15  16
HETATM   16  C   LIG     1      17.261  33.235  13.187  1.00  0.00     0.208 C 
HETATM   17 CL   LIG     1      17.611  34.182  14.652  1.00  0.00    -0.117 Cl
ENDBRANCH  15  16
ENDBRANCH  13  14
ENDBRANCH  12  13
ENDBRANCH   2  12
TORSDOF 5
ENDMDL
MODEL 19
REMARK VINA RESULT:      -4.8      7.424      9.756
REMARK  5 active torsions:
REMARK  status: ('A' for Active; 'I' for Inactive)
REMARK       I    between atoms: C_2  and  N_9 
REMARK    1  A    between atoms: C_2  and  O_3 
REMARK    2  A    between atoms: O_3  and  C_4 
REMARK    3  A    between atoms: C_4  and  C_5 
REMARK    4  A    between atoms: C_6  and  C_7 
REMARK    5  A    between atoms: N_9  and  C_10 
ROOT
HETATM    1  O   LIG     1      16.104  32.536  13.361  1.00  0.00    -0.238 OA
HETATM    2  C   LIG     1      16.796  33.080  14.264  1.00  0.00     0.366 C 
HETATM    3  N   LIG     1      17.906  33.923  13.925  1.00  0.00    -0.303 N 
HETATM    4  H   LIG     1      18.278  34.547  14.677  1.00  0.00     0.171 HD
ENDROOT
BRANCH   3   5
HETATM    5  C   LIG     1      18.456  34.049  12.603  1.00  0.00     0.038 A 
HETATM    6  C   LIG     1      18.048  35.077  11.733  1.00  0.00     0.029 A 
HETATM    7  C   LIG     1      18.582  35.162  10.443  1.00  0.00     0.004 A 
HETATM    8  C   LIG     1      19.513  34.217  10.005  1.00  0.00     0.024 A 
HETATM    9  C   LIG     1      19.907  33.179  10.853  1.00  0.00     0.036 A 
HETATM   10  C   LIG     1      19.374  33.091  12.145  1.00  0.00     0.053 A 
HETATM   11 CL   LIG     1      21.065  31.985  10.299  1.00  0.00    -0.084 Cl
ENDBRANCH   3   5
BRANCH   2  12
HETATM   12  O   LIG     1      16.464  32.901  15.610  1.00  0.00    -0.292 OA
BRANCH  12  13
HETATM   13  C   LIG     1      15.201  32.398  16.028  1.00  0.00     0.274 C 
BRANCH  13  14
HETATM   14  C   LIG     1      14.936  31.132  15.345  1.00  0.00    -0.079 C 
HETATM   15  C   LIG     1      14.718  30.088  14.782  1.00  0.00    -0.089 C 
BRANCH  15  16
HETATM   16  C   LIG     1      14.455  28.822  14.098  1.00  0.00     0.208 C 
HETATM   17 CL   LIG     1      12.700  28.543  14.018  1.00  0.00    -0.117 Cl
ENDBRANCH  15  16
ENDBRANCH  13  14
ENDBRANCH  12  13
ENDBRANCH   2  12
TORSDOF 5
ENDMDL
