MODEL 1
REMARK VINA RESULT:      -8.9      0.000      0.000
REMARK  2 active torsions:
REMARK  status: ('A' for Active; 'I' for Inactive)
REMARK    1  A    between atoms: C_1  and  O_2 
REMARK    2  A    between atoms: O_2  and  C_3 
ROOT
HETATM    1  O   LIG     1      16.763  37.310  22.931  1.00  0.00    -0.311 OA
ENDROOT
BRANCH   1   2
HETATM    2  C   LIG     1      17.549  37.588  21.802  1.00  0.00     0.076 A 
HETATM    3  C   LIG     1      18.103  38.867  21.666  1.00  0.00     0.037 A 
HETATM    4  C   LIG     1      18.904  39.178  20.564  1.00  0.00     0.003 A 
HETATM    5  C   LIG     1      19.168  38.206  19.594  1.00  0.00     0.000 A 
HETATM    6  C   LIG     1      18.637  36.920  19.731  1.00  0.00     0.003 A 
HETATM    7  C   LIG     1      17.834  36.608  20.833  1.00  0.00     0.037 A 
ENDBRANCH   1   2
BRANCH   1   8
HETATM    8  C   LIG     1      17.235  36.768  24.136  1.00  0.00     0.076 A 
HETATM    9  C   LIG     1      17.111  35.389  24.346  1.00  0.00     0.037 A 
HETATM   10  C   LIG     1      17.582  34.808  25.528  1.00  0.00     0.003 A 
HETATM   11  C   LIG     1      18.193  35.603  26.502  1.00  0.00     0.000 A 
HETATM   12  C   LIG     1      18.338  36.976  26.293  1.00  0.00     0.003 A 
HETATM   13  C   LIG     1      17.868  37.559  25.113  1.00  0.00     0.037 A 
ENDBRANCH   1   8
TORSDOF 2
ENDMDL
MODEL 2
REMARK VINA RESULT:      -8.9      0.040      5.404
REMARK  2 active torsions:
REMARK  status: ('A' for Active; 'I' for Inactive)
REMARK    1  A    between atoms: C_1  and  O_2 
REMARK    2  A    between atoms: O_2  and  C_3 
ROOT
HETATM    1  O   LIG     1      16.748  37.263  22.901  1.00  0.00    -0.311 OA
ENDROOT
BRANCH   1   2
HETATM    2  C   LIG     1      17.224  36.740  24.114  1.00  0.00     0.076 A 
HETATM    3  C   LIG     1      17.121  35.361  24.337  1.00  0.00     0.037 A 
HETATM    4  C   LIG     1      17.597  34.800  25.526  1.00  0.00     0.003 A 
HETATM    5  C   LIG     1      18.191  35.613  26.495  1.00  0.00     0.000 A 
HETATM    6  C   LIG     1      18.317  36.987  26.272  1.00  0.00     0.003 A 
HETATM    7  C   LIG     1      17.840  37.551  25.084  1.00  0.00     0.037 A 
ENDBRANCH   1   2
BRANCH   1   8
HETATM    8  C   LIG     1      17.536  37.558  21.778  1.00  0.00     0.076 A 
HETATM    9  C   LIG     1      18.047  38.854  21.639  1.00  0.00     0.037 A 
HETATM   10  C   LIG     1      18.850  39.184  20.542  1.00  0.00     0.003 A 
HETATM   11  C   LIG     1      19.157  38.214  19.583  1.00  0.00     0.000 A 
HETATM   12  C   LIG     1      18.667  36.913  19.724  1.00  0.00     0.003 A 
HETATM   13  C   LIG     1      17.865  36.582  20.820  1.00  0.00     0.037 A 
ENDBRANCH   1   8
TORSDOF 2
ENDMDL
MODEL 3
REMARK VINA RESULT:      -7.3      1.622      2.745
REMARK  2 active torsions:
REMARK  status: ('A' for Active; 'I' for Inactive)
REMARK    1  A    between atoms: C_1  and  O_2 
REMARK    2  A    between atoms: O_2  and  C_3 
ROOT
HETATM    1  O   LIG     1      16.719  37.318  23.366  1.00  0.00    -0.311 OA
ENDROOT
BRANCH   1   2
HETATM    2  C   LIG     1      16.355  36.645  22.190  1.00  0.00     0.076 A 
HETATM    3  C   LIG     1      17.339  36.400  21.223  1.00  0.00     0.037 A 
HETATM    4  C   LIG     1      17.019  35.719  20.045  1.00  0.00     0.003 A 
HETATM    5  C   LIG     1      15.714  35.267  19.831  1.00  0.00     0.000 A 
HETATM    6  C   LIG     1      14.730  35.488  20.798  1.00  0.00     0.003 A 
HETATM    7  C   LIG     1      15.047  36.170  21.977  1.00  0.00     0.037 A 
ENDBRANCH   1   2
BRANCH   1   8
HETATM    8  C   LIG     1      17.321  36.728  24.488  1.00  0.00     0.076 A 
HETATM    9  C   LIG     1      17.979  37.552  25.409  1.00  0.00     0.037 A 
HETATM   10  C   LIG     1      18.578  37.004  26.547  1.00  0.00     0.003 A 
HETATM   11  C   LIG     1      18.511  35.626  26.778  1.00  0.00     0.000 A 
HETATM   12  C   LIG     1      17.840  34.799  25.874  1.00  0.00     0.003 A 
HETATM   13  C   LIG     1      17.241  35.345  24.736  1.00  0.00     0.037 A 
ENDBRANCH   1   8
TORSDOF 2
ENDMDL
MODEL 4
REMARK VINA RESULT:      -6.5      1.739      5.288
REMARK  2 active torsions:
REMARK  status: ('A' for Active; 'I' for Inactive)
REMARK    1  A    between atoms: C_1  and  O_2 
REMARK    2  A    between atoms: O_2  and  C_3 
ROOT
HETATM    1  O   LIG     1      16.399  34.839  23.659  1.00  0.00    -0.311 OA
ENDROOT
BRANCH   1   2
HETATM    2  C   LIG     1      17.136  35.489  24.661  1.00  0.00     0.076 A 
HETATM    3  C   LIG     1      17.103  36.888  24.720  1.00  0.00     0.037 A 
HETATM    4  C   LIG     1      17.811  37.571  25.712  1.00  0.00     0.003 A 
HETATM    5  C   LIG     1      18.549  36.859  26.662  1.00  0.00     0.000 A 
HETATM    6  C   LIG     1      18.572  35.462  26.624  1.00  0.00     0.003 A 
HETATM    7  C   LIG     1      17.864  34.776  25.632  1.00  0.00     0.037 A 
ENDBRANCH   1   2
BRANCH   1   8
HETATM    8  C   LIG     1      16.467  35.122  22.287  1.00  0.00     0.076 A 
HETATM    9  C   LIG     1      17.509  35.933  21.819  1.00  0.00     0.037 A 
HETATM   10  C   LIG     1      17.620  36.226  20.456  1.00  0.00     0.003 A 
HETATM   11  C   LIG     1      16.696  35.698  19.550  1.00  0.00     0.000 A 
HETATM   12  C   LIG     1      15.664  34.873  20.005  1.00  0.00     0.003 A 
HETATM   13  C   LIG     1      15.551  34.579  21.367  1.00  0.00     0.037 A 
ENDBRANCH   1   8
TORSDOF 2
ENDMDL
MODEL 5
REMARK VINA RESULT:      -6.2      3.397      5.218
REMARK  2 active torsions:
REMARK  status: ('A' for Active; 'I' for Inactive)
REMARK    1  A    between atoms: C_1  and  O_2 
REMARK    2  A    between atoms: O_2  and  C_3 
ROOT
HETATM    1  O   LIG     1      16.062  34.756  21.265  1.00  0.00    -0.311 OA
ENDROOT
BRANCH   1   2
HETATM    2  C   LIG     1      15.701  34.118  20.068  1.00  0.00     0.076 A 
HETATM    3  C   LIG     1      15.471  32.736  20.086  1.00  0.00     0.037 A 
HETATM    4  C   LIG     1      15.095  32.067  18.918  1.00  0.00     0.003 A 
HETATM    5  C   LIG     1      14.935  32.776  17.725  1.00  0.00     0.000 A 
HETATM    6  C   LIG     1      15.142  34.158  17.701  1.00  0.00     0.003 A 
HETATM    7  C   LIG     1      15.519  34.830  18.868  1.00  0.00     0.037 A 
ENDBRANCH   1   2
BRANCH   1   8
HETATM    8  C   LIG     1      16.658  36.023  21.362  1.00  0.00     0.076 A 
HETATM    9  C   LIG     1      16.151  36.933  22.298  1.00  0.00     0.037 A 
HETATM   10  C   LIG     1      16.726  38.200  22.437  1.00  0.00     0.003 A 
HETATM   11  C   LIG     1      17.823  38.560  21.647  1.00  0.00     0.000 A 
HETATM   12  C   LIG     1      18.348  37.651  20.725  1.00  0.00     0.003 A 
HETATM   13  C   LIG     1      17.774  36.385  20.585  1.00  0.00     0.037 A 
ENDBRANCH   1   8
TORSDOF 2
ENDMDL
MODEL 6
REMARK VINA RESULT:      -6.0      7.165      9.496
REMARK  2 active torsions:
REMARK  status: ('A' for Active; 'I' for Inactive)
REMARK    1  A    between atoms: C_1  and  O_2 
REMARK    2  A    between atoms: O_2  and  C_3 
ROOT
HETATM    1  O   LIG     1      14.633  33.135  16.446  1.00  0.00    -0.311 OA
ENDROOT
BRANCH   1   2
HETATM    2  C   LIG     1      15.015  33.269  17.790  1.00  0.00     0.076 A 
HETATM    3  C   LIG     1      15.280  34.550  18.290  1.00  0.00     0.037 A 
HETATM    4  C   LIG     1      15.648  34.726  19.627  1.00  0.00     0.003 A 
HETATM    5  C   LIG     1      15.741  33.621  20.478  1.00  0.00     0.000 A 
HETATM    6  C   LIG     1      15.458  32.341  19.995  1.00  0.00     0.003 A 
HETATM    7  C   LIG     1      15.091  32.162  18.657  1.00  0.00     0.037 A 
ENDBRANCH   1   2
BRANCH   1   8
HETATM    8  C   LIG     1      14.569  31.927  15.736  1.00  0.00     0.076 A 
HETATM    9  C   LIG     1      13.423  31.132  15.865  1.00  0.00     0.037 A 
HETATM   10  C   LIG     1      13.314  29.928  15.162  1.00  0.00     0.003 A 
HETATM   11  C   LIG     1      14.347  29.518  14.313  1.00  0.00     0.000 A 
HETATM   12  C   LIG     1      15.485  30.314  14.163  1.00  0.00     0.003 A 
HETATM   13  C   LIG     1      15.596  31.517  14.865  1.00  0.00     0.037 A 
ENDBRANCH   1   8
TORSDOF 2
ENDMDL
MODEL 7
REMARK VINA RESULT:      -6.0      7.216      8.874
REMARK  2 active torsions:
REMARK  status: ('A' for Active; 'I' for Inactive)
REMARK    1  A    between atoms: C_1  and  O_2 
REMARK    2  A    between atoms: O_2  and  C_3 
ROOT
HETATM    1  O   LIG     1      14.536  33.083  16.430  1.00  0.00    -0.311 OA
ENDROOT
BRANCH   1   2
HETATM    2  C   LIG     1      14.528  31.881  15.706  1.00  0.00     0.076 A 
HETATM    3  C   LIG     1      13.405  31.049  15.798  1.00  0.00     0.037 A 
HETATM    4  C   LIG     1      13.353  29.851  15.079  1.00  0.00     0.003 A 
HETATM    5  C   LIG     1      14.419  29.482  14.254  1.00  0.00     0.000 A 
HETATM    6  C   LIG     1      15.535  30.316  14.140  1.00  0.00     0.003 A 
HETATM    7  C   LIG     1      15.590  31.515  14.858  1.00  0.00     0.037 A 
ENDBRANCH   1   2
BRANCH   1   8
HETATM    8  C   LIG     1      14.940  33.225  17.766  1.00  0.00     0.076 A 
HETATM    9  C   LIG     1      15.282  34.500  18.234  1.00  0.00     0.037 A 
HETATM   10  C   LIG     1      15.675  34.685  19.563  1.00  0.00     0.003 A 
HETATM   11  C   LIG     1      15.716  33.595  20.438  1.00  0.00     0.000 A 
HETATM   12  C   LIG     1      15.358  32.322  19.986  1.00  0.00     0.003 A 
HETATM   13  C   LIG     1      14.965  32.135  18.657  1.00  0.00     0.037 A 
ENDBRANCH   1   8
TORSDOF 2
ENDMDL
MODEL 8
REMARK VINA RESULT:      -6.0      7.092      9.543
REMARK  2 active torsions:
REMARK  status: ('A' for Active; 'I' for Inactive)
REMARK    1  A    between atoms: C_1  and  O_2 
REMARK    2  A    between atoms: O_2  and  C_3 
ROOT
HETATM    1  O   LIG     1      15.132  33.214  16.368  1.00  0.00    -0.311 OA
ENDROOT
BRANCH   1   2
HETATM    2  C   LIG     1      15.244  33.376  17.758  1.00  0.00     0.076 A 
HETATM    3  C   LIG     1      15.202  32.237  18.573  1.00  0.00     0.037 A 
HETATM    4  C   LIG     1      15.326  32.356  19.960  1.00  0.00     0.003 A 
HETATM    5  C   LIG     1      15.506  33.614  20.542  1.00  0.00     0.000 A 
HETATM    6  C   LIG     1      15.570  34.754  19.735  1.00  0.00     0.003 A 
HETATM    7  C   LIG     1      15.446  34.638  18.347  1.00  0.00     0.037 A 
ENDBRANCH   1   2
BRANCH   1   8
HETATM    8  C   LIG     1      14.761  32.029  15.715  1.00  0.00     0.076 A 
HETATM    9  C   LIG     1      15.639  31.477  14.774  1.00  0.00     0.037 A 
HETATM   10  C   LIG     1      15.312  30.289  14.113  1.00  0.00     0.003 A 
HETATM   11  C   LIG     1      14.108  29.637  14.399  1.00  0.00     0.000 A 
HETATM   12  C   LIG     1      13.235  30.170  15.351  1.00  0.00     0.003 A 
HETATM   13  C   LIG     1      13.560  31.358  16.013  1.00  0.00     0.037 A 
ENDBRANCH   1   8
TORSDOF 2
ENDMDL
