REMARK  5 active torsions:
REMARK  status: ('A' for Active; 'I' for Inactive)
REMARK       I    between atoms: C_2  and  N_9 
REMARK    1  A    between atoms: C_2  and  O_3 
REMARK    2  A    between atoms: O_3  and  C_4 
REMARK    3  A    between atoms: C_4  and  C_5 
REMARK    4  A    between atoms: C_6  and  C_7 
REMARK    5  A    between atoms: N_9  and  C_10 
ROOT
HETATM    1  O   LIG     1      -0.110   1.835  -0.353  1.00  0.00    -0.238 OA
HETATM    2  C   LIG     1       0.197   0.628  -0.155  1.00  0.00     0.366 C 
HETATM    3  N   LIG     1      -0.811  -0.392  -0.155  1.00  0.00    -0.303 N 
HETATM    4  H   LIG     1      -0.488  -1.382  -0.249  1.00  0.00     0.171 HD
ENDROOT
BRANCH   3   5
HETATM    5  C   LIG     1      -2.226  -0.135  -0.155  1.00  0.00     0.038 A 
HETATM    6  C   LIG     1      -2.774   0.957   0.544  1.00  0.00     0.029 A 
HETATM    7  C   LIG     1      -4.156   1.169   0.547  1.00  0.00     0.004 A 
HETATM    8  C   LIG     1      -5.003   0.290  -0.132  1.00  0.00     0.024 A 
HETATM    9  C   LIG     1      -4.470  -0.810  -0.810  1.00  0.00     0.036 A 
HETATM   10  C   LIG     1      -3.087  -1.026  -0.814  1.00  0.00     0.053 A 
HETATM   11 CL   LIG     1      -5.534  -1.922  -1.651  1.00  0.00    -0.084 Cl
ENDBRANCH   3   5
BRANCH   2  12
HETATM   12  O   LIG     1       1.534   0.262   0.026  1.00  0.00    -0.292 OA
BRANCH  12  13
HETATM   13  C   LIG     1       2.596   1.209   0.025  1.00  0.00     0.274 C 
BRANCH  13  14
HETATM   14  C   LIG     1       3.864   0.512   0.238  1.00  0.00    -0.079 C 
HETATM   15  C   LIG     1       4.910  -0.063   0.412  1.00  0.00    -0.089 C 
BRANCH  15  16
HETATM   16  C   LIG     1       6.178  -0.761   0.623  1.00  0.00     0.208 C 
HETATM   17 CL   LIG     1       6.900  -1.171  -0.950  1.00  0.00    -0.117 Cl
ENDBRANCH  15  16
ENDBRANCH  13  14
ENDBRANCH  12  13
ENDBRANCH   2  12
TORSDOF 5
