REMARK  6 active torsions:
REMARK  status: ('A' for Active; 'I' for Inactive)
REMARK    1  A    between atoms: C_8  and  O_9 
REMARK    2  A    between atoms: O_9  and  C_10 
REMARK    3  A    between atoms: C_10  and  C_11 
REMARK    4  A    between atoms: C_11  and  C_14 
REMARK    5  A    between atoms: C_11  and  C_12 
REMARK    6  A    between atoms: C_12  and  O_13 
ROOT
HETATM    1  C   LIG     1      -1.095  -0.204  -0.799  1.00  0.00     0.270 C 
HETATM    2  O   LIG     1      -0.704  -1.258  -0.225  1.00  0.00    -0.264 OA
ENDROOT
BRANCH   1   3
HETATM    3  O   LIG     1      -0.197   0.830  -1.104  1.00  0.00    -0.315 OA
BRANCH   3   4
HETATM    4  C   LIG     1       1.207   0.826  -0.825  1.00  0.00     0.136 C 
HETATM    5  C   LIG     1       1.489   0.818   0.708  1.00  0.00     0.068 C 
HETATM    6  C   LIG     1       2.944   0.394   1.013  1.00  0.00     0.225 C 
HETATM    7  N   LIG     1       3.136  -0.925   0.405  1.00  0.00     0.093 N 
HETATM    8  C   LIG     1       3.948   1.338   0.330  1.00  0.00     0.038 C 
HETATM    9  C   LIG     1       4.284  -1.648   0.984  1.00  0.00     0.310 C 
HETATM   10  C   LIG     1       3.347  -0.583  -1.005  1.00  0.00     0.225 C 
HETATM   11  C   LIG     1       4.224   0.677  -1.018  1.00  0.00     0.038 C 
HETATM   12  C   LIG     1       1.952  -0.296  -1.608  1.00  0.00     0.068 C 
ENDBRANCH   3   4
ENDBRANCH   1   3
BRANCH   1  13
HETATM   13  C   LIG     1      -2.547  -0.032  -1.152  1.00  0.00     0.142 C 
BRANCH  13  14
HETATM   14  C   LIG     1      -3.377   0.179   0.101  1.00  0.00    -0.043 A 
HETATM   15  C   LIG     1      -3.530  -0.845   1.058  1.00  0.00     0.008 A 
HETATM   16  C   LIG     1      -4.296  -0.631   2.207  1.00  0.00     0.001 A 
HETATM   17  C   LIG     1      -4.926   0.601   2.411  1.00  0.00     0.000 A 
HETATM   18  C   LIG     1      -4.779   1.624   1.471  1.00  0.00     0.001 A 
HETATM   19  C   LIG     1      -4.007   1.418   0.322  1.00  0.00     0.008 A 
ENDBRANCH  13  14
BRANCH  13  20
HETATM   20  C   LIG     1      -3.055  -1.210  -2.002  1.00  0.00     0.183 C 
BRANCH  20  21
HETATM   21  O   LIG     1      -4.355  -0.957  -2.466  1.00  0.00    -0.400 OA
HETATM   22  H   LIG     1      -4.976  -1.226  -1.742  1.00  0.00     0.209 HD
ENDBRANCH  20  21
ENDBRANCH  13  20
ENDBRANCH   1  13
TORSDOF 6
