REMARK  1 active torsions:
REMARK  status: ('A' for Active; 'I' for Inactive)
REMARK       I    between atoms: C_2  and  N_3 
REMARK       I    between atoms: C_2  and  N_10 
REMARK    1  A    between atoms: N_3  and  C_4 
ROOT
HETATM    1  O   LIG     1      -0.666  -1.084   1.439  1.00  0.00    -0.247 OA
HETATM    2  C   LIG     1      -1.090  -0.423   0.450  1.00  0.00     0.322 C 
HETATM    3  N   LIG     1      -0.171  -0.025  -0.584  1.00  0.00    -0.309 N 
HETATM    4  N   LIG     1      -2.495  -0.107   0.356  1.00  0.00    -0.343 N 
HETATM    5  C   LIG     1      -3.412  -0.608   1.385  1.00  0.00     0.154 C 
HETATM    6  C   LIG     1      -2.999   0.741  -0.729  1.00  0.00     0.154 C 
HETATM    7  H   LIG     1      -0.543   0.140  -1.546  1.00  0.00     0.170 HD
ENDROOT
BRANCH   3   8
HETATM    8  C   LIG     1       1.255   0.028  -0.407  1.00  0.00     0.036 A 
HETATM    9  C   LIG     1       2.096  -0.216  -1.506  1.00  0.00     0.029 A 
HETATM   10  C   LIG     1       3.485  -0.147  -1.363  1.00  0.00     0.002 A 
HETATM   11  C   LIG     1       4.047   0.179  -0.126  1.00  0.00     0.000 A 
HETATM   12  C   LIG     1       3.220   0.445   0.968  1.00  0.00     0.002 A 
HETATM   13  C   LIG     1       1.829   0.377   0.830  1.00  0.00     0.029 A 
ENDBRANCH   3   8
TORSDOF 1
