MODEL 1
REMARK VINA RESULT:      -6.4      0.000      0.000
REMARK  8 active torsions:
REMARK  status: ('A' for Active; 'I' for Inactive)
REMARK    1  A    between atoms: C_2  and  O_3 
REMARK    2  A    between atoms: O_3  and  C_4 
REMARK    3  A    between atoms: C_4  and  C_5 
REMARK    4  A    between atoms: C_5  and  C_10 
REMARK    5  A    between atoms: C_5  and  O_6 
REMARK    6  A    between atoms: O_6  and  C_7 
REMARK    7  A    between atoms: C_10  and  O_11 
REMARK    8  A    between atoms: O_11  and  C_12 
ROOT
HETATM    1  C   LIG     1      17.564  38.003  22.906  1.00  0.00     0.180 C 
ENDROOT
BRANCH   1   2
HETATM    2  C   LIG     1      17.328  38.281  24.398  1.00  0.00     0.213 C 
BRANCH   2   3
HETATM    3  O   LIG     1      16.956  37.075  25.058  1.00  0.00    -0.319 OA
BRANCH   3   4
HETATM    4  C   LIG     1      17.848  36.341  25.844  1.00  0.00     0.254 C 
HETATM    5  C   LIG     1      17.718  34.858  25.915  1.00  0.00     0.126 C 
HETATM    6  O   LIG     1      18.760  36.917  26.495  1.00  0.00    -0.266 OA
ENDBRANCH   3   4
ENDBRANCH   2   3
ENDBRANCH   1   2
BRANCH   1   7
HETATM    7  C   LIG     1      18.219  39.194  22.192  1.00  0.00     0.213 C 
BRANCH   7   8
HETATM    8  O   LIG     1      18.143  39.013  20.777  1.00  0.00    -0.319 OA
BRANCH   8   9
HETATM    9  C   LIG     1      19.211  38.577  19.985  1.00  0.00     0.254 C 
HETATM   10  C   LIG     1      19.228  37.170  19.491  1.00  0.00     0.126 C 
HETATM   11  O   LIG     1      20.182  39.339  19.723  1.00  0.00    -0.266 OA
ENDBRANCH   8   9
ENDBRANCH   7   8
ENDBRANCH   1   7
BRANCH   1  12
HETATM   12  O   LIG     1      16.354  37.605  22.248  1.00  0.00    -0.312 OA
BRANCH  12  13
HETATM   13  C   LIG     1      16.005  36.292  21.901  1.00  0.00     0.255 C 
HETATM   14  C   LIG     1      17.020  35.210  22.031  1.00  0.00     0.126 C 
HETATM   15  O   LIG     1      14.862  36.018  21.443  1.00  0.00    -0.266 OA
ENDBRANCH  12  13
ENDBRANCH   1  12
TORSDOF 8
ENDMDL
MODEL 2
REMARK VINA RESULT:      -6.0      1.046      4.990
REMARK  8 active torsions:
REMARK  status: ('A' for Active; 'I' for Inactive)
REMARK    1  A    between atoms: C_2  and  O_3 
REMARK    2  A    between atoms: O_3  and  C_4 
REMARK    3  A    between atoms: C_4  and  C_5 
REMARK    4  A    between atoms: C_5  and  C_10 
REMARK    5  A    between atoms: C_5  and  O_6 
REMARK    6  A    between atoms: O_6  and  C_7 
REMARK    7  A    between atoms: C_10  and  O_11 
REMARK    8  A    between atoms: O_11  and  C_12 
ROOT
HETATM    1  C   LIG     1      16.929  37.852  22.775  1.00  0.00     0.180 C 
ENDROOT
BRANCH   1   2
HETATM    2  C   LIG     1      18.066  38.786  22.337  1.00  0.00     0.213 C 
BRANCH   2   3
HETATM    3  O   LIG     1      18.029  38.957  20.924  1.00  0.00    -0.319 OA
BRANCH   3   4
HETATM    4  C   LIG     1      19.115  38.650  20.098  1.00  0.00     0.254 C 
HETATM    5  C   LIG     1      19.231  37.284  19.512  1.00  0.00     0.126 C 
HETATM    6  O   LIG     1      19.997  39.513  19.844  1.00  0.00    -0.266 OA
ENDBRANCH   3   4
ENDBRANCH   2   3
ENDBRANCH   1   2
BRANCH   1   7
HETATM    7  C   LIG     1      16.918  37.626  24.294  1.00  0.00     0.213 C 
BRANCH   7   8
HETATM    8  O   LIG     1      17.160  36.248  24.581  1.00  0.00    -0.319 OA
BRANCH   8   9
HETATM    9  C   LIG     1      17.649  35.777  25.804  1.00  0.00     0.254 C 
HETATM   10  C   LIG     1      18.578  36.632  26.598  1.00  0.00     0.126 C 
HETATM   11  O   LIG     1      17.358  34.623  26.222  1.00  0.00    -0.266 OA
ENDBRANCH   8   9
ENDBRANCH   7   8
ENDBRANCH   1   7
BRANCH   1  12
HETATM   12  O   LIG     1      16.968  36.607  22.065  1.00  0.00    -0.312 OA
BRANCH  12  13
HETATM   13  C   LIG     1      15.872  35.975  21.460  1.00  0.00     0.255 C 
HETATM   14  C   LIG     1      16.111  34.846  20.518  1.00  0.00     0.126 C 
HETATM   15  O   LIG     1      14.693  36.370  21.668  1.00  0.00    -0.266 OA
ENDBRANCH  12  13
ENDBRANCH   1  12
TORSDOF 8
ENDMDL
MODEL 3
REMARK VINA RESULT:      -5.9      1.456      5.091
REMARK  8 active torsions:
REMARK  status: ('A' for Active; 'I' for Inactive)
REMARK    1  A    between atoms: C_2  and  O_3 
REMARK    2  A    between atoms: O_3  and  C_4 
REMARK    3  A    between atoms: C_4  and  C_5 
REMARK    4  A    between atoms: C_5  and  C_10 
REMARK    5  A    between atoms: C_5  and  O_6 
REMARK    6  A    between atoms: O_6  and  C_7 
REMARK    7  A    between atoms: C_10  and  O_11 
REMARK    8  A    between atoms: O_11  and  C_12 
ROOT
HETATM    1  C   LIG     1      17.388  37.469  22.275  1.00  0.00     0.180 C 
ENDROOT
BRANCH   1   2
HETATM    2  C   LIG     1      16.080  36.723  21.972  1.00  0.00     0.213 C 
BRANCH   2   3
HETATM    3  O   LIG     1      16.361  35.353  21.702  1.00  0.00    -0.319 OA
BRANCH   3   4
HETATM    4  C   LIG     1      16.044  34.745  20.483  1.00  0.00     0.254 C 
HETATM    5  C   LIG     1      15.396  33.404  20.475  1.00  0.00     0.126 C 
HETATM    6  O   LIG     1      16.301  35.319  19.390  1.00  0.00    -0.266 OA
ENDBRANCH   3   4
ENDBRANCH   2   3
ENDBRANCH   1   2
BRANCH   1   7
HETATM    7  C   LIG     1      17.431  38.001  23.714  1.00  0.00     0.213 C 
BRANCH   7   8
HETATM    8  O   LIG     1      16.813  37.064  24.597  1.00  0.00    -0.319 OA
BRANCH   8   9
HETATM    9  C   LIG     1      17.509  36.077  25.304  1.00  0.00     0.254 C 
HETATM   10  C   LIG     1      18.428  36.480  26.406  1.00  0.00     0.126 C 
HETATM   11  O   LIG     1      17.410  34.859  24.992  1.00  0.00    -0.266 OA
ENDBRANCH   8   9
ENDBRANCH   7   8
ENDBRANCH   1   7
BRANCH   1  12
HETATM   12  O   LIG     1      17.626  38.517  21.326  1.00  0.00    -0.312 OA
BRANCH  12  13
HETATM   13  C   LIG     1      18.686  38.566  20.409  1.00  0.00     0.255 C 
HETATM   14  C   LIG     1      19.106  37.317  19.714  1.00  0.00     0.126 C 
HETATM   15  O   LIG     1      19.315  39.637  20.193  1.00  0.00    -0.266 OA
ENDBRANCH  12  13
ENDBRANCH   1  12
TORSDOF 8
ENDMDL
MODEL 4
REMARK VINA RESULT:      -5.9      1.228      3.699
REMARK  8 active torsions:
REMARK  status: ('A' for Active; 'I' for Inactive)
REMARK    1  A    between atoms: C_2  and  O_3 
REMARK    2  A    between atoms: O_3  and  C_4 
REMARK    3  A    between atoms: C_4  and  C_5 
REMARK    4  A    between atoms: C_5  and  C_10 
REMARK    5  A    between atoms: C_5  and  O_6 
REMARK    6  A    between atoms: O_6  and  C_7 
REMARK    7  A    between atoms: C_10  and  O_11 
REMARK    8  A    between atoms: O_11  and  C_12 
ROOT
HETATM    1  C   LIG     1      17.080  38.054  22.955  1.00  0.00     0.180 C 
ENDROOT
BRANCH   1   2
HETATM    2  C   LIG     1      16.312  37.322  21.846  1.00  0.00     0.213 C 
BRANCH   2   3
HETATM    3  O   LIG     1      16.114  35.961  22.216  1.00  0.00    -0.319 OA
BRANCH   3   4
HETATM    4  C   LIG     1      15.513  35.028  21.366  1.00  0.00     0.254 C 
HETATM    5  C   LIG     1      15.881  35.003  19.922  1.00  0.00     0.126 C 
HETATM    6  O   LIG     1      14.664  34.208  21.806  1.00  0.00    -0.266 OA
ENDBRANCH   3   4
ENDBRANCH   2   3
ENDBRANCH   1   2
BRANCH   1   7
HETATM    7  C   LIG     1      18.325  38.775  22.418  1.00  0.00     0.213 C 
BRANCH   7   8
HETATM    8  O   LIG     1      18.201  38.973  21.009  1.00  0.00    -0.319 OA
BRANCH   8   9
HETATM    9  C   LIG     1      19.193  38.640  20.080  1.00  0.00     0.254 C 
HETATM   10  C   LIG     1      19.212  37.269  19.493  1.00  0.00     0.126 C 
HETATM   11  O   LIG     1      20.099  39.461  19.771  1.00  0.00    -0.266 OA
ENDBRANCH   8   9
ENDBRANCH   7   8
ENDBRANCH   1   7
BRANCH   1  12
HETATM   12  O   LIG     1      17.416  37.170  24.033  1.00  0.00    -0.312 OA
BRANCH  12  13
HETATM   13  C   LIG     1      17.596  37.544  25.372  1.00  0.00     0.255 C 
HETATM   14  C   LIG     1      18.356  36.643  26.284  1.00  0.00     0.126 C 
HETATM   15  O   LIG     1      17.093  38.606  25.828  1.00  0.00    -0.266 OA
ENDBRANCH  12  13
ENDBRANCH   1  12
TORSDOF 8
ENDMDL
MODEL 5
REMARK VINA RESULT:      -5.9      1.571      4.759
REMARK  8 active torsions:
REMARK  status: ('A' for Active; 'I' for Inactive)
REMARK    1  A    between atoms: C_2  and  O_3 
REMARK    2  A    between atoms: O_3  and  C_4 
REMARK    3  A    between atoms: C_4  and  C_5 
REMARK    4  A    between atoms: C_5  and  C_10 
REMARK    5  A    between atoms: C_5  and  O_6 
REMARK    6  A    between atoms: O_6  and  C_7 
REMARK    7  A    between atoms: C_10  and  O_11 
REMARK    8  A    between atoms: O_11  and  C_12 
ROOT
HETATM    1  C   LIG     1      17.057  37.064  22.802  1.00  0.00     0.180 C 
ENDROOT
BRANCH   1   2
HETATM    2  C   LIG     1      17.214  38.504  22.292  1.00  0.00     0.213 C 
BRANCH   2   3
HETATM    3  O   LIG     1      18.539  38.701  21.810  1.00  0.00    -0.319 OA
BRANCH   3   4
HETATM    4  C   LIG     1      18.860  38.665  20.450  1.00  0.00     0.254 C 
HETATM    5  C   LIG     1      18.946  37.353  19.747  1.00  0.00     0.126 C 
HETATM    6  O   LIG     1      19.076  39.729  19.810  1.00  0.00    -0.266 OA
ENDBRANCH   3   4
ENDBRANCH   2   3
ENDBRANCH   1   2
BRANCH   1   7
HETATM    7  C   LIG     1      15.927  36.316  22.081  1.00  0.00     0.213 C 
BRANCH   7   8
HETATM    8  O   LIG     1      16.436  35.118  21.492  1.00  0.00    -0.319 OA
BRANCH   8   9
HETATM    9  C   LIG     1      15.928  34.543  20.321  1.00  0.00     0.254 C 
HETATM   10  C   LIG     1      15.269  33.208  20.391  1.00  0.00     0.126 C 
HETATM   11  O   LIG     1      16.062  35.112  19.204  1.00  0.00    -0.266 OA
ENDBRANCH   8   9
ENDBRANCH   7   8
ENDBRANCH   1   7
BRANCH   1  12
HETATM   12  O   LIG     1      16.880  37.027  24.224  1.00  0.00    -0.312 OA
BRANCH  12  13
HETATM   13  C   LIG     1      17.473  36.104  25.098  1.00  0.00     0.255 C 
HETATM   14  C   LIG     1      18.290  36.604  26.239  1.00  0.00     0.126 C 
HETATM   15  O   LIG     1      17.360  34.862  24.913  1.00  0.00    -0.266 OA
ENDBRANCH  12  13
ENDBRANCH   1  12
TORSDOF 8
ENDMDL
MODEL 6
REMARK VINA RESULT:      -5.8      7.534     10.428
REMARK  8 active torsions:
REMARK  status: ('A' for Active; 'I' for Inactive)
REMARK    1  A    between atoms: C_2  and  O_3 
REMARK    2  A    between atoms: O_3  and  C_4 
REMARK    3  A    between atoms: C_4  and  C_5 
REMARK    4  A    between atoms: C_5  and  C_10 
REMARK    5  A    between atoms: C_5  and  O_6 
REMARK    6  A    between atoms: O_6  and  C_7 
REMARK    7  A    between atoms: C_10  and  O_11 
REMARK    8  A    between atoms: O_11  and  C_12 
ROOT
HETATM    1  C   LIG     1      16.426  32.358  15.556  1.00  0.00     0.180 C 
ENDROOT
BRANCH   1   2
HETATM    2  C   LIG     1      15.842  31.845  14.231  1.00  0.00     0.213 C 
BRANCH   2   3
HETATM    3  O   LIG     1      16.088  30.448  14.107  1.00  0.00    -0.319 OA
BRANCH   3   4
HETATM    4  C   LIG     1      15.063  29.497  14.134  1.00  0.00     0.254 C 
HETATM    5  C   LIG     1      13.724  29.872  14.668  1.00  0.00     0.126 C 
HETATM    6  O   LIG     1      15.259  28.326  13.711  1.00  0.00    -0.266 OA
ENDBRANCH   3   4
ENDBRANCH   2   3
ENDBRANCH   1   2
BRANCH   1   7
HETATM    7  C   LIG     1      15.386  33.118  16.391  1.00  0.00     0.213 C 
BRANCH   7   8
HETATM    8  O   LIG     1      15.551  32.804  17.774  1.00  0.00    -0.319 OA
BRANCH   8   9
HETATM    9  C   LIG     1      14.702  31.953  18.491  1.00  0.00     0.254 C 
HETATM   10  C   LIG     1      14.944  31.739  19.947  1.00  0.00     0.126 C 
HETATM   11  O   LIG     1      13.770  31.327  17.918  1.00  0.00    -0.266 OA
ENDBRANCH   8   9
ENDBRANCH   7   8
ENDBRANCH   1   7
BRANCH   1  12
HETATM   12  O   LIG     1      17.600  33.152  15.340  1.00  0.00    -0.312 OA
BRANCH  12  13
HETATM   13  C   LIG     1      17.723  34.194  14.410  1.00  0.00     0.255 C 
HETATM   14  C   LIG     1      18.450  33.947  13.133  1.00  0.00     0.126 C 
HETATM   15  O   LIG     1      17.267  35.344  14.651  1.00  0.00    -0.266 OA
ENDBRANCH  12  13
ENDBRANCH   1  12
TORSDOF 8
ENDMDL
MODEL 7
REMARK VINA RESULT:      -5.8      2.477      4.792
REMARK  8 active torsions:
REMARK  status: ('A' for Active; 'I' for Inactive)
REMARK    1  A    between atoms: C_2  and  O_3 
REMARK    2  A    between atoms: O_3  and  C_4 
REMARK    3  A    between atoms: C_4  and  C_5 
REMARK    4  A    between atoms: C_5  and  C_10 
REMARK    5  A    between atoms: C_5  and  O_6 
REMARK    6  A    between atoms: O_6  and  C_7 
REMARK    7  A    between atoms: C_10  and  O_11 
REMARK    8  A    between atoms: O_11  and  C_12 
ROOT
HETATM    1  C   LIG     1      16.355  35.551  21.845  1.00  0.00     0.180 C 
ENDROOT
BRANCH   1   2
HETATM    2  C   LIG     1      15.348  34.554  21.254  1.00  0.00     0.213 C 
BRANCH   2   3
HETATM    3  O   LIG     1      16.039  33.566  20.497  1.00  0.00    -0.319 OA
BRANCH   3   4
HETATM    4  C   LIG     1      15.405  32.773  19.536  1.00  0.00     0.254 C 
HETATM    5  C   LIG     1      14.845  31.449  19.927  1.00  0.00     0.126 C 
HETATM    6  O   LIG     1      15.302  33.164  18.342  1.00  0.00    -0.266 OA
ENDBRANCH   3   4
ENDBRANCH   2   3
ENDBRANCH   1   2
BRANCH   1   7
HETATM    7  C   LIG     1      17.406  35.991  20.816  1.00  0.00     0.213 C 
BRANCH   7   8
HETATM    8  O   LIG     1      17.862  37.310  21.122  1.00  0.00    -0.319 OA
BRANCH   8   9
HETATM    9  C   LIG     1      18.783  38.020  20.343  1.00  0.00     0.254 C 
HETATM   10  C   LIG     1      18.919  39.493  20.535  1.00  0.00     0.126 C 
HETATM   11  O   LIG     1      19.463  37.445  19.450  1.00  0.00    -0.266 OA
ENDBRANCH   8   9
ENDBRANCH   7   8
ENDBRANCH   1   7
BRANCH   1  12
HETATM   12  O   LIG     1      16.974  35.033  23.030  1.00  0.00    -0.312 OA
BRANCH  12  13
HETATM   13  C   LIG     1      17.130  35.723  24.241  1.00  0.00     0.255 C 
HETATM   14  C   LIG     1      17.509  34.966  25.467  1.00  0.00     0.126 C 
HETATM   15  O   LIG     1      16.916  36.963  24.319  1.00  0.00    -0.266 OA
ENDBRANCH  12  13
ENDBRANCH   1  12
TORSDOF 8
ENDMDL
MODEL 8
REMARK VINA RESULT:      -5.8      1.972      2.639
REMARK  8 active torsions:
REMARK  status: ('A' for Active; 'I' for Inactive)
REMARK    1  A    between atoms: C_2  and  O_3 
REMARK    2  A    between atoms: O_3  and  C_4 
REMARK    3  A    between atoms: C_4  and  C_5 
REMARK    4  A    between atoms: C_5  and  C_10 
REMARK    5  A    between atoms: C_5  and  O_6 
REMARK    6  A    between atoms: O_6  and  C_7 
REMARK    7  A    between atoms: C_10  and  O_11 
REMARK    8  A    between atoms: O_11  and  C_12 
ROOT
HETATM    1  C   LIG     1      16.973  35.170  21.861  1.00  0.00     0.180 C 
ENDROOT
BRANCH   1   2
HETATM    2  C   LIG     1      17.009  35.273  23.392  1.00  0.00     0.213 C 
BRANCH   2   3
HETATM    3  O   LIG     1      16.866  36.635  23.785  1.00  0.00    -0.319 OA
BRANCH   3   4
HETATM    4  C   LIG     1      17.251  37.100  25.046  1.00  0.00     0.254 C 
HETATM    5  C   LIG     1      18.087  36.236  25.927  1.00  0.00     0.126 C 
HETATM    6  O   LIG     1      16.898  38.241  25.448  1.00  0.00    -0.266 OA
ENDBRANCH   3   4
ENDBRANCH   2   3
ENDBRANCH   1   2
BRANCH   1   7
HETATM    7  C   LIG     1      17.045  36.548  21.186  1.00  0.00     0.213 C 
BRANCH   7   8
HETATM    8  O   LIG     1      18.390  36.825  20.791  1.00  0.00    -0.319 OA
BRANCH   8   9
HETATM    9  C   LIG     1      18.760  37.230  19.504  1.00  0.00     0.254 C 
HETATM   10  C   LIG     1      19.707  38.371  19.342  1.00  0.00     0.126 C 
HETATM   11  O   LIG     1      18.268  36.681  18.481  1.00  0.00    -0.266 OA
ENDBRANCH   8   9
ENDBRANCH   7   8
ENDBRANCH   1   7
BRANCH   1  12
HETATM   12  O   LIG     1      15.831  34.431  21.410  1.00  0.00    -0.312 OA
BRANCH  12  13
HETATM   13  C   LIG     1      15.657  33.896  20.126  1.00  0.00     0.255 C 
HETATM   14  C   LIG     1      15.447  32.429  19.969  1.00  0.00     0.126 C 
HETATM   15  O   LIG     1      15.715  34.626  19.100  1.00  0.00    -0.266 OA
ENDBRANCH  12  13
ENDBRANCH   1  12
TORSDOF 8
ENDMDL
MODEL 9
REMARK VINA RESULT:      -5.7      1.652      2.444
REMARK  8 active torsions:
REMARK  status: ('A' for Active; 'I' for Inactive)
REMARK    1  A    between atoms: C_2  and  O_3 
REMARK    2  A    between atoms: O_3  and  C_4 
REMARK    3  A    between atoms: C_4  and  C_5 
REMARK    4  A    between atoms: C_5  and  C_10 
REMARK    5  A    between atoms: C_5  and  O_6 
REMARK    6  A    between atoms: O_6  and  C_7 
REMARK    7  A    between atoms: C_10  and  O_11 
REMARK    8  A    between atoms: O_11  and  C_12 
ROOT
HETATM    1  C   LIG     1      16.657  35.691  22.367  1.00  0.00     0.180 C 
ENDROOT
BRANCH   1   2
HETATM    2  C   LIG     1      17.076  35.111  23.726  1.00  0.00     0.213 C 
BRANCH   2   3
HETATM    3  O   LIG     1      17.130  36.152  24.696  1.00  0.00    -0.319 OA
BRANCH   3   4
HETATM    4  C   LIG     1      17.960  36.092  25.820  1.00  0.00     0.254 C 
HETATM    5  C   LIG     1      18.336  34.767  26.388  1.00  0.00     0.126 C 
HETATM    6  O   LIG     1      18.393  37.146  26.359  1.00  0.00    -0.266 OA
ENDBRANCH   3   4
ENDBRANCH   2   3
ENDBRANCH   1   2
BRANCH   1   7
HETATM    7  C   LIG     1      16.163  37.140  22.484  1.00  0.00     0.213 C 
BRANCH   7   8
HETATM    8  O   LIG     1      16.927  37.985  21.624  1.00  0.00    -0.319 OA
BRANCH   8   9
HETATM    9  C   LIG     1      18.098  38.646  22.013  1.00  0.00     0.254 C 
HETATM   10  C   LIG     1      19.042  39.136  20.967  1.00  0.00     0.126 C 
HETATM   11  O   LIG     1      18.392  38.789  23.231  1.00  0.00    -0.266 OA
ENDBRANCH   8   9
ENDBRANCH   7   8
ENDBRANCH   1   7
BRANCH   1  12
HETATM   12  O   LIG     1      15.685  34.861  21.718  1.00  0.00    -0.312 OA
BRANCH  12  13
HETATM   13  C   LIG     1      15.757  34.396  20.397  1.00  0.00     0.255 C 
HETATM   14  C   LIG     1      15.452  32.966  20.111  1.00  0.00     0.126 C 
HETATM   15  O   LIG     1      16.112  35.155  19.455  1.00  0.00    -0.266 OA
ENDBRANCH  12  13
ENDBRANCH   1  12
TORSDOF 8
ENDMDL
MODEL 10
REMARK VINA RESULT:      -5.6      5.647      7.221
REMARK  8 active torsions:
REMARK  status: ('A' for Active; 'I' for Inactive)
REMARK    1  A    between atoms: C_2  and  O_3 
REMARK    2  A    between atoms: O_3  and  C_4 
REMARK    3  A    between atoms: C_4  and  C_5 
REMARK    4  A    between atoms: C_5  and  C_10 
REMARK    5  A    between atoms: C_5  and  O_6 
REMARK    6  A    between atoms: O_6  and  C_7 
REMARK    7  A    between atoms: C_10  and  O_11 
REMARK    8  A    between atoms: O_11  and  C_12 
ROOT
HETATM    1  C   LIG     1      15.039  32.628  17.655  1.00  0.00     0.180 C 
ENDROOT
BRANCH   1   2
HETATM    2  C   LIG     1      15.246  32.590  19.177  1.00  0.00     0.213 C 
BRANCH   2   3
HETATM    3  O   LIG     1      15.736  33.850  19.626  1.00  0.00    -0.319 OA
BRANCH   3   4
HETATM    4  C   LIG     1      15.590  34.288  20.945  1.00  0.00     0.254 C 
HETATM    5  C   LIG     1      16.694  35.050  21.595  1.00  0.00     0.126 C 
HETATM    6  O   LIG     1      14.536  34.046  21.592  1.00  0.00    -0.266 OA
ENDBRANCH   3   4
ENDBRANCH   2   3
ENDBRANCH   1   2
BRANCH   1   7
HETATM    7  C   LIG     1      15.350  34.011  17.064  1.00  0.00     0.213 C 
BRANCH   7   8
HETATM    8  O   LIG     1      15.673  33.884  15.679  1.00  0.00    -0.319 OA
BRANCH   8   9
HETATM    9  C   LIG     1      16.925  34.196  15.135  1.00  0.00     0.254 C 
HETATM   10  C   LIG     1      17.860  33.091  14.776  1.00  0.00     0.126 C 
HETATM   11  O   LIG     1      17.293  35.393  14.989  1.00  0.00    -0.266 OA
ENDBRANCH   8   9
ENDBRANCH   7   8
ENDBRANCH   1   7
BRANCH   1  12
HETATM   12  O   LIG     1      13.722  32.192  17.293  1.00  0.00    -0.312 OA
BRANCH  12  13
HETATM   13  C   LIG     1      13.418  31.062  16.522  1.00  0.00     0.255 C 
HETATM   14  C   LIG     1      14.292  30.711  15.367  1.00  0.00     0.126 C 
HETATM   15  O   LIG     1      12.398  30.361  16.763  1.00  0.00    -0.266 OA
ENDBRANCH  12  13
ENDBRANCH   1  12
TORSDOF 8
ENDMDL
MODEL 11
REMARK VINA RESULT:      -5.6      7.527      9.271
REMARK  8 active torsions:
REMARK  status: ('A' for Active; 'I' for Inactive)
REMARK    1  A    between atoms: C_2  and  O_3 
REMARK    2  A    between atoms: O_3  and  C_4 
REMARK    3  A    between atoms: C_4  and  C_5 
REMARK    4  A    between atoms: C_5  and  C_10 
REMARK    5  A    between atoms: C_5  and  O_6 
REMARK    6  A    between atoms: O_6  and  C_7 
REMARK    7  A    between atoms: C_10  and  O_11 
REMARK    8  A    between atoms: O_11  and  C_12 
ROOT
HETATM    1  C   LIG     1      16.214  32.318  15.460  1.00  0.00     0.180 C 
ENDROOT
BRANCH   1   2
HETATM    2  C   LIG     1      15.337  33.151  16.407  1.00  0.00     0.213 C 
BRANCH   2   3
HETATM    3  O   LIG     1      15.596  32.774  17.756  1.00  0.00    -0.319 OA
BRANCH   3   4
HETATM    4  C   LIG     1      14.734  31.952  18.487  1.00  0.00     0.254 C 
HETATM    5  C   LIG     1      15.029  31.661  19.918  1.00  0.00     0.126 C 
HETATM    6  O   LIG     1      13.709  31.452  17.950  1.00  0.00    -0.266 OA
ENDBRANCH   3   4
ENDBRANCH   2   3
ENDBRANCH   1   2
BRANCH   1   7
HETATM    7  C   LIG     1      17.344  33.150  14.837  1.00  0.00     0.213 C 
BRANCH   7   8
HETATM    8  O   LIG     1      17.012  33.485  13.488  1.00  0.00    -0.319 OA
BRANCH   8   9
HETATM    9  C   LIG     1      17.799  34.302  12.668  1.00  0.00     0.254 C 
HETATM   10  C   LIG     1      19.237  33.966  12.468  1.00  0.00     0.126 C 
HETATM   11  O   LIG     1      17.324  35.342  12.137  1.00  0.00    -0.266 OA
ENDBRANCH   8   9
ENDBRANCH   7   8
ENDBRANCH   1   7
BRANCH   1  12
HETATM   12  O   LIG     1      15.428  31.669  14.452  1.00  0.00    -0.312 OA
BRANCH  12  13
HETATM   13  C   LIG     1      15.003  30.333  14.479  1.00  0.00     0.255 C 
HETATM   14  C   LIG     1      13.601  30.023  14.874  1.00  0.00     0.126 C 
HETATM   15  O   LIG     1      15.796  29.389  14.214  1.00  0.00    -0.266 OA
ENDBRANCH  12  13
ENDBRANCH   1  12
TORSDOF 8
ENDMDL
MODEL 12
REMARK VINA RESULT:      -5.4      8.267     10.714
REMARK  8 active torsions:
REMARK  status: ('A' for Active; 'I' for Inactive)
REMARK    1  A    between atoms: C_2  and  O_3 
REMARK    2  A    between atoms: O_3  and  C_4 
REMARK    3  A    between atoms: C_4  and  C_5 
REMARK    4  A    between atoms: C_5  and  C_10 
REMARK    5  A    between atoms: C_5  and  O_6 
REMARK    6  A    between atoms: O_6  and  C_7 
REMARK    7  A    between atoms: C_10  and  O_11 
REMARK    8  A    between atoms: O_11  and  C_12 
ROOT
HETATM    1  C   LIG     1      16.538  32.559  14.006  1.00  0.00     0.180 C 
ENDROOT
BRANCH   1   2
HETATM    2  C   LIG     1      16.817  32.250  15.484  1.00  0.00     0.213 C 
BRANCH   2   3
HETATM    3  O   LIG     1      16.048  33.119  16.309  1.00  0.00    -0.319 OA
BRANCH   3   4
HETATM    4  C   LIG     1      15.195  32.647  17.311  1.00  0.00     0.254 C 
HETATM    5  C   LIG     1      14.011  31.821  16.942  1.00  0.00     0.126 C 
HETATM    6  O   LIG     1      15.415  32.912  18.524  1.00  0.00    -0.266 OA
ENDBRANCH   3   4
ENDBRANCH   2   3
ENDBRANCH   1   2
BRANCH   1   7
HETATM    7  C   LIG     1      15.719  31.451  13.327  1.00  0.00     0.213 C 
BRANCH   7   8
HETATM    8  O   LIG     1      15.860  30.230  14.053  1.00  0.00    -0.319 OA
BRANCH   8   9
HETATM    9  C   LIG     1      14.921  29.192  14.032  1.00  0.00     0.254 C 
HETATM   10  C   LIG     1      15.357  27.822  13.635  1.00  0.00     0.126 C 
HETATM   11  O   LIG     1      13.707  29.407  14.293  1.00  0.00    -0.266 OA
ENDBRANCH   8   9
ENDBRANCH   7   8
ENDBRANCH   1   7
BRANCH   1  12
HETATM   12  O   LIG     1      17.749  32.824  13.286  1.00  0.00    -0.312 OA
BRANCH  12  13
HETATM   13  C   LIG     1      18.069  34.025  12.637  1.00  0.00     0.255 C 
HETATM   14  C   LIG     1      19.264  34.077  11.748  1.00  0.00     0.126 C 
HETATM   15  O   LIG     1      17.390  35.071  12.823  1.00  0.00    -0.266 OA
ENDBRANCH  12  13
ENDBRANCH   1  12
TORSDOF 8
ENDMDL
MODEL 13
REMARK VINA RESULT:      -5.4      7.469     10.317
REMARK  8 active torsions:
REMARK  status: ('A' for Active; 'I' for Inactive)
REMARK    1  A    between atoms: C_2  and  O_3 
REMARK    2  A    between atoms: O_3  and  C_4 
REMARK    3  A    between atoms: C_4  and  C_5 
REMARK    4  A    between atoms: C_5  and  C_10 
REMARK    5  A    between atoms: C_5  and  O_6 
REMARK    6  A    between atoms: O_6  and  C_7 
REMARK    7  A    between atoms: C_10  and  O_11 
REMARK    8  A    between atoms: O_11  and  C_12 
ROOT
HETATM    1  C   LIG     1      15.643  32.317  15.299  1.00  0.00     0.180 C 
ENDROOT
BRANCH   1   2
HETATM    2  C   LIG     1      17.173  32.412  15.195  1.00  0.00     0.213 C 
BRANCH   2   3
HETATM    3  O   LIG     1      17.547  32.661  13.844  1.00  0.00    -0.319 OA
BRANCH   3   4
HETATM    4  C   LIG     1      17.998  33.909  13.405  1.00  0.00     0.254 C 
HETATM    5  C   LIG     1      18.966  33.988  12.275  1.00  0.00     0.126 C 
HETATM    6  O   LIG     1      17.596  34.970  13.954  1.00  0.00    -0.266 OA
ENDBRANCH   3   4
ENDBRANCH   2   3
ENDBRANCH   1   2
BRANCH   1   7
HETATM    7  C   LIG     1      15.089  33.160  16.456  1.00  0.00     0.213 C 
BRANCH   7   8
HETATM    8  O   LIG     1      15.706  32.767  17.682  1.00  0.00    -0.319 OA
BRANCH   8   9
HETATM    9  C   LIG     1      15.008  32.260  18.784  1.00  0.00     0.254 C 
HETATM   10  C   LIG     1      15.294  32.805  20.143  1.00  0.00     0.126 C 
HETATM   11  O   LIG     1      14.180  31.318  18.655  1.00  0.00    -0.266 OA
ENDBRANCH   8   9
ENDBRANCH   7   8
ENDBRANCH   1   7
BRANCH   1  12
HETATM   12  O   LIG     1      15.207  30.954  15.393  1.00  0.00    -0.312 OA
BRANCH  12  13
HETATM   13  C   LIG     1      14.851  30.133  14.314  1.00  0.00     0.255 C 
HETATM   14  C   LIG     1      13.506  29.491  14.299  1.00  0.00     0.126 C 
HETATM   15  O   LIG     1      15.661  29.896  13.377  1.00  0.00    -0.266 OA
ENDBRANCH  12  13
ENDBRANCH   1  12
TORSDOF 8
ENDMDL
MODEL 14
REMARK VINA RESULT:      -5.4      8.116     10.979
REMARK  8 active torsions:
REMARK  status: ('A' for Active; 'I' for Inactive)
REMARK    1  A    between atoms: C_2  and  O_3 
REMARK    2  A    between atoms: O_3  and  C_4 
REMARK    3  A    between atoms: C_4  and  C_5 
REMARK    4  A    between atoms: C_5  and  C_10 
REMARK    5  A    between atoms: C_5  and  O_6 
REMARK    6  A    between atoms: O_6  and  C_7 
REMARK    7  A    between atoms: C_10  and  O_11 
REMARK    8  A    between atoms: O_11  and  C_12 
ROOT
HETATM    1  C   LIG     1      16.958  32.447  15.138  1.00  0.00     0.180 C 
ENDROOT
BRANCH   1   2
HETATM    2  C   LIG     1      17.602  33.722  14.575  1.00  0.00     0.213 C 
BRANCH   2   3
HETATM    3  O   LIG     1      18.079  33.477  13.256  1.00  0.00    -0.319 OA
BRANCH   3   4
HETATM    4  C   LIG     1      18.065  34.454  12.255  1.00  0.00     0.254 C 
HETATM    5  C   LIG     1      19.100  34.426  11.184  1.00  0.00     0.126 C 
HETATM    6  O   LIG     1      17.186  35.357  12.249  1.00  0.00    -0.266 OA
ENDBRANCH   3   4
ENDBRANCH   2   3
ENDBRANCH   1   2
BRANCH   1   7
HETATM    7  C   LIG     1      15.928  31.844  14.172  1.00  0.00     0.213 C 
BRANCH   7   8
HETATM    8  O   LIG     1      16.077  30.424  14.127  1.00  0.00    -0.319 OA
BRANCH   8   9
HETATM    9  C   LIG     1      15.007  29.523  14.158  1.00  0.00     0.254 C 
HETATM   10  C   LIG     1      15.217  28.124  13.688  1.00  0.00     0.126 C 
HETATM   11  O   LIG     1      13.858  29.887  14.530  1.00  0.00    -0.266 OA
ENDBRANCH   8   9
ENDBRANCH   7   8
ENDBRANCH   1   7
BRANCH   1  12
HETATM   12  O   LIG     1      16.385  32.675  16.432  1.00  0.00    -0.312 OA
BRANCH  12  13
HETATM   13  C   LIG     1      15.144  33.277  16.683  1.00  0.00     0.255 C 
HETATM   14  C   LIG     1      13.978  32.421  17.039  1.00  0.00     0.126 C 
HETATM   15  O   LIG     1      14.988  34.523  16.574  1.00  0.00    -0.266 OA
ENDBRANCH  12  13
ENDBRANCH   1  12
TORSDOF 8
ENDMDL
MODEL 15
REMARK VINA RESULT:      -5.1      6.337      8.538
REMARK  8 active torsions:
REMARK  status: ('A' for Active; 'I' for Inactive)
REMARK    1  A    between atoms: C_2  and  O_3 
REMARK    2  A    between atoms: O_3  and  C_4 
REMARK    3  A    between atoms: C_4  and  C_5 
REMARK    4  A    between atoms: C_5  and  C_10 
REMARK    5  A    between atoms: C_5  and  O_6 
REMARK    6  A    between atoms: O_6  and  C_7 
REMARK    7  A    between atoms: C_10  and  O_11 
REMARK    8  A    between atoms: O_11  and  C_12 
ROOT
HETATM    1  C   LIG     1      14.956  32.607  17.298  1.00  0.00     0.180 C 
ENDROOT
BRANCH   1   2
HETATM    2  C   LIG     1      15.263  32.882  18.777  1.00  0.00     0.213 C 
BRANCH   2   3
HETATM    3  O   LIG     1      15.582  34.259  18.952  1.00  0.00    -0.319 OA
BRANCH   3   4
HETATM    4  C   LIG     1      15.922  34.802  20.195  1.00  0.00     0.254 C 
HETATM    5  C   LIG     1      15.102  34.468  21.394  1.00  0.00     0.126 C 
HETATM    6  O   LIG     1      16.914  35.570  20.314  1.00  0.00    -0.266 OA
ENDBRANCH   3   4
ENDBRANCH   2   3
ENDBRANCH   1   2
BRANCH   1   7
HETATM    7  C   LIG     1      14.081  31.359  17.111  1.00  0.00     0.213 C 
BRANCH   7   8
HETATM    8  O   LIG     1      13.628  31.282  15.759  1.00  0.00    -0.319 OA
BRANCH   8   9
HETATM    9  C   LIG     1      13.914  30.217  14.897  1.00  0.00     0.254 C 
HETATM   10  C   LIG     1      15.288  30.082  14.334  1.00  0.00     0.126 C 
HETATM   11  O   LIG     1      13.018  29.400  14.550  1.00  0.00    -0.266 OA
ENDBRANCH   8   9
ENDBRANCH   7   8
ENDBRANCH   1   7
BRANCH   1  12
HETATM   12  O   LIG     1      16.157  32.520  16.520  1.00  0.00    -0.312 OA
BRANCH  12  13
HETATM   13  C   LIG     1      16.640  33.507  15.648  1.00  0.00     0.255 C 
HETATM   14  C   LIG     1      17.538  33.112  14.527  1.00  0.00     0.126 C 
HETATM   15  O   LIG     1      16.361  34.724  15.819  1.00  0.00    -0.266 OA
ENDBRANCH  12  13
ENDBRANCH   1  12
TORSDOF 8
ENDMDL
MODEL 16
REMARK VINA RESULT:      -4.9      6.948      9.792
REMARK  8 active torsions:
REMARK  status: ('A' for Active; 'I' for Inactive)
REMARK    1  A    between atoms: C_2  and  O_3 
REMARK    2  A    between atoms: O_3  and  C_4 
REMARK    3  A    between atoms: C_4  and  C_5 
REMARK    4  A    between atoms: C_5  and  C_10 
REMARK    5  A    between atoms: C_5  and  O_6 
REMARK    6  A    between atoms: O_6  and  C_7 
REMARK    7  A    between atoms: C_10  and  O_11 
REMARK    8  A    between atoms: O_11  and  C_12 
ROOT
HETATM    1  C   LIG     1      15.257  32.138  16.770  1.00  0.00     0.180 C 
ENDROOT
BRANCH   1   2
HETATM    2  C   LIG     1      16.072  32.539  15.532  1.00  0.00     0.213 C 
BRANCH   2   3
HETATM    3  O   LIG     1      16.824  33.715  15.813  1.00  0.00    -0.319 OA
BRANCH   3   4
HETATM    4  C   LIG     1      17.390  34.506  14.808  1.00  0.00     0.254 C 
HETATM    5  C   LIG     1      18.214  33.866  13.744  1.00  0.00     0.126 C 
HETATM    6  O   LIG     1      17.211  35.753  14.791  1.00  0.00    -0.266 OA
ENDBRANCH   3   4
ENDBRANCH   2   3
ENDBRANCH   1   2
BRANCH   1   7
HETATM    7  C   LIG     1      13.821  31.731  16.411  1.00  0.00     0.213 C 
BRANCH   7   8
HETATM    8  O   LIG     1      13.769  30.333  16.125  1.00  0.00    -0.319 OA
BRANCH   8   9
HETATM    9  C   LIG     1      13.722  29.799  14.833  1.00  0.00     0.254 C 
HETATM   10  C   LIG     1      14.997  29.525  14.109  1.00  0.00     0.126 C 
HETATM   11  O   LIG     1      12.622  29.591  14.252  1.00  0.00    -0.266 OA
ENDBRANCH   8   9
ENDBRANCH   7   8
ENDBRANCH   1   7
BRANCH   1  12
HETATM   12  O   LIG     1      15.272  33.170  17.766  1.00  0.00    -0.312 OA
BRANCH  12  13
HETATM   13  C   LIG     1      15.409  32.972  19.147  1.00  0.00     0.255 C 
HETATM   14  C   LIG     1      14.942  31.692  19.750  1.00  0.00     0.126 C 
HETATM   15  O   LIG     1      15.883  33.872  19.892  1.00  0.00    -0.266 OA
ENDBRANCH  12  13
ENDBRANCH   1  12
TORSDOF 8
ENDMDL
MODEL 17
REMARK VINA RESULT:      -4.7      7.561     10.316
REMARK  8 active torsions:
REMARK  status: ('A' for Active; 'I' for Inactive)
REMARK    1  A    between atoms: C_2  and  O_3 
REMARK    2  A    between atoms: O_3  and  C_4 
REMARK    3  A    between atoms: C_4  and  C_5 
REMARK    4  A    between atoms: C_5  and  C_10 
REMARK    5  A    between atoms: C_5  and  O_6 
REMARK    6  A    between atoms: O_6  and  C_7 
REMARK    7  A    between atoms: C_10  and  O_11 
REMARK    8  A    between atoms: O_11  and  C_12 
ROOT
HETATM    1  C   LIG     1      15.263  32.251  16.019  1.00  0.00     0.180 C 
ENDROOT
BRANCH   1   2
HETATM    2  C   LIG     1      14.130  31.340  15.526  1.00  0.00     0.213 C 
BRANCH   2   3
HETATM    3  O   LIG     1      14.616  30.011  15.370  1.00  0.00    -0.319 OA
BRANCH   3   4
HETATM    4  C   LIG     1      14.453  29.283  14.188  1.00  0.00     0.254 C 
HETATM    5  C   LIG     1      13.204  28.500  13.971  1.00  0.00     0.126 C 
HETATM    6  O   LIG     1      15.350  29.281  13.303  1.00  0.00    -0.266 OA
ENDBRANCH   3   4
ENDBRANCH   2   3
ENDBRANCH   1   2
BRANCH   1   7
HETATM    7  C   LIG     1      14.844  33.091  17.235  1.00  0.00     0.213 C 
BRANCH   7   8
HETATM    8  O   LIG     1      15.751  32.868  18.315  1.00  0.00    -0.319 OA
BRANCH   8   9
HETATM    9  C   LIG     1      15.354  32.637  19.637  1.00  0.00     0.254 C 
HETATM   10  C   LIG     1      14.815  31.299  20.014  1.00  0.00     0.126 C 
HETATM   11  O   LIG     1      15.398  33.555  20.500  1.00  0.00    -0.266 OA
ENDBRANCH   8   9
ENDBRANCH   7   8
ENDBRANCH   1   7
BRANCH   1  12
HETATM   12  O   LIG     1      15.767  33.081  14.964  1.00  0.00    -0.312 OA
BRANCH  12  13
HETATM   13  C   LIG     1      16.895  32.808  14.176  1.00  0.00     0.255 C 
HETATM   14  C   LIG     1      18.206  33.410  14.548  1.00  0.00     0.126 C 
HETATM   15  O   LIG     1      16.812  32.096  13.139  1.00  0.00    -0.266 OA
ENDBRANCH  12  13
ENDBRANCH   1  12
TORSDOF 8
ENDMDL
MODEL 18
REMARK VINA RESULT:      -4.4      8.832     11.467
REMARK  8 active torsions:
REMARK  status: ('A' for Active; 'I' for Inactive)
REMARK    1  A    between atoms: C_2  and  O_3 
REMARK    2  A    between atoms: O_3  and  C_4 
REMARK    3  A    between atoms: C_4  and  C_5 
REMARK    4  A    between atoms: C_5  and  C_10 
REMARK    5  A    between atoms: C_5  and  O_6 
REMARK    6  A    between atoms: O_6  and  C_7 
REMARK    7  A    between atoms: C_10  and  O_11 
REMARK    8  A    between atoms: O_11  and  C_12 
ROOT
HETATM    1  C   LIG     1      15.447  31.360  14.769  1.00  0.00     0.180 C 
ENDROOT
BRANCH   1   2
HETATM    2  C   LIG     1      15.622  31.851  13.324  1.00  0.00     0.213 C 
BRANCH   2   3
HETATM    3  O   LIG     1      16.993  32.149  13.081  1.00  0.00    -0.319 OA
BRANCH   3   4
HETATM    4  C   LIG     1      17.548  33.406  13.337  1.00  0.00     0.254 C 
HETATM    5  C   LIG     1      18.653  33.536  14.328  1.00  0.00     0.126 C 
HETATM    6  O   LIG     1      17.125  34.432  12.738  1.00  0.00    -0.266 OA
ENDBRANCH   3   4
ENDBRANCH   2   3
ENDBRANCH   1   2
BRANCH   1   7
HETATM    7  C   LIG     1      14.801  29.969  14.832  1.00  0.00     0.213 C 
BRANCH   7   8
HETATM    8  O   LIG     1      15.545  29.050  14.031  1.00  0.00    -0.319 OA
BRANCH   8   9
HETATM    9  C   LIG     1      15.034  27.841  13.545  1.00  0.00     0.254 C 
HETATM   10  C   LIG     1      13.597  27.513  13.771  1.00  0.00     0.126 C 
HETATM   11  O   LIG     1      15.778  27.006  12.963  1.00  0.00    -0.266 OA
ENDBRANCH   8   9
ENDBRANCH   7   8
ENDBRANCH   1   7
BRANCH   1  12
HETATM   12  O   LIG     1      14.721  32.307  15.562  1.00  0.00    -0.312 OA
BRANCH  12  13
HETATM   13  C   LIG     1      15.262  33.116  16.571  1.00  0.00     0.255 C 
HETATM   14  C   LIG     1      15.168  32.673  17.990  1.00  0.00     0.126 C 
HETATM   15  O   LIG     1      15.791  34.229  16.303  1.00  0.00    -0.266 OA
ENDBRANCH  12  13
ENDBRANCH   1  12
TORSDOF 8
ENDMDL
MODEL 19
REMARK VINA RESULT:      -4.2      7.939      9.739
REMARK  8 active torsions:
REMARK  status: ('A' for Active; 'I' for Inactive)
REMARK    1  A    between atoms: C_2  and  O_3 
REMARK    2  A    between atoms: O_3  and  C_4 
REMARK    3  A    between atoms: C_4  and  C_5 
REMARK    4  A    between atoms: C_5  and  C_10 
REMARK    5  A    between atoms: C_5  and  O_6 
REMARK    6  A    between atoms: O_6  and  C_7 
REMARK    7  A    between atoms: C_10  and  O_11 
REMARK    8  A    between atoms: O_11  and  C_12 
ROOT
HETATM    1  C   LIG     1      16.901  33.069  14.689  1.00  0.00     0.180 C 
ENDROOT
BRANCH   1   2
HETATM    2  C   LIG     1      16.443  34.118  15.712  1.00  0.00     0.213 C 
BRANCH   2   3
HETATM    3  O   LIG     1      15.172  33.750  16.240  1.00  0.00    -0.319 OA
BRANCH   3   4
HETATM    4  C   LIG     1      14.982  33.416  17.584  1.00  0.00     0.254 C 
HETATM    5  C   LIG     1      15.389  34.377  18.647  1.00  0.00     0.126 C 
HETATM    6  O   LIG     1      14.470  32.310  17.907  1.00  0.00    -0.266 OA
ENDBRANCH   3   4
ENDBRANCH   2   3
ENDBRANCH   1   2
BRANCH   1   7
HETATM    7  C   LIG     1      17.941  33.632  13.709  1.00  0.00     0.213 C 
BRANCH   7   8
HETATM    8  O   LIG     1      18.151  32.709  12.640  1.00  0.00    -0.319 OA
BRANCH   8   9
HETATM    9  C   LIG     1      19.016  32.939  11.565  1.00  0.00     0.254 C 
HETATM   10  C   LIG     1      19.332  34.341  11.169  1.00  0.00     0.126 C 
HETATM   11  O   LIG     1      19.493  31.982  10.895  1.00  0.00    -0.266 OA
ENDBRANCH   8   9
ENDBRANCH   7   8
ENDBRANCH   1   7
BRANCH   1  12
HETATM   12  O   LIG     1      15.788  32.494  13.991  1.00  0.00    -0.312 OA
BRANCH  12  13
HETATM   13  C   LIG     1      15.471  31.129  13.941  1.00  0.00     0.255 C 
HETATM   14  C   LIG     1      14.439  30.587  14.869  1.00  0.00     0.126 C 
HETATM   15  O   LIG     1      16.070  30.347  13.154  1.00  0.00    -0.266 OA
ENDBRANCH  12  13
ENDBRANCH   1  12
TORSDOF 8
ENDMDL
MODEL 20
REMARK VINA RESULT:      -4.1      6.674      8.921
REMARK  8 active torsions:
REMARK  status: ('A' for Active; 'I' for Inactive)
REMARK    1  A    between atoms: C_2  and  O_3 
REMARK    2  A    between atoms: O_3  and  C_4 
REMARK    3  A    between atoms: C_4  and  C_5 
REMARK    4  A    between atoms: C_5  and  C_10 
REMARK    5  A    between atoms: C_5  and  O_6 
REMARK    6  A    between atoms: O_6  and  C_7 
REMARK    7  A    between atoms: C_10  and  O_11 
REMARK    8  A    between atoms: O_11  and  C_12 
ROOT
HETATM    1  C   LIG     1      14.923  33.238  17.386  1.00  0.00     0.180 C 
ENDROOT
BRANCH   1   2
HETATM    2  C   LIG     1      14.307  32.591  16.138  1.00  0.00     0.213 C 
BRANCH   2   3
HETATM    3  O   LIG     1      14.766  31.248  16.017  1.00  0.00    -0.319 OA
BRANCH   3   4
HETATM    4  C   LIG     1      14.745  30.550  14.806  1.00  0.00     0.254 C 
HETATM    5  C   LIG     1      13.611  29.632  14.504  1.00  0.00     0.126 C 
HETATM    6  O   LIG     1      15.675  30.688  13.966  1.00  0.00    -0.266 OA
ENDBRANCH   3   4
ENDBRANCH   2   3
ENDBRANCH   1   2
BRANCH   1   7
HETATM    7  C   LIG     1      15.930  34.341  17.029  1.00  0.00     0.213 C 
BRANCH   7   8
HETATM    8  O   LIG     1      16.031  34.464  15.609  1.00  0.00    -0.319 OA
BRANCH   8   9
HETATM    9  C   LIG     1      17.170  34.119  14.872  1.00  0.00     0.254 C 
HETATM   10  C   LIG     1      17.865  32.832  15.162  1.00  0.00     0.126 C 
HETATM   11  O   LIG     1      17.646  34.900  14.004  1.00  0.00    -0.266 OA
ENDBRANCH   8   9
ENDBRANCH   7   8
ENDBRANCH   1   7
BRANCH   1  12
HETATM   12  O   LIG     1      15.512  32.258  18.250  1.00  0.00    -0.312 OA
BRANCH  12  13
HETATM   13  C   LIG     1      15.356  32.194  19.642  1.00  0.00     0.255 C 
HETATM   14  C   LIG     1      14.953  30.906  20.272  1.00  0.00     0.126 C 
HETATM   15  O   LIG     1      15.512  33.215  20.365  1.00  0.00    -0.266 OA
ENDBRANCH  12  13
ENDBRANCH   1  12
TORSDOF 8
ENDMDL
