MODEL 1
REMARK VINA RESULT:      -6.2      0.000      0.000
REMARK  9 active torsions:
REMARK  status: ('A' for Active; 'I' for Inactive)
REMARK    1  A    between atoms: C_2  and  C_3 
REMARK    2  A    between atoms: C_3  and  C_4 
REMARK    3  A    between atoms: C_4  and  N_5 
REMARK    4  A    between atoms: N_5  and  C_6 
REMARK    5  A    between atoms: N_5  and  C_10 
REMARK    6  A    between atoms: C_6  and  C_7 
REMARK    7  A    between atoms: C_7  and  C_8 
REMARK    8  A    between atoms: C_10  and  C_11 
REMARK    9  A    between atoms: C_11  and  C_12 
ROOT
HETATM    1  N   LIG     1      17.276  37.420  23.207  1.00  0.00     0.088 N 
ENDROOT
BRANCH   1   2
HETATM    2  C   LIG     1      16.321  36.570  22.449  1.00  0.00     0.272 C 
BRANCH   2   3
HETATM    3  C   LIG     1      16.993  35.239  22.097  1.00  0.00     0.030 C 
BRANCH   3   4
HETATM    4  C   LIG     1      16.126  34.418  21.134  1.00  0.00    -0.003 C 
HETATM    5  C   LIG     1      15.777  35.224  19.885  1.00  0.00     0.005 C 
ENDBRANCH   3   4
ENDBRANCH   2   3
ENDBRANCH   1   2
BRANCH   1   6
HETATM    6  C   LIG     1      17.349  38.794  22.656  1.00  0.00     0.272 C 
BRANCH   6   7
HETATM    7  C   LIG     1      18.710  39.045  21.982  1.00  0.00     0.030 C 
BRANCH   7   8
HETATM    8  C   LIG     1      18.633  38.981  20.449  1.00  0.00    -0.003 C 
HETATM    9  C   LIG     1      18.913  37.583  19.897  1.00  0.00     0.005 C 
ENDBRANCH   7   8
ENDBRANCH   6   7
ENDBRANCH   1   6
BRANCH   1  10
HETATM   10  C   LIG     1      16.954  37.455  24.655  1.00  0.00     0.272 C 
BRANCH  10  11
HETATM   11  C   LIG     1      18.233  37.363  25.506  1.00  0.00     0.030 C 
BRANCH  11  12
HETATM   12  C   LIG     1      18.221  36.162  26.466  1.00  0.00    -0.003 C 
HETATM   13  C   LIG     1      17.518  34.939  25.878  1.00  0.00     0.005 C 
ENDBRANCH  11  12
ENDBRANCH  10  11
ENDBRANCH   1  10
TORSDOF 9
ENDMDL
MODEL 2
REMARK VINA RESULT:      -6.2      0.417      4.613
REMARK  9 active torsions:
REMARK  status: ('A' for Active; 'I' for Inactive)
REMARK    1  A    between atoms: C_2  and  C_3 
REMARK    2  A    between atoms: C_3  and  C_4 
REMARK    3  A    between atoms: C_4  and  N_5 
REMARK    4  A    between atoms: N_5  and  C_6 
REMARK    5  A    between atoms: N_5  and  C_10 
REMARK    6  A    between atoms: C_6  and  C_7 
REMARK    7  A    between atoms: C_7  and  C_8 
REMARK    8  A    between atoms: C_10  and  C_11 
REMARK    9  A    between atoms: C_11  and  C_12 
ROOT
HETATM    1  N   LIG     1      17.227  37.589  23.211  1.00  0.00     0.088 N 
ENDROOT
BRANCH   1   2
HETATM    2  C   LIG     1      17.361  38.960  22.651  1.00  0.00     0.272 C 
BRANCH   2   3
HETATM    3  C   LIG     1      18.752  39.122  22.029  1.00  0.00     0.030 C 
BRANCH   3   4
HETATM    4  C   LIG     1      18.678  39.115  20.497  1.00  0.00    -0.003 C 
HETATM    5  C   LIG     1      18.919  37.714  19.941  1.00  0.00     0.005 C 
ENDBRANCH   3   4
ENDBRANCH   2   3
ENDBRANCH   1   2
BRANCH   1   6
HETATM    6  C   LIG     1      16.989  37.611  24.673  1.00  0.00     0.272 C 
BRANCH   6   7
HETATM    7  C   LIG     1      18.297  37.370  25.448  1.00  0.00     0.030 C 
BRANCH   7   8
HETATM    8  C   LIG     1      18.173  36.239  26.482  1.00  0.00    -0.003 C 
HETATM    9  C   LIG     1      17.711  34.918  25.866  1.00  0.00     0.005 C 
ENDBRANCH   7   8
ENDBRANCH   6   7
ENDBRANCH   1   6
BRANCH   1  10
HETATM   10  C   LIG     1      16.168  36.813  22.521  1.00  0.00     0.272 C 
BRANCH  10  11
HETATM   11  C   LIG     1      16.716  35.471  22.004  1.00  0.00     0.030 C 
BRANCH  11  12
HETATM   12  C   LIG     1      16.235  35.145  20.580  1.00  0.00    -0.003 C 
HETATM   13  C   LIG     1      15.630  33.747  20.463  1.00  0.00     0.005 C 
ENDBRANCH  11  12
ENDBRANCH  10  11
ENDBRANCH   1  10
TORSDOF 9
ENDMDL
MODEL 3
REMARK VINA RESULT:      -6.1      0.549      3.920
REMARK  9 active torsions:
REMARK  status: ('A' for Active; 'I' for Inactive)
REMARK    1  A    between atoms: C_2  and  C_3 
REMARK    2  A    between atoms: C_3  and  C_4 
REMARK    3  A    between atoms: C_4  and  N_5 
REMARK    4  A    between atoms: N_5  and  C_6 
REMARK    5  A    between atoms: N_5  and  C_10 
REMARK    6  A    between atoms: C_6  and  C_7 
REMARK    7  A    between atoms: C_7  and  C_8 
REMARK    8  A    between atoms: C_10  and  C_11 
REMARK    9  A    between atoms: C_11  and  C_12 
ROOT
HETATM    1  N   LIG     1      16.662  37.780  23.385  1.00  0.00     0.088 N 
ENDROOT
BRANCH   1   2
HETATM    2  C   LIG     1      16.863  37.027  24.651  1.00  0.00     0.272 C 
BRANCH   2   3
HETATM    3  C   LIG     1      18.113  37.552  25.364  1.00  0.00     0.030 C 
BRANCH   3   4
HETATM    4  C   LIG     1      18.599  36.565  26.432  1.00  0.00    -0.003 C 
HETATM    5  C   LIG     1      18.004  35.177  26.208  1.00  0.00     0.005 C 
ENDBRANCH   3   4
ENDBRANCH   2   3
ENDBRANCH   1   2
BRANCH   1   6
HETATM    6  C   LIG     1      17.879  38.526  22.988  1.00  0.00     0.272 C 
BRANCH   6   7
HETATM    7  C   LIG     1      17.784  38.998  21.525  1.00  0.00     0.030 C 
BRANCH   7   8
HETATM    8  C   LIG     1      19.064  38.708  20.725  1.00  0.00    -0.003 C 
HETATM    9  C   LIG     1      18.909  37.534  19.759  1.00  0.00     0.005 C 
ENDBRANCH   7   8
ENDBRANCH   6   7
ENDBRANCH   1   6
BRANCH   1  10
HETATM   10  C   LIG     1      16.208  36.897  22.284  1.00  0.00     0.272 C 
BRANCH  10  11
HETATM   11  C   LIG     1      16.796  35.483  22.434  1.00  0.00     0.030 C 
BRANCH  11  12
HETATM   12  C   LIG     1      16.403  34.552  21.275  1.00  0.00    -0.003 C 
HETATM   13  C   LIG     1      15.800  35.301  20.088  1.00  0.00     0.005 C 
ENDBRANCH  11  12
ENDBRANCH  10  11
ENDBRANCH   1  10
TORSDOF 9
ENDMDL
MODEL 4
REMARK VINA RESULT:      -6.1      0.742      3.225
REMARK  9 active torsions:
REMARK  status: ('A' for Active; 'I' for Inactive)
REMARK    1  A    between atoms: C_2  and  C_3 
REMARK    2  A    between atoms: C_3  and  C_4 
REMARK    3  A    between atoms: C_4  and  N_5 
REMARK    4  A    between atoms: N_5  and  C_6 
REMARK    5  A    between atoms: N_5  and  C_10 
REMARK    6  A    between atoms: C_6  and  C_7 
REMARK    7  A    between atoms: C_7  and  C_8 
REMARK    8  A    between atoms: C_10  and  C_11 
REMARK    9  A    between atoms: C_11  and  C_12 
ROOT
HETATM    1  N   LIG     1      16.800  38.099  23.469  1.00  0.00     0.088 N 
ENDROOT
BRANCH   1   2
HETATM    2  C   LIG     1      18.152  38.508  23.004  1.00  0.00     0.272 C 
BRANCH   2   3
HETATM    3  C   LIG     1      18.031  39.226  21.656  1.00  0.00     0.030 C 
BRANCH   3   4
HETATM    4  C   LIG     1      19.241  38.932  20.761  1.00  0.00    -0.003 C 
HETATM    5  C   LIG     1      18.977  37.733  19.855  1.00  0.00     0.005 C 
ENDBRANCH   3   4
ENDBRANCH   2   3
ENDBRANCH   1   2
BRANCH   1   6
HETATM    6  C   LIG     1      16.131  37.200  22.499  1.00  0.00     0.272 C 
BRANCH   6   7
HETATM    7  C   LIG     1      16.783  35.806  22.498  1.00  0.00     0.030 C 
BRANCH   7   8
HETATM    8  C   LIG     1      16.677  35.103  21.136  1.00  0.00    -0.003 C 
HETATM    9  C   LIG     1      15.431  34.226  21.014  1.00  0.00     0.005 C 
ENDBRANCH   7   8
ENDBRANCH   6   7
ENDBRANCH   1   6
BRANCH   1  10
HETATM   10  C   LIG     1      16.844  37.475  24.813  1.00  0.00     0.272 C 
BRANCH  10  11
HETATM   11  C   LIG     1      18.288  37.410  25.343  1.00  0.00     0.030 C 
BRANCH  11  12
HETATM   12  C   LIG     1      18.442  36.438  26.524  1.00  0.00    -0.003 C 
HETATM   13  C   LIG     1      18.060  35.003  26.167  1.00  0.00     0.005 C 
ENDBRANCH  11  12
ENDBRANCH  10  11
ENDBRANCH   1  10
TORSDOF 9
ENDMDL
MODEL 5
REMARK VINA RESULT:      -6.0      0.761      4.810
REMARK  9 active torsions:
REMARK  status: ('A' for Active; 'I' for Inactive)
REMARK    1  A    between atoms: C_2  and  C_3 
REMARK    2  A    between atoms: C_3  and  C_4 
REMARK    3  A    between atoms: C_4  and  N_5 
REMARK    4  A    between atoms: N_5  and  C_6 
REMARK    5  A    between atoms: N_5  and  C_10 
REMARK    6  A    between atoms: C_6  and  C_7 
REMARK    7  A    between atoms: C_7  and  C_8 
REMARK    8  A    between atoms: C_10  and  C_11 
REMARK    9  A    between atoms: C_11  and  C_12 
ROOT
HETATM    1  N   LIG     1      17.683  37.613  22.936  1.00  0.00     0.088 N 
ENDROOT
BRANCH   1   2
HETATM    2  C   LIG     1      17.786  38.301  24.250  1.00  0.00     0.272 C 
BRANCH   2   3
HETATM    3  C   LIG     1      17.292  37.364  25.356  1.00  0.00     0.030 C 
BRANCH   3   4
HETATM    4  C   LIG     1      18.464  36.673  26.063  1.00  0.00    -0.003 C 
HETATM    5  C   LIG     1      18.193  35.183  26.248  1.00  0.00     0.005 C 
ENDBRANCH   3   4
ENDBRANCH   2   3
ENDBRANCH   1   2
BRANCH   1   6
HETATM    6  C   LIG     1      16.552  36.655  22.903  1.00  0.00     0.272 C 
BRANCH   6   7
HETATM    7  C   LIG     1      16.986  35.311  22.291  1.00  0.00     0.030 C 
BRANCH   7   8
HETATM    8  C   LIG     1      16.474  35.121  20.855  1.00  0.00    -0.003 C 
HETATM    9  C   LIG     1      15.472  33.973  20.727  1.00  0.00     0.005 C 
ENDBRANCH   7   8
ENDBRANCH   6   7
ENDBRANCH   1   6
BRANCH   1  10
HETATM   10  C   LIG     1      17.582  38.578  21.814  1.00  0.00     0.272 C 
BRANCH  10  11
HETATM   11  C   LIG     1      18.968  39.130  21.437  1.00  0.00     0.030 C 
BRANCH  11  12
HETATM   12  C   LIG     1      19.352  38.823  19.980  1.00  0.00    -0.003 C 
HETATM   13  C   LIG     1      19.155  37.354  19.611  1.00  0.00     0.005 C 
ENDBRANCH  11  12
ENDBRANCH  10  11
ENDBRANCH   1  10
TORSDOF 9
ENDMDL
MODEL 6
REMARK VINA RESULT:      -6.0      0.786      4.276
REMARK  9 active torsions:
REMARK  status: ('A' for Active; 'I' for Inactive)
REMARK    1  A    between atoms: C_2  and  C_3 
REMARK    2  A    between atoms: C_3  and  C_4 
REMARK    3  A    between atoms: C_4  and  N_5 
REMARK    4  A    between atoms: N_5  and  C_6 
REMARK    5  A    between atoms: N_5  and  C_10 
REMARK    6  A    between atoms: C_6  and  C_7 
REMARK    7  A    between atoms: C_7  and  C_8 
REMARK    8  A    between atoms: C_10  and  C_11 
REMARK    9  A    between atoms: C_11  and  C_12 
ROOT
HETATM    1  N   LIG     1      16.836  38.104  23.501  1.00  0.00     0.088 N 
ENDROOT
BRANCH   1   2
HETATM    2  C   LIG     1      16.099  37.113  22.672  1.00  0.00     0.272 C 
BRANCH   2   3
HETATM    3  C   LIG     1      16.895  35.806  22.612  1.00  0.00     0.030 C 
BRANCH   3   4
HETATM    4  C   LIG     1      16.721  35.113  21.256  1.00  0.00    -0.003 C 
HETATM    5  C   LIG     1      15.332  34.492  21.130  1.00  0.00     0.005 C 
ENDBRANCH   3   4
ENDBRANCH   2   3
ENDBRANCH   1   2
BRANCH   1   6
HETATM    6  C   LIG     1      16.887  37.702  24.926  1.00  0.00     0.272 C 
BRANCH   6   7
HETATM    7  C   LIG     1      18.334  37.417  25.368  1.00  0.00     0.030 C 
BRANCH   7   8
HETATM    8  C   LIG     1      18.412  36.415  26.530  1.00  0.00    -0.003 C 
HETATM    9  C   LIG     1      17.987  35.003  26.127  1.00  0.00     0.005 C 
ENDBRANCH   7   8
ENDBRANCH   6   7
ENDBRANCH   1   6
BRANCH   1  10
HETATM   10  C   LIG     1      18.202  38.351  22.980  1.00  0.00     0.272 C 
BRANCH  10  11
HETATM   11  C   LIG     1      18.152  39.097  21.635  1.00  0.00     0.030 C 
BRANCH  11  12
HETATM   12  C   LIG     1      18.717  38.263  20.473  1.00  0.00    -0.003 C 
HETATM   13  C   LIG     1      19.936  38.909  19.816  1.00  0.00     0.005 C 
ENDBRANCH  11  12
ENDBRANCH  10  11
ENDBRANCH   1  10
TORSDOF 9
ENDMDL
MODEL 7
REMARK VINA RESULT:      -5.4      1.559      4.526
REMARK  9 active torsions:
REMARK  status: ('A' for Active; 'I' for Inactive)
REMARK    1  A    between atoms: C_2  and  C_3 
REMARK    2  A    between atoms: C_3  and  C_4 
REMARK    3  A    between atoms: C_4  and  N_5 
REMARK    4  A    between atoms: N_5  and  C_6 
REMARK    5  A    between atoms: N_5  and  C_10 
REMARK    6  A    between atoms: C_6  and  C_7 
REMARK    7  A    between atoms: C_7  and  C_8 
REMARK    8  A    between atoms: C_10  and  C_11 
REMARK    9  A    between atoms: C_11  and  C_12 
ROOT
HETATM    1  N   LIG     1      16.513  36.115  21.951  1.00  0.00     0.088 N 
ENDROOT
BRANCH   1   2
HETATM    2  C   LIG     1      17.059  36.364  23.311  1.00  0.00     0.272 C 
BRANCH   2   3
HETATM    3  C   LIG     1      17.119  35.043  24.085  1.00  0.00     0.030 C 
BRANCH   3   4
HETATM    4  C   LIG     1      17.514  35.276  25.549  1.00  0.00    -0.003 C 
HETATM    5  C   LIG     1      18.093  36.675  25.747  1.00  0.00     0.005 C 
ENDBRANCH   3   4
ENDBRANCH   2   3
ENDBRANCH   1   2
BRANCH   1   6
HETATM    6  C   LIG     1      17.575  36.141  20.917  1.00  0.00     0.272 C 
BRANCH   6   7
HETATM    7  C   LIG     1      18.171  37.554  20.775  1.00  0.00     0.030 C 
BRANCH   7   8
HETATM    8  C   LIG     1      19.052  37.701  19.524  1.00  0.00    -0.003 C 
HETATM    9  C   LIG     1      20.094  38.811  19.658  1.00  0.00     0.005 C 
ENDBRANCH   7   8
ENDBRANCH   6   7
ENDBRANCH   1   6
BRANCH   1  10
HETATM   10  C   LIG     1      15.753  34.844  21.886  1.00  0.00     0.272 C 
BRANCH  10  11
HETATM   11  C   LIG     1      15.749  34.277  20.455  1.00  0.00     0.030 C 
BRANCH  11  12
HETATM   12  C   LIG     1      15.025  32.924  20.356  1.00  0.00    -0.003 C 
HETATM   13  C   LIG     1      15.402  32.138  19.101  1.00  0.00     0.005 C 
ENDBRANCH  11  12
ENDBRANCH  10  11
ENDBRANCH   1  10
TORSDOF 9
ENDMDL
MODEL 8
REMARK VINA RESULT:      -5.4      1.270      4.306
REMARK  9 active torsions:
REMARK  status: ('A' for Active; 'I' for Inactive)
REMARK    1  A    between atoms: C_2  and  C_3 
REMARK    2  A    between atoms: C_3  and  C_4 
REMARK    3  A    between atoms: C_4  and  N_5 
REMARK    4  A    between atoms: N_5  and  C_6 
REMARK    5  A    between atoms: N_5  and  C_10 
REMARK    6  A    between atoms: C_6  and  C_7 
REMARK    7  A    between atoms: C_7  and  C_8 
REMARK    8  A    between atoms: C_10  and  C_11 
REMARK    9  A    between atoms: C_11  and  C_12 
ROOT
HETATM    1  N   LIG     1      16.675  36.647  21.704  1.00  0.00     0.088 N 
ENDROOT
BRANCH   1   2
HETATM    2  C   LIG     1      16.722  35.173  21.902  1.00  0.00     0.272 C 
BRANCH   2   3
HETATM    3  C   LIG     1      15.425  34.548  21.381  1.00  0.00     0.030 C 
BRANCH   3   4
HETATM    4  C   LIG     1      15.670  33.763  20.086  1.00  0.00    -0.003 C 
HETATM    5  C   LIG     1      15.024  32.381  20.150  1.00  0.00     0.005 C 
ENDBRANCH   3   4
ENDBRANCH   2   3
ENDBRANCH   1   2
BRANCH   1   6
HETATM    6  C   LIG     1      16.479  37.369  22.983  1.00  0.00     0.272 C 
BRANCH   6   7
HETATM    7  C   LIG     1      17.041  36.559  24.166  1.00  0.00     0.030 C 
BRANCH   7   8
HETATM    8  C   LIG     1      17.858  37.423  25.140  1.00  0.00    -0.003 C 
HETATM    9  C   LIG     1      18.446  36.618  26.299  1.00  0.00     0.005 C 
ENDBRANCH   7   8
ENDBRANCH   6   7
ENDBRANCH   1   6
BRANCH   1  10
HETATM   10  C   LIG     1      17.881  37.147  21.001  1.00  0.00     0.272 C 
BRANCH  10  11
HETATM   11  C   LIG     1      17.962  38.682  21.072  1.00  0.00     0.030 C 
BRANCH  11  12
HETATM   12  C   LIG     1      19.378  39.214  20.797  1.00  0.00    -0.003 C 
HETATM   13  C   LIG     1      20.032  38.561  19.580  1.00  0.00     0.005 C 
ENDBRANCH  11  12
ENDBRANCH  10  11
ENDBRANCH   1  10
TORSDOF 9
ENDMDL
MODEL 9
REMARK VINA RESULT:      -5.2      1.425      2.091
REMARK  9 active torsions:
REMARK  status: ('A' for Active; 'I' for Inactive)
REMARK    1  A    between atoms: C_2  and  C_3 
REMARK    2  A    between atoms: C_3  and  C_4 
REMARK    3  A    between atoms: C_4  and  N_5 
REMARK    4  A    between atoms: N_5  and  C_6 
REMARK    5  A    between atoms: N_5  and  C_10 
REMARK    6  A    between atoms: C_6  and  C_7 
REMARK    7  A    between atoms: C_7  and  C_8 
REMARK    8  A    between atoms: C_10  and  C_11 
REMARK    9  A    between atoms: C_11  and  C_12 
ROOT
HETATM    1  N   LIG     1      16.971  36.218  22.003  1.00  0.00     0.088 N 
ENDROOT
BRANCH   1   2
HETATM    2  C   LIG     1      15.599  35.680  21.800  1.00  0.00     0.272 C 
BRANCH   2   3
HETATM    3  C   LIG     1      15.561  34.857  20.509  1.00  0.00     0.030 C 
BRANCH   3   4
HETATM    4  C   LIG     1      15.005  33.450  20.765  1.00  0.00    -0.003 C 
HETATM    5  C   LIG     1      15.512  32.461  19.719  1.00  0.00     0.005 C 
ENDBRANCH   3   4
ENDBRANCH   2   3
ENDBRANCH   1   2
BRANCH   1   6
HETATM    6  C   LIG     1      17.732  36.279  20.733  1.00  0.00     0.272 C 
BRANCH   6   7
HETATM    7  C   LIG     1      18.385  37.661  20.548  1.00  0.00     0.030 C 
BRANCH   7   8
HETATM    8  C   LIG     1      19.441  37.673  19.431  1.00  0.00    -0.003 C 
HETATM    9  C   LIG     1      20.369  38.886  19.501  1.00  0.00     0.005 C 
ENDBRANCH   7   8
ENDBRANCH   6   7
ENDBRANCH   1   6
BRANCH   1  10
HETATM   10  C   LIG     1      16.951  37.545  22.664  1.00  0.00     0.272 C 
BRANCH  10  11
HETATM   11  C   LIG     1      16.637  37.408  24.164  1.00  0.00     0.030 C 
BRANCH  11  12
HETATM   12  C   LIG     1      17.445  36.288  24.839  1.00  0.00    -0.003 C 
HETATM   13  C   LIG     1      18.330  36.795  25.976  1.00  0.00     0.005 C 
ENDBRANCH  11  12
ENDBRANCH  10  11
ENDBRANCH   1  10
TORSDOF 9
ENDMDL
MODEL 10
REMARK VINA RESULT:      -4.7      7.045      9.935
REMARK  9 active torsions:
REMARK  status: ('A' for Active; 'I' for Inactive)
REMARK    1  A    between atoms: C_2  and  C_3 
REMARK    2  A    between atoms: C_3  and  C_4 
REMARK    3  A    between atoms: C_4  and  N_5 
REMARK    4  A    between atoms: N_5  and  C_6 
REMARK    5  A    between atoms: N_5  and  C_10 
REMARK    6  A    between atoms: C_6  and  C_7 
REMARK    7  A    between atoms: C_7  and  C_8 
REMARK    8  A    between atoms: C_10  and  C_11 
REMARK    9  A    between atoms: C_11  and  C_12 
ROOT
HETATM    1  N   LIG     1      15.442  32.375  15.453  1.00  0.00     0.088 N 
ENDROOT
BRANCH   1   2
HETATM    2  C   LIG     1      15.006  33.167  16.633  1.00  0.00     0.272 C 
BRANCH   2   3
HETATM    3  C   LIG     1      14.486  32.220  17.719  1.00  0.00     0.030 C 
BRANCH   3   4
HETATM    4  C   LIG     1      15.279  32.382  19.021  1.00  0.00    -0.003 C 
HETATM    5  C   LIG     1      14.863  31.335  20.052  1.00  0.00     0.005 C 
ENDBRANCH   3   4
ENDBRANCH   2   3
ENDBRANCH   1   2
BRANCH   1   6
HETATM    6  C   LIG     1      16.901  32.119  15.469  1.00  0.00     0.272 C 
BRANCH   6   7
HETATM    7  C   LIG     1      17.665  33.235  14.733  1.00  0.00     0.030 C 
BRANCH   7   8
HETATM    8  C   LIG     1      17.417  33.221  13.217  1.00  0.00    -0.003 C 
HETATM    9  C   LIG     1      18.339  34.174  12.454  1.00  0.00     0.005 C 
ENDBRANCH   7   8
ENDBRANCH   6   7
ENDBRANCH   1   6
BRANCH   1  10
HETATM   10  C   LIG     1      14.690  31.102  15.335  1.00  0.00     0.272 C 
BRANCH  10  11
HETATM   11  C   LIG     1      15.116  30.325  14.077  1.00  0.00     0.030 C 
BRANCH  11  12
HETATM   12  C   LIG     1      14.434  28.952  13.969  1.00  0.00    -0.003 C 
HETATM   13  C   LIG     1      15.416  27.823  13.659  1.00  0.00     0.005 C 
ENDBRANCH  11  12
ENDBRANCH  10  11
ENDBRANCH   1  10
TORSDOF 9
ENDMDL
MODEL 11
REMARK VINA RESULT:      -4.7      6.998      9.892
REMARK  9 active torsions:
REMARK  status: ('A' for Active; 'I' for Inactive)
REMARK    1  A    between atoms: C_2  and  C_3 
REMARK    2  A    between atoms: C_3  and  C_4 
REMARK    3  A    between atoms: C_4  and  N_5 
REMARK    4  A    between atoms: N_5  and  C_6 
REMARK    5  A    between atoms: N_5  and  C_10 
REMARK    6  A    between atoms: C_6  and  C_7 
REMARK    7  A    between atoms: C_7  and  C_8 
REMARK    8  A    between atoms: C_10  and  C_11 
REMARK    9  A    between atoms: C_11  and  C_12 
ROOT
HETATM    1  N   LIG     1      15.519  32.635  15.532  1.00  0.00     0.088 N 
ENDROOT
BRANCH   1   2
HETATM    2  C   LIG     1      14.760  31.371  15.341  1.00  0.00     0.272 C 
BRANCH   2   3
HETATM    3  C   LIG     1      15.521  30.462  14.372  1.00  0.00     0.030 C 
BRANCH   3   4
HETATM    4  C   LIG     1      14.698  29.217  14.016  1.00  0.00    -0.003 C 
HETATM    5  C   LIG     1      13.248  29.371  14.466  1.00  0.00     0.005 C 
ENDBRANCH   3   4
ENDBRANCH   2   3
ENDBRANCH   1   2
BRANCH   1   6
HETATM    6  C   LIG     1      15.233  33.257  16.847  1.00  0.00     0.272 C 
BRANCH   6   7
HETATM    7  C   LIG     1      14.623  32.232  17.820  1.00  0.00     0.030 C 
BRANCH   7   8
HETATM    8  C   LIG     1      15.211  32.337  19.236  1.00  0.00    -0.003 C 
HETATM    9  C   LIG     1      14.884  31.124  20.107  1.00  0.00     0.005 C 
ENDBRANCH   7   8
ENDBRANCH   6   7
ENDBRANCH   1   6
BRANCH   1  10
HETATM   10  C   LIG     1      16.978  32.435  15.355  1.00  0.00     0.272 C 
BRANCH  10  11
HETATM   11  C   LIG     1      17.619  33.647  14.658  1.00  0.00     0.030 C 
BRANCH  11  12
HETATM   12  C   LIG     1      17.779  33.442  13.142  1.00  0.00    -0.003 C 
HETATM   13  C   LIG     1      19.141  33.898  12.621  1.00  0.00     0.005 C 
ENDBRANCH  11  12
ENDBRANCH  10  11
ENDBRANCH   1  10
TORSDOF 9
ENDMDL
MODEL 12
REMARK VINA RESULT:      -4.6      7.031      9.153
REMARK  9 active torsions:
REMARK  status: ('A' for Active; 'I' for Inactive)
REMARK    1  A    between atoms: C_2  and  C_3 
REMARK    2  A    between atoms: C_3  and  C_4 
REMARK    3  A    between atoms: C_4  and  N_5 
REMARK    4  A    between atoms: N_5  and  C_6 
REMARK    5  A    between atoms: N_5  and  C_10 
REMARK    6  A    between atoms: C_6  and  C_7 
REMARK    7  A    between atoms: C_7  and  C_8 
REMARK    8  A    between atoms: C_10  and  C_11 
REMARK    9  A    between atoms: C_11  and  C_12 
ROOT
HETATM    1  N   LIG     1      16.260  32.212  15.511  1.00  0.00     0.088 N 
ENDROOT
BRANCH   1   2
HETATM    2  C   LIG     1      15.439  31.667  14.397  1.00  0.00     0.272 C 
BRANCH   2   3
HETATM    3  C   LIG     1      15.441  30.136  14.465  1.00  0.00     0.030 C 
BRANCH   3   4
HETATM    4  C   LIG     1      14.029  29.570  14.270  1.00  0.00    -0.003 C 
HETATM    5  C   LIG     1      13.039  30.217  15.235  1.00  0.00     0.005 C 
ENDBRANCH   3   4
ENDBRANCH   2   3
ENDBRANCH   1   2
BRANCH   1   6
HETATM    6  C   LIG     1      17.462  32.922  15.013  1.00  0.00     0.272 C 
BRANCH   6   7
HETATM    7  C   LIG     1      17.347  33.210  13.505  1.00  0.00     0.030 C 
BRANCH   7   8
HETATM    8  C   LIG     1      18.598  33.898  12.937  1.00  0.00    -0.003 C 
HETATM    9  C   LIG     1      19.177  33.172  11.722  1.00  0.00     0.005 C 
ENDBRANCH   7   8
ENDBRANCH   6   7
ENDBRANCH   1   6
BRANCH   1  10
HETATM   10  C   LIG     1      15.466  33.091  16.402  1.00  0.00     0.272 C 
BRANCH  10  11
HETATM   11  C   LIG     1      14.726  32.268  17.471  1.00  0.00     0.030 C 
BRANCH  11  12
HETATM   12  C   LIG     1      15.264  32.520  18.890  1.00  0.00    -0.003 C 
HETATM   13  C   LIG     1      14.882  31.416  19.875  1.00  0.00     0.005 C 
ENDBRANCH  11  12
ENDBRANCH  10  11
ENDBRANCH   1  10
TORSDOF 9
ENDMDL
MODEL 13
REMARK VINA RESULT:      -4.6      7.064     10.486
REMARK  9 active torsions:
REMARK  status: ('A' for Active; 'I' for Inactive)
REMARK    1  A    between atoms: C_2  and  C_3 
REMARK    2  A    between atoms: C_3  and  C_4 
REMARK    3  A    between atoms: C_4  and  N_5 
REMARK    4  A    between atoms: N_5  and  C_6 
REMARK    5  A    between atoms: N_5  and  C_10 
REMARK    6  A    between atoms: C_6  and  C_7 
REMARK    7  A    between atoms: C_7  and  C_8 
REMARK    8  A    between atoms: C_10  and  C_11 
REMARK    9  A    between atoms: C_11  and  C_12 
ROOT
HETATM    1  N   LIG     1      15.764  31.913  15.511  1.00  0.00     0.088 N 
ENDROOT
BRANCH   1   2
HETATM    2  C   LIG     1      15.284  32.939  16.475  1.00  0.00     0.272 C 
BRANCH   2   3
HETATM    3  C   LIG     1      14.528  32.252  17.616  1.00  0.00     0.030 C 
BRANCH   3   4
HETATM    4  C   LIG     1      15.243  32.453  18.957  1.00  0.00    -0.003 C 
HETATM    5  C   LIG     1      14.841  31.377  19.962  1.00  0.00     0.005 C 
ENDBRANCH   3   4
ENDBRANCH   2   3
ENDBRANCH   1   2
BRANCH   1   6
HETATM    6  C   LIG     1      14.739  30.874  15.256  1.00  0.00     0.272 C 
BRANCH   6   7
HETATM    7  C   LIG     1      15.039  30.111  13.953  1.00  0.00     0.030 C 
BRANCH   7   8
HETATM    8  C   LIG     1      14.439  28.696  13.944  1.00  0.00    -0.003 C 
HETATM    9  C   LIG     1      15.470  27.614  13.621  1.00  0.00     0.005 C 
ENDBRANCH   7   8
ENDBRANCH   6   7
ENDBRANCH   1   6
BRANCH   1  10
HETATM   10  C   LIG     1      16.217  32.522  14.237  1.00  0.00     0.272 C 
BRANCH  10  11
HETATM   11  C   LIG     1      17.564  33.243  14.421  1.00  0.00     0.030 C 
BRANCH  11  12
HETATM   12  C   LIG     1      18.059  33.912  13.127  1.00  0.00    -0.003 C 
HETATM   13  C   LIG     1      19.576  33.833  12.960  1.00  0.00     0.005 C 
ENDBRANCH  11  12
ENDBRANCH  10  11
ENDBRANCH   1  10
TORSDOF 9
ENDMDL
MODEL 14
REMARK VINA RESULT:      -4.5      6.942     10.053
REMARK  9 active torsions:
REMARK  status: ('A' for Active; 'I' for Inactive)
REMARK    1  A    between atoms: C_2  and  C_3 
REMARK    2  A    between atoms: C_3  and  C_4 
REMARK    3  A    between atoms: C_4  and  N_5 
REMARK    4  A    between atoms: N_5  and  C_6 
REMARK    5  A    between atoms: N_5  and  C_10 
REMARK    6  A    between atoms: C_6  and  C_7 
REMARK    7  A    between atoms: C_7  and  C_8 
REMARK    8  A    between atoms: C_10  and  C_11 
REMARK    9  A    between atoms: C_11  and  C_12 
ROOT
HETATM    1  N   LIG     1      16.293  32.773  14.730  1.00  0.00     0.088 N 
ENDROOT
BRANCH   1   2
HETATM    2  C   LIG     1      17.661  33.274  14.431  1.00  0.00     0.272 C 
BRANCH   2   3
HETATM    3  C   LIG     1      17.676  33.914  13.040  1.00  0.00     0.030 C 
BRANCH   3   4
HETATM    4  C   LIG     1      18.886  33.442  12.225  1.00  0.00    -0.003 C 
HETATM    5  C   LIG     1      19.172  34.391  11.065  1.00  0.00     0.005 C 
ENDBRANCH   3   4
ENDBRANCH   2   3
ENDBRANCH   1   2
BRANCH   1   6
HETATM    6  C   LIG     1      15.853  31.754  13.748  1.00  0.00     0.272 C 
BRANCH   6   7
HETATM    7  C   LIG     1      15.604  30.398  14.434  1.00  0.00     0.030 C 
BRANCH   7   8
HETATM    8  C   LIG     1      14.194  29.848  14.165  1.00  0.00    -0.003 C 
HETATM    9  C   LIG     1      13.190  30.226  15.254  1.00  0.00     0.005 C 
ENDBRANCH   7   8
ENDBRANCH   6   7
ENDBRANCH   1   6
BRANCH   1  10
HETATM   10  C   LIG     1      16.189  32.245  16.112  1.00  0.00     0.272 C 
BRANCH  10  11
HETATM   11  C   LIG     1      15.107  32.995  16.908  1.00  0.00     0.030 C 
BRANCH  11  12
HETATM   12  C   LIG     1      14.560  32.172  18.086  1.00  0.00    -0.003 C 
HETATM   13  C   LIG     1      15.373  32.355  19.367  1.00  0.00     0.005 C 
ENDBRANCH  11  12
ENDBRANCH  10  11
ENDBRANCH   1  10
TORSDOF 9
ENDMDL
MODEL 15
REMARK VINA RESULT:      -4.5      5.403      7.917
REMARK  9 active torsions:
REMARK  status: ('A' for Active; 'I' for Inactive)
REMARK    1  A    between atoms: C_2  and  C_3 
REMARK    2  A    between atoms: C_3  and  C_4 
REMARK    3  A    between atoms: C_4  and  N_5 
REMARK    4  A    between atoms: N_5  and  C_6 
REMARK    5  A    between atoms: N_5  and  C_10 
REMARK    6  A    between atoms: C_6  and  C_7 
REMARK    7  A    between atoms: C_7  and  C_8 
REMARK    8  A    between atoms: C_10  and  C_11 
REMARK    9  A    between atoms: C_11  and  C_12 
ROOT
HETATM    1  N   LIG     1      14.632  31.940  17.523  1.00  0.00     0.088 N 
ENDROOT
BRANCH   1   2
HETATM    2  C   LIG     1      13.308  31.814  16.859  1.00  0.00     0.272 C 
BRANCH   2   3
HETATM    3  C   LIG     1      13.083  30.357  16.443  1.00  0.00     0.030 C 
BRANCH   3   4
HETATM    4  C   LIG     1      13.191  30.191  14.923  1.00  0.00    -0.003 C 
HETATM    5  C   LIG     1      14.613  29.816  14.511  1.00  0.00     0.005 C 
ENDBRANCH   3   4
ENDBRANCH   2   3
ENDBRANCH   1   2
BRANCH   1   6
HETATM    6  C   LIG     1      15.348  33.165  17.098  1.00  0.00     0.272 C 
BRANCH   6   7
HETATM    7  C   LIG     1      15.724  33.095  15.606  1.00  0.00     0.030 C 
BRANCH   7   8
HETATM    8  C   LIG     1      17.102  32.457  15.372  1.00  0.00    -0.003 C 
HETATM    9  C   LIG     1      17.974  33.262  14.408  1.00  0.00     0.005 C 
ENDBRANCH   7   8
ENDBRANCH   6   7
ENDBRANCH   1   6
BRANCH   1  10
HETATM   10  C   LIG     1      14.514  31.890  19.001  1.00  0.00     0.272 C 
BRANCH  10  11
HETATM   11  C   LIG     1      15.733  32.547  19.672  1.00  0.00     0.030 C 
BRANCH  11  12
HETATM   12  C   LIG     1      15.336  33.630  20.690  1.00  0.00    -0.003 C 
HETATM   13  C   LIG     1      15.764  35.033  20.262  1.00  0.00     0.005 C 
ENDBRANCH  11  12
ENDBRANCH  10  11
ENDBRANCH   1  10
TORSDOF 9
ENDMDL
MODEL 16
REMARK VINA RESULT:      -4.1      1.339      4.648
REMARK  9 active torsions:
REMARK  status: ('A' for Active; 'I' for Inactive)
REMARK    1  A    between atoms: C_2  and  C_3 
REMARK    2  A    between atoms: C_3  and  C_4 
REMARK    3  A    between atoms: C_4  and  N_5 
REMARK    4  A    between atoms: N_5  and  C_6 
REMARK    5  A    between atoms: N_5  and  C_10 
REMARK    6  A    between atoms: C_6  and  C_7 
REMARK    7  A    between atoms: C_7  and  C_8 
REMARK    8  A    between atoms: C_10  and  C_11 
REMARK    9  A    between atoms: C_11  and  C_12 
ROOT
HETATM    1  N   LIG     1      16.589  36.009  22.553  1.00  0.00     0.088 N 
ENDROOT
BRANCH   1   2
HETATM    2  C   LIG     1      17.350  35.553  23.746  1.00  0.00     0.272 C 
BRANCH   2   3
HETATM    3  C   LIG     1      17.149  36.552  24.890  1.00  0.00     0.030 C 
BRANCH   3   4
HETATM    4  C   LIG     1      18.158  36.313  26.019  1.00  0.00    -0.003 C 
HETATM    5  C   LIG     1      18.317  34.822  26.309  1.00  0.00     0.005 C 
ENDBRANCH   3   4
ENDBRANCH   2   3
ENDBRANCH   1   2
BRANCH   1   6
HETATM    6  C   LIG     1      17.471  36.639  21.543  1.00  0.00     0.272 C 
BRANCH   6   7
HETATM    7  C   LIG     1      18.158  37.893  22.117  1.00  0.00     0.030 C 
BRANCH   7   8
HETATM    8  C   LIG     1      17.341  39.174  21.886  1.00  0.00    -0.003 C 
HETATM    9  C   LIG     1      16.004  39.169  22.628  1.00  0.00     0.005 C 
ENDBRANCH   7   8
ENDBRANCH   6   7
ENDBRANCH   1   6
BRANCH   1  10
HETATM   10  C   LIG     1      15.805  34.907  21.945  1.00  0.00     0.272 C 
BRANCH  10  11
HETATM   11  C   LIG     1      15.328  35.284  20.532  1.00  0.00     0.030 C 
BRANCH  11  12
HETATM   12  C   LIG     1      15.571  34.165  19.506  1.00  0.00    -0.003 C 
HETATM   13  C   LIG     1      15.297  32.771  20.070  1.00  0.00     0.005 C 
ENDBRANCH  11  12
ENDBRANCH  10  11
ENDBRANCH   1  10
TORSDOF 9
ENDMDL
MODEL 17
REMARK VINA RESULT:      -3.6     15.039     16.549
REMARK  9 active torsions:
REMARK  status: ('A' for Active; 'I' for Inactive)
REMARK    1  A    between atoms: C_2  and  C_3 
REMARK    2  A    between atoms: C_3  and  C_4 
REMARK    3  A    between atoms: C_4  and  N_5 
REMARK    4  A    between atoms: N_5  and  C_6 
REMARK    5  A    between atoms: N_5  and  C_10 
REMARK    6  A    between atoms: C_6  and  C_7 
REMARK    7  A    between atoms: C_7  and  C_8 
REMARK    8  A    between atoms: C_10  and  C_11 
REMARK    9  A    between atoms: C_11  and  C_12 
ROOT
HETATM    1  N   LIG     1      25.650  22.558  20.473  1.00  0.00     0.088 N 
ENDROOT
BRANCH   1   2
HETATM    2  C   LIG     1      25.455  22.089  21.870  1.00  0.00     0.272 C 
BRANCH   2   3
HETATM    3  C   LIG     1      24.159  22.683  22.430  1.00  0.00     0.030 C 
BRANCH   3   4
HETATM    4  C   LIG     1      22.929  21.963  21.864  1.00  0.00    -0.003 C 
HETATM    5  C   LIG     1      21.917  22.961  21.306  1.00  0.00     0.005 C 
ENDBRANCH   3   4
ENDBRANCH   2   3
ENDBRANCH   1   2
BRANCH   1   6
HETATM    6  C   LIG     1      26.664  23.636  20.390  1.00  0.00     0.272 C 
BRANCH   6   7
HETATM    7  C   LIG     1      26.028  24.954  19.911  1.00  0.00     0.030 C 
BRANCH   7   8
HETATM    8  C   LIG     1      26.852  25.643  18.811  1.00  0.00    -0.003 C 
HETATM    9  C   LIG     1      27.490  24.652  17.837  1.00  0.00     0.005 C 
ENDBRANCH   7   8
ENDBRANCH   6   7
ENDBRANCH   1   6
BRANCH   1  10
HETATM   10  C   LIG     1      25.999  21.442  19.561  1.00  0.00     0.272 C 
BRANCH  10  11
HETATM   11  C   LIG     1      25.397  21.665  18.162  1.00  0.00     0.030 C 
BRANCH  11  12
HETATM   12  C   LIG     1      23.933  22.133  18.216  1.00  0.00    -0.003 C 
HETATM   13  C   LIG     1      22.939  20.973  18.239  1.00  0.00     0.005 C 
ENDBRANCH  11  12
ENDBRANCH  10  11
ENDBRANCH   1  10
TORSDOF 9
ENDMDL
MODEL 18
REMARK VINA RESULT:      -3.3     16.083     16.989
REMARK  9 active torsions:
REMARK  status: ('A' for Active; 'I' for Inactive)
REMARK    1  A    between atoms: C_2  and  C_3 
REMARK    2  A    between atoms: C_3  and  C_4 
REMARK    3  A    between atoms: C_4  and  N_5 
REMARK    4  A    between atoms: N_5  and  C_6 
REMARK    5  A    between atoms: N_5  and  C_10 
REMARK    6  A    between atoms: C_6  and  C_7 
REMARK    7  A    between atoms: C_7  and  C_8 
REMARK    8  A    between atoms: C_10  and  C_11 
REMARK    9  A    between atoms: C_11  and  C_12 
ROOT
HETATM    1  N   LIG     1      27.418  29.241  35.409  1.00  0.00     0.088 N 
ENDROOT
BRANCH   1   2
HETATM    2  C   LIG     1      27.156  27.917  34.785  1.00  0.00     0.272 C 
BRANCH   2   3
HETATM    3  C   LIG     1      26.395  28.116  33.470  1.00  0.00     0.030 C 
BRANCH   3   4
HETATM    4  C   LIG     1      26.495  26.873  32.578  1.00  0.00    -0.003 C 
HETATM    5  C   LIG     1      27.040  27.230  31.197  1.00  0.00     0.005 C 
ENDBRANCH   3   4
ENDBRANCH   2   3
ENDBRANCH   1   2
BRANCH   1   6
HETATM    6  C   LIG     1      27.322  30.344  34.424  1.00  0.00     0.272 C 
BRANCH   6   7
HETATM    7  C   LIG     1      28.720  30.863  34.039  1.00  0.00     0.030 C 
BRANCH   7   8
HETATM    8  C   LIG     1      28.684  31.831  32.846  1.00  0.00    -0.003 C 
HETATM    9  C   LIG     1      29.658  31.441  31.734  1.00  0.00     0.005 C 
ENDBRANCH   7   8
ENDBRANCH   6   7
ENDBRANCH   1   6
BRANCH   1  10
HETATM   10  C   LIG     1      26.524  29.493  36.564  1.00  0.00     0.272 C 
BRANCH  10  11
HETATM   11  C   LIG     1      25.934  30.913  36.505  1.00  0.00     0.030 C 
BRANCH  11  12
HETATM   12  C   LIG     1      26.262  31.743  37.757  1.00  0.00    -0.003 C 
HETATM   13  C   LIG     1      27.731  32.158  37.828  1.00  0.00     0.005 C 
ENDBRANCH  11  12
ENDBRANCH  10  11
ENDBRANCH   1  10
TORSDOF 9
ENDMDL
MODEL 19
REMARK VINA RESULT:      -3.3     16.359     17.739
REMARK  9 active torsions:
REMARK  status: ('A' for Active; 'I' for Inactive)
REMARK    1  A    between atoms: C_2  and  C_3 
REMARK    2  A    between atoms: C_3  and  C_4 
REMARK    3  A    between atoms: C_4  and  N_5 
REMARK    4  A    between atoms: N_5  and  C_6 
REMARK    5  A    between atoms: N_5  and  C_10 
REMARK    6  A    between atoms: C_6  and  C_7 
REMARK    7  A    between atoms: C_7  and  C_8 
REMARK    8  A    between atoms: C_10  and  C_11 
REMARK    9  A    between atoms: C_11  and  C_12 
ROOT
HETATM    1  N   LIG     1      27.719  29.372  35.275  1.00  0.00     0.088 N 
ENDROOT
BRANCH   1   2
HETATM    2  C   LIG     1      27.534  29.700  36.713  1.00  0.00     0.272 C 
BRANCH   2   3
HETATM    3  C   LIG     1      26.121  30.247  36.933  1.00  0.00     0.030 C 
BRANCH   3   4
HETATM    4  C   LIG     1      26.148  31.538  37.760  1.00  0.00    -0.003 C 
HETATM    5  C   LIG     1      27.562  32.106  37.846  1.00  0.00     0.005 C 
ENDBRANCH   3   4
ENDBRANCH   2   3
ENDBRANCH   1   2
BRANCH   1   6
HETATM    6  C   LIG     1      27.158  28.042  34.936  1.00  0.00     0.272 C 
BRANCH   6   7
HETATM    7  C   LIG     1      26.374  28.095  33.613  1.00  0.00     0.030 C 
BRANCH   7   8
HETATM    8  C   LIG     1      26.579  26.839  32.752  1.00  0.00    -0.003 C 
HETATM    9  C   LIG     1      26.992  27.163  31.316  1.00  0.00     0.005 C 
ENDBRANCH   7   8
ENDBRANCH   6   7
ENDBRANCH   1   6
BRANCH   1  10
HETATM   10  C   LIG     1      27.149  30.418  34.392  1.00  0.00     0.272 C 
BRANCH  10  11
HETATM   11  C   LIG     1      28.255  31.336  33.841  1.00  0.00     0.030 C 
BRANCH  11  12
HETATM   12  C   LIG     1      29.525  30.563  33.447  1.00  0.00    -0.003 C 
HETATM   13  C   LIG     1      29.429  29.931  32.059  1.00  0.00     0.005 C 
ENDBRANCH  11  12
ENDBRANCH  10  11
ENDBRANCH   1  10
TORSDOF 9
ENDMDL
