MODEL 1
REMARK VINA RESULT:      -9.1      0.000      0.000
REMARK  2 active torsions:
REMARK  status: ('A' for Active; 'I' for Inactive)
REMARK       I    between atoms: C_2  and  N_3 
REMARK       I    between atoms: C_2  and  N_10 
REMARK    1  A    between atoms: N_3  and  C_4 
REMARK    2  A    between atoms: N_10  and  C_11 
ROOT
HETATM    1  O   LIG     1      16.067  39.135  22.459  1.00  0.00    -0.247 OA
HETATM    2  C   LIG     1      16.955  38.504  23.092  1.00  0.00     0.325 C 
HETATM    3  N   LIG     1      16.771  38.271  24.496  1.00  0.00    -0.309 N 
HETATM    4  N   LIG     1      18.143  38.045  22.419  1.00  0.00    -0.309 N 
HETATM    5  H   LIG     1      16.214  38.972  25.034  1.00  0.00     0.170 HD
HETATM    6  H   LIG     1      18.837  37.483  22.959  1.00  0.00     0.170 HD
ENDROOT
BRANCH   3   7
HETATM    7  C   LIG     1      17.283  37.126  25.198  1.00  0.00     0.036 A 
HETATM    8  C   LIG     1      18.150  37.269  26.296  1.00  0.00     0.029 A 
HETATM    9  C   LIG     1      18.660  36.140  26.943  1.00  0.00     0.002 A 
HETATM   10  C   LIG     1      18.322  34.861  26.492  1.00  0.00     0.000 A 
HETATM   11  C   LIG     1      17.480  34.711  25.387  1.00  0.00     0.002 A 
HETATM   12  C   LIG     1      16.969  35.838  24.737  1.00  0.00     0.029 A 
ENDBRANCH   3   7
BRANCH   4  13
HETATM   13  C   LIG     1      18.396  38.230  21.017  1.00  0.00     0.036 A 
HETATM   14  C   LIG     1      18.741  39.488  20.489  1.00  0.00     0.029 A 
HETATM   15  C   LIG     1      19.007  39.632  19.124  1.00  0.00     0.002 A 
HETATM   16  C   LIG     1      18.945  38.522  18.277  1.00  0.00     0.000 A 
HETATM   17  C   LIG     1      18.628  37.264  18.796  1.00  0.00     0.002 A 
HETATM   18  C   LIG     1      18.362  37.116  20.162  1.00  0.00     0.029 A 
ENDBRANCH   4  13
TORSDOF 2
ENDMDL
MODEL 2
REMARK VINA RESULT:      -7.6      6.099      7.281
REMARK  2 active torsions:
REMARK  status: ('A' for Active; 'I' for Inactive)
REMARK       I    between atoms: C_2  and  N_3 
REMARK       I    between atoms: C_2  and  N_10 
REMARK    1  A    between atoms: N_3  and  C_4 
REMARK    2  A    between atoms: N_10  and  C_11 
ROOT
HETATM    1  O   LIG     1      14.602  31.054  19.790  1.00  0.00    -0.247 OA
HETATM    2  C   LIG     1      14.686  32.310  19.739  1.00  0.00     0.325 C 
HETATM    3  N   LIG     1      14.633  33.058  20.963  1.00  0.00    -0.309 N 
HETATM    4  N   LIG     1      14.809  32.982  18.472  1.00  0.00    -0.309 N 
HETATM    5  H   LIG     1      14.087  32.651  21.756  1.00  0.00     0.170 HD
HETATM    6  H   LIG     1      14.924  34.020  18.466  1.00  0.00     0.170 HD
ENDROOT
BRANCH   3   7
HETATM    7  C   LIG     1      15.302  34.313  21.172  1.00  0.00     0.036 A 
HETATM    8  C   LIG     1      16.704  34.411  21.123  1.00  0.00     0.029 A 
HETATM    9  C   LIG     1      17.333  35.637  21.359  1.00  0.00     0.002 A 
HETATM   10  C   LIG     1      16.571  36.769  21.662  1.00  0.00     0.000 A 
HETATM   11  C   LIG     1      15.180  36.674  21.736  1.00  0.00     0.002 A 
HETATM   12  C   LIG     1      14.547  35.449  21.500  1.00  0.00     0.029 A 
ENDBRANCH   3   7
BRANCH   4  13
HETATM   13  C   LIG     1      14.878  32.306  17.206  1.00  0.00     0.036 A 
HETATM   14  C   LIG     1      13.915  31.353  16.825  1.00  0.00     0.029 A 
HETATM   15  C   LIG     1      13.994  30.731  15.576  1.00  0.00     0.002 A 
HETATM   16  C   LIG     1      15.024  31.062  14.692  1.00  0.00     0.000 A 
HETATM   17  C   LIG     1      15.970  32.024  15.051  1.00  0.00     0.002 A 
HETATM   18  C   LIG     1      15.894  32.651  16.300  1.00  0.00     0.029 A 
ENDBRANCH   4  13
TORSDOF 2
ENDMDL
MODEL 3
REMARK VINA RESULT:      -7.5      4.087      6.175
REMARK  2 active torsions:
REMARK  status: ('A' for Active; 'I' for Inactive)
REMARK       I    between atoms: C_2  and  N_3 
REMARK       I    between atoms: C_2  and  N_10 
REMARK    1  A    between atoms: N_3  and  C_4 
REMARK    2  A    between atoms: N_10  and  C_11 
ROOT
HETATM    1  O   LIG     1      15.543  34.550  21.892  1.00  0.00    -0.247 OA
HETATM    2  C   LIG     1      16.022  35.399  21.094  1.00  0.00     0.325 C 
HETATM    3  N   LIG     1      16.573  36.613  21.625  1.00  0.00    -0.309 N 
HETATM    4  N   LIG     1      15.993  35.163  19.674  1.00  0.00    -0.309 N 
HETATM    5  H   LIG     1      16.174  36.976  22.520  1.00  0.00     0.170 HD
HETATM    6  H   LIG     1      16.440  35.863  19.043  1.00  0.00     0.170 HD
ENDROOT
BRANCH   3   7
HETATM    7  C   LIG     1      17.651  37.343  21.016  1.00  0.00     0.036 A 
HETATM    8  C   LIG     1      18.504  36.739  20.075  1.00  0.00     0.029 A 
HETATM    9  C   LIG     1      19.564  37.460  19.519  1.00  0.00     0.002 A 
HETATM   10  C   LIG     1      19.793  38.783  19.909  1.00  0.00     0.000 A 
HETATM   11  C   LIG     1      18.966  39.382  20.862  1.00  0.00     0.002 A 
HETATM   12  C   LIG     1      17.904  38.663  21.420  1.00  0.00     0.029 A 
ENDBRANCH   3   7
BRANCH   4  13
HETATM   13  C   LIG     1      15.468  33.971  19.067  1.00  0.00     0.036 A 
HETATM   14  C   LIG     1      15.278  32.789  19.807  1.00  0.00     0.029 A 
HETATM   15  C   LIG     1      14.740  31.653  19.196  1.00  0.00     0.002 A 
HETATM   16  C   LIG     1      14.376  31.689  17.847  1.00  0.00     0.000 A 
HETATM   17  C   LIG     1      14.539  32.865  17.111  1.00  0.00     0.002 A 
HETATM   18  C   LIG     1      15.075  34.004  17.720  1.00  0.00     0.029 A 
ENDBRANCH   4  13
TORSDOF 2
ENDMDL
MODEL 4
REMARK VINA RESULT:      -7.5      4.091      6.061
REMARK  2 active torsions:
REMARK  status: ('A' for Active; 'I' for Inactive)
REMARK       I    between atoms: C_2  and  N_3 
REMARK       I    between atoms: C_2  and  N_10 
REMARK    1  A    between atoms: N_3  and  C_4 
REMARK    2  A    between atoms: N_10  and  C_11 
ROOT
HETATM    1  O   LIG     1      15.456  34.516  21.900  1.00  0.00    -0.247 OA
HETATM    2  C   LIG     1      15.961  35.374  21.128  1.00  0.00     0.325 C 
HETATM    3  N   LIG     1      16.506  36.576  21.692  1.00  0.00    -0.309 N 
HETATM    4  N   LIG     1      15.970  35.158  19.705  1.00  0.00    -0.309 N 
HETATM    5  H   LIG     1      16.084  36.928  22.581  1.00  0.00     0.170 HD
HETATM    6  H   LIG     1      16.439  35.865  19.096  1.00  0.00     0.170 HD
ENDROOT
BRANCH   3   7
HETATM    7  C   LIG     1      17.605  37.308  21.124  1.00  0.00     0.036 A 
HETATM    8  C   LIG     1      17.866  38.639  21.494  1.00  0.00     0.029 A 
HETATM    9  C   LIG     1      18.922  39.340  20.905  1.00  0.00     0.002 A 
HETATM   10  C   LIG     1      19.715  38.725  19.932  1.00  0.00     0.000 A 
HETATM   11  C   LIG     1      19.447  37.412  19.541  1.00  0.00     0.002 A 
HETATM   12  C   LIG     1      18.391  36.707  20.128  1.00  0.00     0.029 A 
ENDBRANCH   3   7
BRANCH   4  13
HETATM   13  C   LIG     1      15.455  33.979  19.066  1.00  0.00     0.036 A 
HETATM   14  C   LIG     1      15.266  32.779  19.776  1.00  0.00     0.029 A 
HETATM   15  C   LIG     1      14.737  31.655  19.135  1.00  0.00     0.002 A 
HETATM   16  C   LIG     1      14.381  31.721  17.785  1.00  0.00     0.000 A 
HETATM   17  C   LIG     1      14.542  32.915  17.079  1.00  0.00     0.002 A 
HETATM   18  C   LIG     1      15.069  34.043  17.717  1.00  0.00     0.029 A 
ENDBRANCH   4  13
TORSDOF 2
ENDMDL
MODEL 5
REMARK VINA RESULT:      -7.5      9.065     10.435
REMARK  2 active torsions:
REMARK  status: ('A' for Active; 'I' for Inactive)
REMARK       I    between atoms: C_2  and  N_3 
REMARK       I    between atoms: C_2  and  N_10 
REMARK    1  A    between atoms: N_3  and  C_4 
REMARK    2  A    between atoms: N_10  and  C_11 
ROOT
HETATM    1  O   LIG     1      17.510  35.411  14.795  1.00  0.00    -0.247 OA
HETATM    2  C   LIG     1      17.328  34.165  14.746  1.00  0.00     0.325 C 
HETATM    3  N   LIG     1      16.436  33.559  15.692  1.00  0.00    -0.309 N 
HETATM    4  N   LIG     1      18.023  33.364  13.772  1.00  0.00    -0.309 N 
HETATM    5  H   LIG     1      16.338  34.016  16.627  1.00  0.00     0.170 HD
HETATM    6  H   LIG     1      17.815  32.343  13.725  1.00  0.00     0.170 HD
ENDROOT
BRANCH   3   7
HETATM    7  C   LIG     1      15.657  32.381  15.426  1.00  0.00     0.036 A 
HETATM    8  C   LIG     1      15.836  31.637  14.246  1.00  0.00     0.029 A 
HETATM    9  C   LIG     1      15.045  30.512  13.995  1.00  0.00     0.002 A 
HETATM   10  C   LIG     1      14.059  30.130  14.910  1.00  0.00     0.000 A 
HETATM   11  C   LIG     1      13.859  30.878  16.072  1.00  0.00     0.002 A 
HETATM   12  C   LIG     1      14.649  32.004  16.327  1.00  0.00     0.029 A 
ENDBRANCH   3   7
BRANCH   4  13
HETATM   13  C   LIG     1      18.922  33.897  12.786  1.00  0.00     0.036 A 
HETATM   14  C   LIG     1      20.318  33.868  12.969  1.00  0.00     0.029 A 
HETATM   15  C   LIG     1      21.169  34.370  11.980  1.00  0.00     0.002 A 
HETATM   16  C   LIG     1      20.639  34.892  10.797  1.00  0.00     0.000 A 
HETATM   17  C   LIG     1      19.257  34.902  10.597  1.00  0.00     0.002 A 
HETATM   18  C   LIG     1      18.401  34.400  11.583  1.00  0.00     0.029 A 
ENDBRANCH   4  13
TORSDOF 2
ENDMDL
MODEL 6
REMARK VINA RESULT:      -7.2      3.744      6.395
REMARK  2 active torsions:
REMARK  status: ('A' for Active; 'I' for Inactive)
REMARK       I    between atoms: C_2  and  N_3 
REMARK       I    between atoms: C_2  and  N_10 
REMARK    1  A    between atoms: N_3  and  C_4 
REMARK    2  A    between atoms: N_10  and  C_11 
ROOT
HETATM    1  O   LIG     1      17.953  36.763  20.851  1.00  0.00    -0.247 OA
HETATM    2  C   LIG     1      16.966  35.979  20.847  1.00  0.00     0.325 C 
HETATM    3  N   LIG     1      16.416  35.566  19.588  1.00  0.00    -0.309 N 
HETATM    4  N   LIG     1      16.388  35.528  22.086  1.00  0.00    -0.309 N 
HETATM    5  H   LIG     1      16.500  36.226  18.782  1.00  0.00     0.170 HD
HETATM    6  H   LIG     1      15.602  34.842  22.050  1.00  0.00     0.170 HD
ENDROOT
BRANCH   3   7
HETATM    7  C   LIG     1      15.781  34.296  19.362  1.00  0.00     0.036 A 
HETATM    8  C   LIG     1      15.606  33.370  20.407  1.00  0.00     0.029 A 
HETATM    9  C   LIG     1      15.013  32.130  20.157  1.00  0.00     0.002 A 
HETATM   10  C   LIG     1      14.605  31.796  18.863  1.00  0.00     0.000 A 
HETATM   11  C   LIG     1      14.796  32.700  17.816  1.00  0.00     0.002 A 
HETATM   12  C   LIG     1      15.389  33.943  18.062  1.00  0.00     0.029 A 
ENDBRANCH   3   7
BRANCH   4  13
HETATM   13  C   LIG     1      16.886  35.888  23.384  1.00  0.00     0.036 A 
HETATM   14  C   LIG     1      16.935  37.229  23.810  1.00  0.00     0.029 A 
HETATM   15  C   LIG     1      17.400  37.547  25.089  1.00  0.00     0.002 A 
HETATM   16  C   LIG     1      17.807  36.533  25.959  1.00  0.00     0.000 A 
HETATM   17  C   LIG     1      17.740  35.197  25.555  1.00  0.00     0.002 A 
HETATM   18  C   LIG     1      17.274  34.875  24.276  1.00  0.00     0.029 A 
ENDBRANCH   4  13
TORSDOF 2
ENDMDL
MODEL 7
REMARK VINA RESULT:      -7.1      1.025      6.272
REMARK  2 active torsions:
REMARK  status: ('A' for Active; 'I' for Inactive)
REMARK       I    between atoms: C_2  and  N_3 
REMARK       I    between atoms: C_2  and  N_10 
REMARK    1  A    between atoms: N_3  and  C_4 
REMARK    2  A    between atoms: N_10  and  C_11 
ROOT
HETATM    1  O   LIG     1      16.812  39.046  24.251  1.00  0.00    -0.247 OA
HETATM    2  C   LIG     1      17.210  38.358  23.274  1.00  0.00     0.325 C 
HETATM    3  N   LIG     1      17.193  38.942  21.963  1.00  0.00    -0.309 N 
HETATM    4  N   LIG     1      17.652  37.001  23.469  1.00  0.00    -0.309 N 
HETATM    5  H   LIG     1      16.469  39.670  21.767  1.00  0.00     0.170 HD
HETATM    6  H   LIG     1      18.021  36.474  22.647  1.00  0.00     0.170 HD
ENDROOT
BRANCH   3   7
HETATM    7  C   LIG     1      18.120  38.607  20.918  1.00  0.00     0.036 A 
HETATM    8  C   LIG     1      18.158  37.316  20.360  1.00  0.00     0.029 A 
HETATM    9  C   LIG     1      19.089  37.005  19.365  1.00  0.00     0.002 A 
HETATM   10  C   LIG     1      20.001  37.972  18.931  1.00  0.00     0.000 A 
HETATM   11  C   LIG     1      19.986  39.248  19.498  1.00  0.00     0.002 A 
HETATM   12  C   LIG     1      19.055  39.563  20.493  1.00  0.00     0.029 A 
ENDBRANCH   3   7
BRANCH   4  13
HETATM   13  C   LIG     1      17.708  36.350  24.748  1.00  0.00     0.036 A 
HETATM   14  C   LIG     1      17.071  35.115  24.975  1.00  0.00     0.029 A 
HETATM   15  C   LIG     1      17.166  34.492  26.223  1.00  0.00     0.002 A 
HETATM   16  C   LIG     1      17.906  35.086  27.249  1.00  0.00     0.000 A 
HETATM   17  C   LIG     1      18.562  36.298  27.025  1.00  0.00     0.002 A 
HETATM   18  C   LIG     1      18.471  36.925  25.777  1.00  0.00     0.029 A 
ENDBRANCH   4  13
TORSDOF 2
ENDMDL
MODEL 8
REMARK VINA RESULT:      -7.1      3.141      4.045
REMARK  2 active torsions:
REMARK  status: ('A' for Active; 'I' for Inactive)
REMARK       I    between atoms: C_2  and  N_3 
REMARK       I    between atoms: C_2  and  N_10 
REMARK    1  A    between atoms: N_3  and  C_4 
REMARK    2  A    between atoms: N_10  and  C_11 
ROOT
HETATM    1  O   LIG     1      14.656  36.800  21.713  1.00  0.00    -0.247 OA
HETATM    2  C   LIG     1      15.749  36.446  22.231  1.00  0.00     0.325 C 
HETATM    3  N   LIG     1      16.257  37.190  23.348  1.00  0.00    -0.309 N 
HETATM    4  N   LIG     1      16.482  35.329  21.695  1.00  0.00    -0.309 N 
HETATM    5  H   LIG     1      16.011  38.204  23.408  1.00  0.00     0.170 HD
HETATM    6  H   LIG     1      17.359  35.031  22.176  1.00  0.00     0.170 HD
ENDROOT
BRANCH   3   7
HETATM    7  C   LIG     1      17.061  36.623  24.396  1.00  0.00     0.036 A 
HETATM    8  C   LIG     1      17.008  35.250  24.698  1.00  0.00     0.029 A 
HETATM    9  C   LIG     1      17.776  34.728  25.741  1.00  0.00     0.002 A 
HETATM   10  C   LIG     1      18.591  35.571  26.502  1.00  0.00     0.000 A 
HETATM   11  C   LIG     1      18.631  36.939  26.224  1.00  0.00     0.002 A 
HETATM   12  C   LIG     1      17.864  37.465  25.181  1.00  0.00     0.029 A 
ENDBRANCH   3   7
BRANCH   4  13
HETATM   13  C   LIG     1      16.036  34.530  20.588  1.00  0.00     0.036 A 
HETATM   14  C   LIG     1      15.670  33.181  20.753  1.00  0.00     0.029 A 
HETATM   15  C   LIG     1      15.213  32.435  19.662  1.00  0.00     0.002 A 
HETATM   16  C   LIG     1      15.104  33.031  18.403  1.00  0.00     0.000 A 
HETATM   17  C   LIG     1      15.442  34.375  18.235  1.00  0.00     0.002 A 
HETATM   18  C   LIG     1      15.898  35.125  19.324  1.00  0.00     0.029 A 
ENDBRANCH   4  13
TORSDOF 2
ENDMDL
MODEL 9
REMARK VINA RESULT:      -7.0      6.036      7.362
REMARK  2 active torsions:
REMARK  status: ('A' for Active; 'I' for Inactive)
REMARK       I    between atoms: C_2  and  N_3 
REMARK       I    between atoms: C_2  and  N_10 
REMARK    1  A    between atoms: N_3  and  C_4 
REMARK    2  A    between atoms: N_10  and  C_11 
ROOT
HETATM    1  O   LIG     1      14.606  31.168  19.417  1.00  0.00    -0.247 OA
HETATM    2  C   LIG     1      14.874  32.398  19.359  1.00  0.00     0.325 C 
HETATM    3  N   LIG     1      14.900  33.158  20.576  1.00  0.00    -0.309 N 
HETATM    4  N   LIG     1      15.128  33.030  18.091  1.00  0.00    -0.309 N 
HETATM    5  H   LIG     1      14.280  32.845  21.356  1.00  0.00     0.170 HD
HETATM    6  H   LIG     1      15.394  34.039  18.081  1.00  0.00     0.170 HD
ENDROOT
BRANCH   3   7
HETATM    7  C   LIG     1      15.740  34.304  20.794  1.00  0.00     0.036 A 
HETATM    8  C   LIG     1      16.058  35.187  19.746  1.00  0.00     0.029 A 
HETATM    9  C   LIG     1      16.902  36.278  19.976  1.00  0.00     0.002 A 
HETATM   10  C   LIG     1      17.447  36.487  21.246  1.00  0.00     0.000 A 
HETATM   11  C   LIG     1      17.154  35.601  22.285  1.00  0.00     0.002 A 
HETATM   12  C   LIG     1      16.311  34.509  22.059  1.00  0.00     0.029 A 
ENDBRANCH   3   7
BRANCH   4  13
HETATM   13  C   LIG     1      15.130  32.337  16.832  1.00  0.00     0.036 A 
HETATM   14  C   LIG     1      16.170  32.507  15.899  1.00  0.00     0.029 A 
HETATM   15  C   LIG     1      16.160  31.798  14.694  1.00  0.00     0.002 A 
HETATM   16  C   LIG     1      15.121  30.906  14.415  1.00  0.00     0.000 A 
HETATM   17  C   LIG     1      14.098  30.712  15.346  1.00  0.00     0.002 A 
HETATM   18  C   LIG     1      14.106  31.418  16.553  1.00  0.00     0.029 A 
ENDBRANCH   4  13
TORSDOF 2
ENDMDL
MODEL 10
REMARK VINA RESULT:      -6.8      1.641      2.237
REMARK  2 active torsions:
REMARK  status: ('A' for Active; 'I' for Inactive)
REMARK       I    between atoms: C_2  and  N_3 
REMARK       I    between atoms: C_2  and  N_10 
REMARK    1  A    between atoms: N_3  and  C_4 
REMARK    2  A    between atoms: N_10  and  C_11 
ROOT
HETATM    1  O   LIG     1      17.181  35.854  20.333  1.00  0.00    -0.247 OA
HETATM    2  C   LIG     1      17.308  36.453  21.434  1.00  0.00     0.325 C 
HETATM    3  N   LIG     1      16.660  35.911  22.595  1.00  0.00    -0.309 N 
HETATM    4  N   LIG     1      18.072  37.670  21.519  1.00  0.00    -0.309 N 
HETATM    5  H   LIG     1      15.778  35.370  22.449  1.00  0.00     0.170 HD
HETATM    6  H   LIG     1      18.199  38.116  22.454  1.00  0.00     0.170 HD
ENDROOT
BRANCH   3   7
HETATM    7  C   LIG     1      17.160  36.048  23.935  1.00  0.00     0.036 A 
HETATM    8  C   LIG     1      17.450  34.921  24.726  1.00  0.00     0.029 A 
HETATM    9  C   LIG     1      17.907  35.079  26.037  1.00  0.00     0.002 A 
HETATM   10  C   LIG     1      18.062  36.359  26.576  1.00  0.00     0.000 A 
HETATM   11  C   LIG     1      17.753  37.482  25.806  1.00  0.00     0.002 A 
HETATM   12  C   LIG     1      17.296  37.328  24.493  1.00  0.00     0.029 A 
ENDBRANCH   3   7
BRANCH   4  13
HETATM   13  C   LIG     1      18.757  38.269  20.407  1.00  0.00     0.036 A 
HETATM   14  C   LIG     1      20.145  38.116  20.228  1.00  0.00     0.029 A 
HETATM   15  C   LIG     1      20.781  38.688  19.121  1.00  0.00     0.002 A 
HETATM   16  C   LIG     1      20.037  39.403  18.179  1.00  0.00     0.000 A 
HETATM   17  C   LIG     1      18.656  39.539  18.335  1.00  0.00     0.002 A 
HETATM   18  C   LIG     1      18.016  38.967  19.440  1.00  0.00     0.029 A 
ENDBRANCH   4  13
TORSDOF 2
ENDMDL
MODEL 11
REMARK VINA RESULT:      -6.7      5.217      6.588
REMARK  2 active torsions:
REMARK  status: ('A' for Active; 'I' for Inactive)
REMARK       I    between atoms: C_2  and  N_3 
REMARK       I    between atoms: C_2  and  N_10 
REMARK    1  A    between atoms: N_3  and  C_4 
REMARK    2  A    between atoms: N_10  and  C_11 
ROOT
HETATM    1  O   LIG     1      15.065  32.118  20.300  1.00  0.00    -0.247 OA
HETATM    2  C   LIG     1      15.258  33.349  20.113  1.00  0.00     0.325 C 
HETATM    3  N   LIG     1      15.429  34.203  21.253  1.00  0.00    -0.309 N 
HETATM    4  N   LIG     1      15.284  33.889  18.779  1.00  0.00    -0.309 N 
HETATM    5  H   LIG     1      14.950  33.928  22.141  1.00  0.00     0.170 HD
HETATM    6  H   LIG     1      15.494  34.903  18.655  1.00  0.00     0.170 HD
ENDROOT
BRANCH   3   7
HETATM    7  C   LIG     1      16.232  35.395  21.256  1.00  0.00     0.036 A 
HETATM    8  C   LIG     1      15.942  36.471  22.114  1.00  0.00     0.029 A 
HETATM    9  C   LIG     1      16.719  37.632  22.077  1.00  0.00     0.002 A 
HETATM   10  C   LIG     1      17.781  37.736  21.173  1.00  0.00     0.000 A 
HETATM   11  C   LIG     1      18.060  36.682  20.301  1.00  0.00     0.002 A 
HETATM   12  C   LIG     1      17.284  35.519  20.336  1.00  0.00     0.029 A 
ENDBRANCH   3   7
BRANCH   4  13
HETATM   13  C   LIG     1      15.132  33.099  17.589  1.00  0.00     0.036 A 
HETATM   14  C   LIG     1      15.988  33.258  16.483  1.00  0.00     0.029 A 
HETATM   15  C   LIG     1      15.833  32.456  15.349  1.00  0.00     0.002 A 
HETATM   16  C   LIG     1      14.832  31.481  15.311  1.00  0.00     0.000 A 
HETATM   17  C   LIG     1      13.993  31.300  16.413  1.00  0.00     0.002 A 
HETATM   18  C   LIG     1      14.146  32.099  17.550  1.00  0.00     0.029 A 
ENDBRANCH   4  13
TORSDOF 2
ENDMDL
MODEL 12
REMARK VINA RESULT:      -6.6      9.795     12.175
REMARK  2 active torsions:
REMARK  status: ('A' for Active; 'I' for Inactive)
REMARK       I    between atoms: C_2  and  N_3 
REMARK       I    between atoms: C_2  and  N_10 
REMARK    1  A    between atoms: N_3  and  C_4 
REMARK    2  A    between atoms: N_10  and  C_11 
ROOT
HETATM    1  O   LIG     1      17.398  33.709  15.551  1.00  0.00    -0.247 OA
HETATM    2  C   LIG     1      17.517  33.610  14.301  1.00  0.00     0.325 C 
HETATM    3  N   LIG     1      18.448  34.467  13.624  1.00  0.00    -0.309 N 
HETATM    4  N   LIG     1      16.714  32.669  13.564  1.00  0.00    -0.309 N 
HETATM    5  H   LIG     1      18.638  35.405  14.045  1.00  0.00     0.170 HD
HETATM    6  H   LIG     1      16.870  32.577  12.536  1.00  0.00     0.170 HD
ENDROOT
BRANCH   3   7
HETATM    7  C   LIG     1      19.149  34.108  12.422  1.00  0.00     0.036 A 
HETATM    8  C   LIG     1      20.344  33.367  12.466  1.00  0.00     0.029 A 
HETATM    9  C   LIG     1      21.024  33.055  11.286  1.00  0.00     0.002 A 
HETATM   10  C   LIG     1      20.528  33.494  10.054  1.00  0.00     0.000 A 
HETATM   11  C   LIG     1      19.356  34.251  10.005  1.00  0.00     0.002 A 
HETATM   12  C   LIG     1      18.672  34.564  11.184  1.00  0.00     0.029 A 
ENDBRANCH   3   7
BRANCH   4  13
HETATM   13  C   LIG     1      15.769  31.771  14.168  1.00  0.00     0.036 A 
HETATM   14  C   LIG     1      15.145  32.073  15.393  1.00  0.00     0.029 A 
HETATM   15  C   LIG     1      14.209  31.192  15.944  1.00  0.00     0.002 A 
HETATM   16  C   LIG     1      13.879  30.011  15.273  1.00  0.00     0.000 A 
HETATM   17  C   LIG     1      14.475  29.715  14.046  1.00  0.00     0.002 A 
HETATM   18  C   LIG     1      15.411  30.595  13.490  1.00  0.00     0.029 A 
ENDBRANCH   4  13
TORSDOF 2
ENDMDL
MODEL 13
REMARK VINA RESULT:      -6.4      6.276      7.664
REMARK  2 active torsions:
REMARK  status: ('A' for Active; 'I' for Inactive)
REMARK       I    between atoms: C_2  and  N_3 
REMARK       I    between atoms: C_2  and  N_10 
REMARK    1  A    between atoms: N_3  and  C_4 
REMARK    2  A    between atoms: N_10  and  C_11 
ROOT
HETATM    1  O   LIG     1      14.841  34.878  16.315  1.00  0.00    -0.247 OA
HETATM    2  C   LIG     1      15.380  34.430  17.362  1.00  0.00     0.325 C 
HETATM    3  N   LIG     1      16.038  35.347  18.249  1.00  0.00    -0.309 N 
HETATM    4  N   LIG     1      15.356  33.019  17.649  1.00  0.00    -0.309 N 
HETATM    5  H   LIG     1      16.457  36.209  17.831  1.00  0.00     0.170 HD
HETATM    6  H   LIG     1      15.769  32.686  18.547  1.00  0.00     0.170 HD
ENDROOT
BRANCH   3   7
HETATM    7  C   LIG     1      16.133  35.166  19.671  1.00  0.00     0.036 A 
HETATM    8  C   LIG     1      15.217  34.358  20.369  1.00  0.00     0.029 A 
HETATM    9  C   LIG     1      15.311  34.222  21.756  1.00  0.00     0.002 A 
HETATM   10  C   LIG     1      16.309  34.902  22.461  1.00  0.00     0.000 A 
HETATM   11  C   LIG     1      17.207  35.725  21.779  1.00  0.00     0.002 A 
HETATM   12  C   LIG     1      17.115  35.864  20.390  1.00  0.00     0.029 A 
ENDBRANCH   3   7
BRANCH   4  13
HETATM   13  C   LIG     1      14.711  32.041  16.818  1.00  0.00     0.036 A 
HETATM   14  C   LIG     1      13.415  31.571  17.101  1.00  0.00     0.029 A 
HETATM   15  C   LIG     1      12.802  30.639  16.259  1.00  0.00     0.002 A 
HETATM   16  C   LIG     1      13.470  30.176  15.122  1.00  0.00     0.000 A 
HETATM   17  C   LIG     1      14.747  30.655  14.819  1.00  0.00     0.002 A 
HETATM   18  C   LIG     1      15.363  31.589  15.658  1.00  0.00     0.029 A 
ENDBRANCH   4  13
TORSDOF 2
ENDMDL
MODEL 14
REMARK VINA RESULT:      -6.3      8.471     10.827
REMARK  2 active torsions:
REMARK  status: ('A' for Active; 'I' for Inactive)
REMARK       I    between atoms: C_2  and  N_3 
REMARK       I    between atoms: C_2  and  N_10 
REMARK    1  A    between atoms: N_3  and  C_4 
REMARK    2  A    between atoms: N_10  and  C_11 
ROOT
HETATM    1  O   LIG     1      17.059  32.808  15.552  1.00  0.00    -0.247 OA
HETATM    2  C   LIG     1      15.982  32.164  15.431  1.00  0.00     0.325 C 
HETATM    3  N   LIG     1      15.731  31.461  14.206  1.00  0.00    -0.309 N 
HETATM    4  N   LIG     1      15.014  32.155  16.497  1.00  0.00    -0.309 N 
HETATM    5  H   LIG     1      16.154  31.846  13.331  1.00  0.00     0.170 HD
HETATM    6  H   LIG     1      14.155  31.574  16.385  1.00  0.00     0.170 HD
ENDROOT
BRANCH   3   7
HETATM    7  C   LIG     1      14.956  30.254  14.112  1.00  0.00     0.036 A 
HETATM    8  C   LIG     1      13.603  30.222  14.495  1.00  0.00     0.029 A 
HETATM    9  C   LIG     1      12.878  29.029  14.424  1.00  0.00     0.002 A 
HETATM   10  C   LIG     1      13.501  27.856  13.987  1.00  0.00     0.000 A 
HETATM   11  C   LIG     1      14.850  27.875  13.628  1.00  0.00     0.002 A 
HETATM   12  C   LIG     1      15.578  29.066  13.698  1.00  0.00     0.029 A 
ENDBRANCH   3   7
BRANCH   4  13
HETATM   13  C   LIG     1      15.197  32.824  17.755  1.00  0.00     0.036 A 
HETATM   14  C   LIG     1      15.336  34.222  17.834  1.00  0.00     0.029 A 
HETATM   15  C   LIG     1      15.485  34.848  19.075  1.00  0.00     0.002 A 
HETATM   16  C   LIG     1      15.483  34.088  20.247  1.00  0.00     0.000 A 
HETATM   17  C   LIG     1      15.321  32.703  20.181  1.00  0.00     0.002 A 
HETATM   18  C   LIG     1      15.170  32.073  18.941  1.00  0.00     0.029 A 
ENDBRANCH   4  13
TORSDOF 2
ENDMDL
