REMARK  9 active torsions:
REMARK  status: ('A' for Active; 'I' for Inactive)
REMARK    1  A    between atoms: C_2  and  C_3 
REMARK    2  A    between atoms: C_3  and  C_4 
REMARK    3  A    between atoms: C_4  and  N_5 
REMARK    4  A    between atoms: N_5  and  C_6 
REMARK    5  A    between atoms: N_5  and  C_10 
REMARK    6  A    between atoms: C_6  and  C_7 
REMARK    7  A    between atoms: C_7  and  C_8 
REMARK    8  A    between atoms: C_10  and  C_11 
REMARK    9  A    between atoms: C_11  and  C_12 
ROOT
HETATM    1  N   LIG     1      -0.244   0.014  -0.257  1.00  0.00     0.088 N 
ENDROOT
BRANCH   1   2
HETATM    2  C   LIG     1       1.174  -0.157  -0.671  1.00  0.00     0.272 C 
BRANCH   2   3
HETATM    3  C   LIG     1       2.067  -0.192   0.573  1.00  0.00     0.030 C 
BRANCH   3   4
HETATM    4  C   LIG     1       3.542  -0.367   0.192  1.00  0.00    -0.003 C 
HETATM    5  C   LIG     1       4.430  -0.402   1.433  1.00  0.00     0.005 C 
ENDBRANCH   3   4
ENDBRANCH   2   3
ENDBRANCH   1   2
BRANCH   1   6
HETATM    6  C   LIG     1      -0.821   1.277  -0.774  1.00  0.00     0.272 C 
BRANCH   6   7
HETATM    7  C   LIG     1      -0.271   2.491  -0.003  1.00  0.00     0.030 C 
BRANCH   7   8
HETATM    8  C   LIG     1      -0.851   3.823  -0.504  1.00  0.00    -0.003 C 
HETATM    9  C   LIG     1      -2.305   4.035  -0.082  1.00  0.00     0.005 C 
ENDBRANCH   7   8
ENDBRANCH   6   7
ENDBRANCH   1   6
BRANCH   1  10
HETATM   10  C   LIG     1      -1.079  -1.144  -0.658  1.00  0.00     0.272 C 
BRANCH  10  11
HETATM   11  C   LIG     1      -0.787  -2.367   0.229  1.00  0.00     0.030 C 
BRANCH  11  12
HETATM   12  C   LIG     1      -1.639  -3.590  -0.149  1.00  0.00    -0.003 C 
HETATM   13  C   LIG     1      -3.100  -3.451   0.276  1.00  0.00     0.005 C 
ENDBRANCH  11  12
ENDBRANCH  10  11
ENDBRANCH   1  10
TORSDOF 9
