REMARK  6 active torsions:
REMARK  status: ('A' for Active; 'I' for Inactive)
REMARK    1  A    between atoms: C_2  and  C_3 
REMARK    2  A    between atoms: C_3  and  N_4 
REMARK    3  A    between atoms: N_4  and  C_5 
REMARK    4  A    between atoms: N_4  and  C_8 
REMARK    5  A    between atoms: C_5  and  C_6 
REMARK    6  A    between atoms: C_8  and  C_9 
ROOT
HETATM    1  N   LIG     1      -0.019  -0.398   0.262  1.00  0.00     0.088 N 
ENDROOT
BRANCH   1   2
HETATM    2  C   LIG     1      -0.670  -1.157  -0.831  1.00  0.00     0.272 C 
BRANCH   2   3
HETATM    3  C   LIG     1      -1.555  -2.254  -0.233  1.00  0.00     0.026 C 
HETATM    4  C   LIG     1      -2.244  -3.071  -1.323  1.00  0.00     0.007 C 
ENDBRANCH   2   3
ENDBRANCH   1   2
BRANCH   1   5
HETATM    5  C   LIG     1      -0.757   0.844   0.607  1.00  0.00     0.272 C 
BRANCH   5   6
HETATM    6  C   LIG     1      -0.520   2.014  -0.372  1.00  0.00     0.026 C 
HETATM    7  C   LIG     1      -1.482   3.164  -0.093  1.00  0.00     0.007 C 
ENDBRANCH   5   6
ENDBRANCH   1   5
BRANCH   1   8
HETATM    8  C   LIG     1       1.435  -0.226   0.042  1.00  0.00     0.272 C 
BRANCH   8   9
HETATM    9  C   LIG     1       2.148   0.289   1.302  1.00  0.00     0.026 C 
HETATM   10  C   LIG     1       3.664   0.267   1.128  1.00  0.00     0.007 C 
ENDBRANCH   8   9
ENDBRANCH   1   8
TORSDOF 6
