REMARK  1 active torsions:
REMARK  status: ('A' for Active; 'I' for Inactive)
REMARK    1  A    between atoms: O_2  and  C_3 
ROOT
HETATM    1  C   LIG     1       1.347  -0.560  -0.000  1.00  0.00     0.269 A 
HETATM    2  N   LIG     1       1.316   0.794   0.162  1.00  0.00    -0.217 NA
HETATM    3  C   LIG     1       0.138   1.467   0.250  1.00  0.00     0.156 A 
HETATM    4  C   LIG     1      -1.062   0.763   0.174  1.00  0.00     0.121 A 
HETATM    5  N   LIG     1      -2.264   1.391   0.258  1.00  0.00    -0.254 NA
HETATM    6  C   LIG     1      -3.424   0.685   0.181  1.00  0.00     0.136 A 
HETATM    7  C   LIG     1      -3.378  -0.704   0.015  1.00  0.00     0.138 A 
HETATM    8  N   LIG     1      -2.175  -1.333  -0.069  1.00  0.00    -0.238 NA
HETATM    9  C   LIG     1      -1.015  -0.630   0.007  1.00  0.00     0.183 A 
HETATM   10  N   LIG     1       0.184  -1.262  -0.076  1.00  0.00    -0.185 NA
ENDROOT
BRANCH   1  11
HETATM   11  O   LIG     1       2.564  -1.242  -0.090  1.00  0.00    -0.324 OA
HETATM   12  C   LIG     1       3.823  -0.583  -0.020  1.00  0.00     0.213 C 
ENDBRANCH   1  11
TORSDOF 1
