MODEL 1
REMARK VINA RESULT:      -6.0      0.000      0.000
REMARK  1 active torsions:
REMARK  status: ('A' for Active; 'I' for Inactive)
REMARK    1  A    between atoms: O_2  and  C_3 
ROOT
HETATM    1  C   LIG     1      16.898  37.519  23.340  1.00  0.00     0.269 A 
HETATM    2  N   LIG     1      16.699  36.286  22.792  1.00  0.00    -0.217 NA
HETATM    3  C   LIG     1      17.160  35.983  21.550  1.00  0.00     0.156 A 
HETATM    4  C   LIG     1      17.851  36.948  20.820  1.00  0.00     0.121 A 
HETATM    5  N   LIG     1      18.333  36.692  19.576  1.00  0.00    -0.254 NA
HETATM    6  C   LIG     1      19.005  37.648  18.880  1.00  0.00     0.136 A 
HETATM    7  C   LIG     1      19.203  38.909  19.454  1.00  0.00     0.138 A 
HETATM    8  N   LIG     1      18.721  39.166  20.700  1.00  0.00    -0.238 NA
HETATM    9  C   LIG     1      18.050  38.212  21.396  1.00  0.00     0.183 A 
HETATM   10  N   LIG     1      17.571  38.472  22.640  1.00  0.00    -0.185 NA
ENDROOT
BRANCH   1  11
HETATM   11  O   LIG     1      16.419  37.820  24.618  1.00  0.00    -0.324 OA
HETATM   12  C   LIG     1      17.278  38.101  25.717  1.00  0.00     0.213 C 
ENDBRANCH   1  11
TORSDOF 1
ENDMDL
MODEL 2
REMARK VINA RESULT:      -5.8      2.555      4.861
REMARK  1 active torsions:
REMARK  status: ('A' for Active; 'I' for Inactive)
REMARK    1  A    between atoms: O_2  and  C_3 
ROOT
HETATM    1  C   LIG     1      19.114  38.906  19.206  1.00  0.00     0.269 A 
HETATM    2  N   LIG     1      19.000  39.728  20.288  1.00  0.00    -0.217 NA
HETATM    3  C   LIG     1      18.417  39.301  21.440  1.00  0.00     0.156 A 
HETATM    4  C   LIG     1      17.927  37.999  21.519  1.00  0.00     0.121 A 
HETATM    5  N   LIG     1      17.338  37.527  22.649  1.00  0.00    -0.254 NA
HETATM    6  C   LIG     1      16.865  36.252  22.706  1.00  0.00     0.136 A 
HETATM    7  C   LIG     1      16.990  35.419  21.588  1.00  0.00     0.138 A 
HETATM    8  N   LIG     1      17.580  35.892  20.458  1.00  0.00    -0.238 NA
HETATM    9  C   LIG     1      18.051  37.164  20.398  1.00  0.00     0.183 A 
HETATM   10  N   LIG     1      18.641  37.632  19.268  1.00  0.00    -0.185 NA
ENDROOT
BRANCH   1  11
HETATM   11  O   LIG     1      19.715  39.355  18.026  1.00  0.00    -0.324 OA
HETATM   12  C   LIG     1      18.977  39.618  16.839  1.00  0.00     0.213 C 
ENDBRANCH   1  11
TORSDOF 1
ENDMDL
MODEL 3
REMARK VINA RESULT:      -5.8      2.863      5.163
REMARK  1 active torsions:
REMARK  status: ('A' for Active; 'I' for Inactive)
REMARK    1  A    between atoms: O_2  and  C_3 
ROOT
HETATM    1  C   LIG     1      16.439  36.055  21.959  1.00  0.00     0.269 A 
HETATM    2  N   LIG     1      16.514  37.398  22.185  1.00  0.00    -0.217 NA
HETATM    3  C   LIG     1      16.933  37.890  23.381  1.00  0.00     0.156 A 
HETATM    4  C   LIG     1      17.293  37.008  24.398  1.00  0.00     0.121 A 
HETATM    5  N   LIG     1      17.719  37.452  25.610  1.00  0.00    -0.254 NA
HETATM    6  C   LIG     1      18.065  36.574  26.589  1.00  0.00     0.136 A 
HETATM    7  C   LIG     1      17.984  35.198  26.344  1.00  0.00     0.138 A 
HETATM    8  N   LIG     1      17.558  34.754  25.131  1.00  0.00    -0.238 NA
HETATM    9  C   LIG     1      17.210  35.629  24.152  1.00  0.00     0.183 A 
HETATM   10  N   LIG     1      16.787  35.181  22.942  1.00  0.00    -0.185 NA
ENDROOT
BRANCH   1  11
HETATM   11  O   LIG     1      16.006  35.560  20.726  1.00  0.00    -0.324 OA
HETATM   12  C   LIG     1      15.708  34.186  20.509  1.00  0.00     0.213 C 
ENDBRANCH   1  11
TORSDOF 1
ENDMDL
MODEL 4
REMARK VINA RESULT:      -5.8      2.257      4.650
REMARK  1 active torsions:
REMARK  status: ('A' for Active; 'I' for Inactive)
REMARK    1  A    between atoms: O_2  and  C_3 
ROOT
HETATM    1  C   LIG     1      17.426  38.031  22.429  1.00  0.00     0.269 A 
HETATM    2  N   LIG     1      16.962  36.836  21.963  1.00  0.00    -0.217 NA
HETATM    3  C   LIG     1      16.877  35.748  22.774  1.00  0.00     0.156 A 
HETATM    4  C   LIG     1      17.270  35.852  24.107  1.00  0.00     0.121 A 
HETATM    5  N   LIG     1      17.202  34.794  24.956  1.00  0.00    -0.254 NA
HETATM    6  C   LIG     1      17.591  34.917  26.253  1.00  0.00     0.136 A 
HETATM    7  C   LIG     1      18.064  36.149  26.719  1.00  0.00     0.138 A 
HETATM    8  N   LIG     1      18.132  37.210  25.869  1.00  0.00    -0.238 NA
HETATM    9  C   LIG     1      17.745  37.089  24.573  1.00  0.00     0.183 A 
HETATM   10  N   LIG     1      17.813  38.150  23.728  1.00  0.00    -0.185 NA
ENDROOT
BRANCH   1  11
HETATM   11  O   LIG     1      17.509  39.143  21.587  1.00  0.00    -0.324 OA
HETATM   12  C   LIG     1      18.659  39.427  20.798  1.00  0.00     0.213 C 
ENDBRANCH   1  11
TORSDOF 1
ENDMDL
MODEL 5
REMARK VINA RESULT:      -5.7      1.939      3.261
REMARK  1 active torsions:
REMARK  status: ('A' for Active; 'I' for Inactive)
REMARK    1  A    between atoms: O_2  and  C_3 
ROOT
HETATM    1  C   LIG     1      16.227  35.541  21.346  1.00  0.00     0.269 A 
HETATM    2  N   LIG     1      16.030  36.526  22.268  1.00  0.00    -0.217 NA
HETATM    3  C   LIG     1      16.797  37.649  22.274  1.00  0.00     0.156 A 
HETATM    4  C   LIG     1      17.802  37.799  21.322  1.00  0.00     0.121 A 
HETATM    5  N   LIG     1      18.593  38.903  21.287  1.00  0.00    -0.254 NA
HETATM    6  C   LIG     1      19.569  39.030  20.348  1.00  0.00     0.136 A 
HETATM    7  C   LIG     1      19.760  38.012  19.407  1.00  0.00     0.138 A 
HETATM    8  N   LIG     1      18.968  36.906  19.442  1.00  0.00    -0.238 NA
HETATM    9  C   LIG     1      17.993  36.777  20.378  1.00  0.00     0.183 A 
HETATM   10  N   LIG     1      17.204  35.672  20.408  1.00  0.00    -0.185 NA
ENDROOT
BRANCH   1  11
HETATM   11  O   LIG     1      15.433  34.390  21.349  1.00  0.00    -0.324 OA
HETATM   12  C   LIG     1      15.464  33.430  20.298  1.00  0.00     0.213 C 
ENDBRANCH   1  11
TORSDOF 1
ENDMDL
MODEL 6
REMARK VINA RESULT:      -5.6      7.946      9.521
REMARK  1 active torsions:
REMARK  status: ('A' for Active; 'I' for Inactive)
REMARK    1  A    between atoms: O_2  and  C_3 
ROOT
HETATM    1  C   LIG     1      17.377  33.477  14.127  1.00  0.00     0.269 A 
HETATM    2  N   LIG     1      16.884  32.481  13.336  1.00  0.00    -0.217 NA
HETATM    3  C   LIG     1      15.902  31.650  13.777  1.00  0.00     0.156 A 
HETATM    4  C   LIG     1      15.387  31.818  15.061  1.00  0.00     0.121 A 
HETATM    5  N   LIG     1      14.405  31.014  15.546  1.00  0.00    -0.254 NA
HETATM    6  C   LIG     1      13.916  31.194  16.803  1.00  0.00     0.136 A 
HETATM    7  C   LIG     1      14.430  32.220  17.604  1.00  0.00     0.138 A 
HETATM    8  N   LIG     1      15.414  33.025  17.119  1.00  0.00    -0.238 NA
HETATM    9  C   LIG     1      15.904  32.847  15.864  1.00  0.00     0.183 A 
HETATM   10  N   LIG     1      16.884  33.653  15.383  1.00  0.00    -0.185 NA
ENDROOT
BRANCH   1  11
HETATM   11  O   LIG     1      18.387  34.325  13.664  1.00  0.00    -0.324 OA
HETATM   12  C   LIG     1      19.338  33.926  12.684  1.00  0.00     0.213 C 
ENDBRANCH   1  11
TORSDOF 1
ENDMDL
MODEL 7
REMARK VINA RESULT:      -5.6      7.307      8.331
REMARK  1 active torsions:
REMARK  status: ('A' for Active; 'I' for Inactive)
REMARK    1  A    between atoms: O_2  and  C_3 
ROOT
HETATM    1  C   LIG     1      14.653  31.824  17.027  1.00  0.00     0.269 A 
HETATM    2  N   LIG     1      14.349  30.947  16.027  1.00  0.00    -0.217 NA
HETATM    3  C   LIG     1      14.941  31.035  14.807  1.00  0.00     0.156 A 
HETATM    4  C   LIG     1      15.878  32.039  14.570  1.00  0.00     0.121 A 
HETATM    5  N   LIG     1      16.498  32.167  13.367  1.00  0.00    -0.254 NA
HETATM    6  C   LIG     1      17.409  33.155  13.156  1.00  0.00     0.136 A 
HETATM    7  C   LIG     1      17.712  34.048  14.191  1.00  0.00     0.138 A 
HETATM    8  N   LIG     1      17.092  33.920  15.394  1.00  0.00    -0.238 NA
HETATM    9  C   LIG     1      16.181  32.935  15.607  1.00  0.00     0.183 A 
HETATM   10  N   LIG     1      15.566  32.810  16.811  1.00  0.00    -0.185 NA
ENDROOT
BRANCH   1  11
HETATM   11  O   LIG     1      14.038  31.724  18.278  1.00  0.00    -0.324 OA
HETATM   12  C   LIG     1      14.771  31.693  19.497  1.00  0.00     0.213 C 
ENDBRANCH   1  11
TORSDOF 1
ENDMDL
MODEL 8
REMARK VINA RESULT:      -5.5      2.501      3.725
REMARK  1 active torsions:
REMARK  status: ('A' for Active; 'I' for Inactive)
REMARK    1  A    between atoms: O_2  and  C_3 
ROOT
HETATM    1  C   LIG     1      16.268  35.270  20.294  1.00  0.00     0.269 A 
HETATM    2  N   LIG     1      15.657  35.619  21.463  1.00  0.00    -0.217 NA
HETATM    3  C   LIG     1      16.093  36.676  22.198  1.00  0.00     0.156 A 
HETATM    4  C   LIG     1      17.183  37.420  21.752  1.00  0.00     0.121 A 
HETATM    5  N   LIG     1      17.654  38.485  22.452  1.00  0.00    -0.254 NA
HETATM    6  C   LIG     1      18.721  39.197  21.999  1.00  0.00     0.136 A 
HETATM    7  C   LIG     1      19.338  38.829  20.798  1.00  0.00     0.138 A 
HETATM    8  N   LIG     1      18.867  37.763  20.098  1.00  0.00    -0.238 NA
HETATM    9  C   LIG     1      17.802  37.050  20.548  1.00  0.00     0.183 A 
HETATM   10  N   LIG     1      17.334  35.986  19.845  1.00  0.00    -0.185 NA
ENDROOT
BRANCH   1  11
HETATM   11  O   LIG     1      15.812  34.181  19.546  1.00  0.00    -0.324 OA
HETATM   12  C   LIG     1      15.371  32.967  20.143  1.00  0.00     0.213 C 
ENDBRANCH   1  11
TORSDOF 1
ENDMDL
MODEL 9
REMARK VINA RESULT:      -5.5      8.578     10.170
REMARK  1 active torsions:
REMARK  status: ('A' for Active; 'I' for Inactive)
REMARK    1  A    between atoms: O_2  and  C_3 
ROOT
HETATM    1  C   LIG     1      14.780  30.221  14.452  1.00  0.00     0.269 A 
HETATM    2  N   LIG     1      14.407  30.826  15.617  1.00  0.00    -0.217 NA
HETATM    3  C   LIG     1      14.961  32.004  16.008  1.00  0.00     0.156 A 
HETATM    4  C   LIG     1      15.928  32.607  15.207  1.00  0.00     0.121 A 
HETATM    5  N   LIG     1      16.510  33.784  15.556  1.00  0.00    -0.254 NA
HETATM    6  C   LIG     1      17.453  34.357  14.760  1.00  0.00     0.136 A 
HETATM    7  C   LIG     1      17.826  33.725  13.568  1.00  0.00     0.138 A 
HETATM    8  N   LIG     1      17.244  32.547  13.218  1.00  0.00    -0.238 NA
HETATM    9  C   LIG     1      16.303  31.973  14.012  1.00  0.00     0.183 A 
HETATM   10  N   LIG     1      15.723  30.797  13.659  1.00  0.00    -0.185 NA
ENDROOT
BRANCH   1  11
HETATM   11  O   LIG     1      14.204  29.009  14.059  1.00  0.00    -0.324 OA
HETATM   12  C   LIG     1      14.976  27.888  13.646  1.00  0.00     0.213 C 
ENDBRANCH   1  11
TORSDOF 1
ENDMDL
MODEL 10
REMARK VINA RESULT:      -5.4      7.324      8.468
REMARK  1 active torsions:
REMARK  status: ('A' for Active; 'I' for Inactive)
REMARK    1  A    between atoms: O_2  and  C_3 
ROOT
HETATM    1  C   LIG     1      15.104  32.818  17.855  1.00  0.00     0.269 A 
HETATM    2  N   LIG     1      14.138  31.864  17.992  1.00  0.00    -0.217 NA
HETATM    3  C   LIG     1      13.832  31.020  16.971  1.00  0.00     0.156 A 
HETATM    4  C   LIG     1      14.515  31.128  15.762  1.00  0.00     0.121 A 
HETATM    5  N   LIG     1      14.245  30.306  14.714  1.00  0.00    -0.254 NA
HETATM    6  C   LIG     1      14.923  30.429  13.541  1.00  0.00     0.136 A 
HETATM    7  C   LIG     1      15.911  31.413  13.414  1.00  0.00     0.138 A 
HETATM    8  N   LIG     1      16.182  32.235  14.463  1.00  0.00    -0.238 NA
HETATM    9  C   LIG     1      15.505  32.115  15.635  1.00  0.00     0.183 A 
HETATM   10  N   LIG     1      15.780  32.937  16.680  1.00  0.00    -0.185 NA
ENDROOT
BRANCH   1  11
HETATM   11  O   LIG     1      15.411  33.682  18.911  1.00  0.00    -0.324 OA
HETATM   12  C   LIG     1      15.471  33.251  20.265  1.00  0.00     0.213 C 
ENDBRANCH   1  11
TORSDOF 1
ENDMDL
MODEL 11
REMARK VINA RESULT:      -5.2      7.915      9.874
REMARK  1 active torsions:
REMARK  status: ('A' for Active; 'I' for Inactive)
REMARK    1  A    between atoms: O_2  and  C_3 
ROOT
HETATM    1  C   LIG     1      17.160  32.873  14.790  1.00  0.00     0.269 A 
HETATM    2  N   LIG     1      16.702  33.682  15.789  1.00  0.00    -0.217 NA
HETATM    3  C   LIG     1      15.538  33.413  16.437  1.00  0.00     0.156 A 
HETATM    4  C   LIG     1      14.795  32.291  16.076  1.00  0.00     0.121 A 
HETATM    5  N   LIG     1      13.626  31.980  16.695  1.00  0.00    -0.254 NA
HETATM    6  C   LIG     1      12.917  30.879  16.328  1.00  0.00     0.136 A 
HETATM    7  C   LIG     1      13.397  30.058  15.302  1.00  0.00     0.138 A 
HETATM    8  N   LIG     1      14.567  30.368  14.682  1.00  0.00    -0.238 NA
HETATM    9  C   LIG     1      15.278  31.467  15.047  1.00  0.00     0.183 A 
HETATM   10  N   LIG     1      16.446  31.773  14.427  1.00  0.00    -0.185 NA
ENDROOT
BRANCH   1  11
HETATM   11  O   LIG     1      18.358  33.160  14.130  1.00  0.00    -0.324 OA
HETATM   12  C   LIG     1      18.403  33.764  12.843  1.00  0.00     0.213 C 
ENDBRANCH   1  11
TORSDOF 1
ENDMDL
MODEL 12
REMARK VINA RESULT:      -5.2      1.107      2.138
REMARK  1 active torsions:
REMARK  status: ('A' for Active; 'I' for Inactive)
REMARK    1  A    between atoms: O_2  and  C_3 
ROOT
HETATM    1  C   LIG     1      17.213  37.226  23.330  1.00  0.00     0.269 A 
HETATM    2  N   LIG     1      17.512  38.553  23.426  1.00  0.00    -0.217 NA
HETATM    3  C   LIG     1      18.032  39.237  22.373  1.00  0.00     0.156 A 
HETATM    4  C   LIG     1      18.264  38.573  21.170  1.00  0.00     0.121 A 
HETATM    5  N   LIG     1      18.781  39.214  20.089  1.00  0.00    -0.254 NA
HETATM    6  C   LIG     1      19.001  38.546  18.925  1.00  0.00     0.136 A 
HETATM    7  C   LIG     1      18.689  37.184  18.839  1.00  0.00     0.138 A 
HETATM    8  N   LIG     1      18.171  36.542  19.921  1.00  0.00    -0.238 NA
HETATM    9  C   LIG     1      17.952  37.207  21.085  1.00  0.00     0.183 A 
HETATM   10  N   LIG     1      17.434  36.563  22.163  1.00  0.00    -0.185 NA
ENDROOT
BRANCH   1  11
HETATM   11  O   LIG     1      16.679  36.532  24.420  1.00  0.00    -0.324 OA
HETATM   12  C   LIG     1      17.332  35.419  25.018  1.00  0.00     0.213 C 
ENDBRANCH   1  11
TORSDOF 1
ENDMDL
MODEL 13
REMARK VINA RESULT:      -5.1      2.404      4.148
REMARK  1 active torsions:
REMARK  status: ('A' for Active; 'I' for Inactive)
REMARK    1  A    between atoms: O_2  and  C_3 
ROOT
HETATM    1  C   LIG     1      15.934  34.793  20.987  1.00  0.00     0.269 A 
HETATM    2  N   LIG     1      16.687  35.279  19.958  1.00  0.00    -0.217 NA
HETATM    3  C   LIG     1      17.431  36.407  20.101  1.00  0.00     0.156 A 
HETATM    4  C   LIG     1      17.428  37.083  21.320  1.00  0.00     0.121 A 
HETATM    5  N   LIG     1      18.156  38.214  21.511  1.00  0.00    -0.254 NA
HETATM    6  C   LIG     1      18.138  38.858  22.708  1.00  0.00     0.136 A 
HETATM    7  C   LIG     1      17.362  38.349  23.755  1.00  0.00     0.138 A 
HETATM    8  N   LIG     1      16.632  37.217  23.565  1.00  0.00    -0.238 NA
HETATM    9  C   LIG     1      16.648  36.572  22.369  1.00  0.00     0.183 A 
HETATM   10  N   LIG     1      15.919  35.441  22.183  1.00  0.00    -0.185 NA
ENDROOT
BRANCH   1  11
HETATM   11  O   LIG     1      15.171  33.632  20.829  1.00  0.00    -0.324 OA
HETATM   12  C   LIG     1      15.388  32.706  19.772  1.00  0.00     0.213 C 
ENDBRANCH   1  11
TORSDOF 1
ENDMDL
MODEL 14
REMARK VINA RESULT:      -5.1      2.192      4.246
REMARK  1 active torsions:
REMARK  status: ('A' for Active; 'I' for Inactive)
REMARK    1  A    between atoms: O_2  and  C_3 
ROOT
HETATM    1  C   LIG     1      18.772  38.613  20.756  1.00  0.00     0.269 A 
HETATM    2  N   LIG     1      18.296  38.904  22.000  1.00  0.00    -0.217 NA
HETATM    3  C   LIG     1      17.393  38.096  22.617  1.00  0.00     0.156 A 
HETATM    4  C   LIG     1      16.944  36.948  21.968  1.00  0.00     0.121 A 
HETATM    5  N   LIG     1      16.044  36.109  22.544  1.00  0.00    -0.254 NA
HETATM    6  C   LIG     1      15.618  34.993  21.892  1.00  0.00     0.136 A 
HETATM    7  C   LIG     1      16.114  34.706  20.615  1.00  0.00     0.138 A 
HETATM    8  N   LIG     1      17.015  35.546  20.039  1.00  0.00    -0.238 NA
HETATM    9  C   LIG     1      17.442  36.661  20.687  1.00  0.00     0.183 A 
HETATM   10  N   LIG     1      18.343  37.496  20.108  1.00  0.00    -0.185 NA
ENDROOT
BRANCH   1  11
HETATM   11  O   LIG     1      19.699  39.452  20.130  1.00  0.00    -0.324 OA
HETATM   12  C   LIG     1      20.587  38.997  19.116  1.00  0.00     0.213 C 
ENDBRANCH   1  11
TORSDOF 1
ENDMDL
MODEL 15
REMARK VINA RESULT:      -5.1      7.472      8.903
REMARK  1 active torsions:
REMARK  status: ('A' for Active; 'I' for Inactive)
REMARK    1  A    between atoms: O_2  and  C_3 
ROOT
HETATM    1  C   LIG     1      15.607  33.794  16.603  1.00  0.00     0.269 A 
HETATM    2  N   LIG     1      16.633  33.921  15.713  1.00  0.00    -0.217 NA
HETATM    3  C   LIG     1      16.830  33.005  14.728  1.00  0.00     0.156 A 
HETATM    4  C   LIG     1      15.970  31.915  14.623  1.00  0.00     0.121 A 
HETATM    5  N   LIG     1      16.125  30.974  13.655  1.00  0.00    -0.254 NA
HETATM    6  C   LIG     1      15.274  29.916  13.570  1.00  0.00     0.136 A 
HETATM    7  C   LIG     1      14.225  29.798  14.490  1.00  0.00     0.138 A 
HETATM    8  N   LIG     1      14.069  30.740  15.458  1.00  0.00    -0.238 NA
HETATM    9  C   LIG     1      14.918  31.796  15.546  1.00  0.00     0.183 A 
HETATM   10  N   LIG     1      14.758  32.735  16.514  1.00  0.00    -0.185 NA
ENDROOT
BRANCH   1  11
HETATM   11  O   LIG     1      15.414  34.742  17.612  1.00  0.00    -0.324 OA
HETATM   12  C   LIG     1      15.583  34.442  18.993  1.00  0.00     0.213 C 
ENDBRANCH   1  11
TORSDOF 1
ENDMDL
MODEL 16
REMARK VINA RESULT:      -5.0      8.726     10.376
REMARK  1 active torsions:
REMARK  status: ('A' for Active; 'I' for Inactive)
REMARK    1  A    between atoms: O_2  and  C_3 
ROOT
HETATM    1  C   LIG     1      14.828  29.820  14.255  1.00  0.00     0.269 A 
HETATM    2  N   LIG     1      15.734  30.555  13.548  1.00  0.00    -0.217 NA
HETATM    3  C   LIG     1      16.139  31.779  13.980  1.00  0.00     0.156 A 
HETATM    4  C   LIG     1      15.622  32.294  15.166  1.00  0.00     0.121 A 
HETATM    5  N   LIG     1      15.998  33.511  15.639  1.00  0.00    -0.254 NA
HETATM    6  C   LIG     1      15.480  33.996  16.800  1.00  0.00     0.136 A 
HETATM    7  C   LIG     1      14.552  33.231  17.515  1.00  0.00     0.138 A 
HETATM    8  N   LIG     1      14.176  32.013  17.043  1.00  0.00    -0.238 NA
HETATM    9  C   LIG     1      14.691  31.526  15.883  1.00  0.00     0.183 A 
HETATM   10  N   LIG     1      14.314  30.309  15.416  1.00  0.00    -0.185 NA
ENDROOT
BRANCH   1  11
HETATM   11  O   LIG     1      14.418  28.563  13.802  1.00  0.00    -0.324 OA
HETATM   12  C   LIG     1      15.335  27.526  13.471  1.00  0.00     0.213 C 
ENDBRANCH   1  11
TORSDOF 1
ENDMDL
MODEL 17
REMARK VINA RESULT:      -4.9      3.009      4.633
REMARK  1 active torsions:
REMARK  status: ('A' for Active; 'I' for Inactive)
REMARK    1  A    between atoms: O_2  and  C_3 
ROOT
HETATM    1  C   LIG     1      16.128  35.952  21.717  1.00  0.00     0.269 A 
HETATM    2  N   LIG     1      16.612  34.836  22.335  1.00  0.00    -0.217 NA
HETATM    3  C   LIG     1      17.146  34.898  23.584  1.00  0.00     0.156 A 
HETATM    4  C   LIG     1      17.201  36.121  24.248  1.00  0.00     0.121 A 
HETATM    5  N   LIG     1      17.724  36.233  25.497  1.00  0.00    -0.254 NA
HETATM    6  C   LIG     1      17.769  37.437  26.127  1.00  0.00     0.136 A 
HETATM    7  C   LIG     1      17.268  38.574  25.482  1.00  0.00     0.138 A 
HETATM    8  N   LIG     1      16.745  38.463  24.231  1.00  0.00    -0.238 NA
HETATM    9  C   LIG     1      16.700  37.261  23.599  1.00  0.00     0.183 A 
HETATM   10  N   LIG     1      16.175  37.155  22.352  1.00  0.00    -0.185 NA
ENDROOT
BRANCH   1  11
HETATM   11  O   LIG     1      15.582  35.878  20.432  1.00  0.00    -0.324 OA
HETATM   12  C   LIG     1      15.582  34.681  19.663  1.00  0.00     0.213 C 
ENDBRANCH   1  11
TORSDOF 1
ENDMDL
MODEL 18
REMARK VINA RESULT:      -4.9      1.609      3.270
REMARK  1 active torsions:
REMARK  status: ('A' for Active; 'I' for Inactive)
REMARK    1  A    between atoms: O_2  and  C_3 
ROOT
HETATM    1  C   LIG     1      17.258  37.726  23.009  1.00  0.00     0.269 A 
HETATM    2  N   LIG     1      17.924  37.981  21.847  1.00  0.00    -0.217 NA
HETATM    3  C   LIG     1      17.738  37.209  20.743  1.00  0.00     0.156 A 
HETATM    4  C   LIG     1      16.849  36.138  20.797  1.00  0.00     0.121 A 
HETATM    5  N   LIG     1      16.629  35.339  19.720  1.00  0.00    -0.254 NA
HETATM    6  C   LIG     1      15.757  34.297  19.794  1.00  0.00     0.136 A 
HETATM    7  C   LIG     1      15.080  34.047  20.992  1.00  0.00     0.138 A 
HETATM    8  N   LIG     1      15.300  34.846  22.071  1.00  0.00    -0.238 NA
HETATM    9  C   LIG     1      16.170  35.887  22.000  1.00  0.00     0.183 A 
HETATM   10  N   LIG     1      16.387  36.683  23.078  1.00  0.00    -0.185 NA
ENDROOT
BRANCH   1  11
HETATM   11  O   LIG     1      17.458  38.525  24.138  1.00  0.00    -0.324 OA
HETATM   12  C   LIG     1      17.426  38.008  25.463  1.00  0.00     0.213 C 
ENDBRANCH   1  11
TORSDOF 1
ENDMDL
MODEL 19
REMARK VINA RESULT:      -4.7      4.788      6.023
REMARK  1 active torsions:
REMARK  status: ('A' for Active; 'I' for Inactive)
REMARK    1  A    between atoms: O_2  and  C_3 
ROOT
HETATM    1  C   LIG     1      15.883  34.834  20.144  1.00  0.00     0.269 A 
HETATM    2  N   LIG     1      15.448  33.781  20.893  1.00  0.00    -0.217 NA
HETATM    3  C   LIG     1      14.935  32.665  20.310  1.00  0.00     0.156 A 
HETATM    4  C   LIG     1      14.851  32.593  18.921  1.00  0.00     0.121 A 
HETATM    5  N   LIG     1      14.348  31.499  18.292  1.00  0.00    -0.254 NA
HETATM    6  C   LIG     1      14.274  31.449  16.935  1.00  0.00     0.136 A 
HETATM    7  C   LIG     1      14.724  32.537  16.178  1.00  0.00     0.138 A 
HETATM    8  N   LIG     1      15.229  33.633  16.807  1.00  0.00    -0.238 NA
HETATM    9  C   LIG     1      15.303  33.685  18.163  1.00  0.00     0.183 A 
HETATM   10  N   LIG     1      15.808  34.780  18.787  1.00  0.00    -0.185 NA
ENDROOT
BRANCH   1  11
HETATM   11  O   LIG     1      16.408  35.977  20.754  1.00  0.00    -0.324 OA
HETATM   12  C   LIG     1      17.762  36.383  20.592  1.00  0.00     0.213 C 
ENDBRANCH   1  11
TORSDOF 1
ENDMDL
MODEL 20
REMARK VINA RESULT:      -4.6      1.737      2.099
REMARK  1 active torsions:
REMARK  status: ('A' for Active; 'I' for Inactive)
REMARK    1  A    between atoms: O_2  and  C_3 
ROOT
HETATM    1  C   LIG     1      17.063  35.539  23.897  1.00  0.00     0.269 A 
HETATM    2  N   LIG     1      16.937  34.938  22.679  1.00  0.00    -0.217 NA
HETATM    3  C   LIG     1      17.215  35.608  21.530  1.00  0.00     0.156 A 
HETATM    4  C   LIG     1      17.638  36.935  21.594  1.00  0.00     0.121 A 
HETATM    5  N   LIG     1      17.929  37.645  20.473  1.00  0.00    -0.254 NA
HETATM    6  C   LIG     1      18.339  38.939  20.557  1.00  0.00     0.136 A 
HETATM    7  C   LIG     1      18.465  39.544  21.813  1.00  0.00     0.138 A 
HETATM    8  N   LIG     1      18.174  38.833  22.935  1.00  0.00    -0.238 NA
HETATM    9  C   LIG     1      17.763  37.541  22.854  1.00  0.00     0.183 A 
HETATM   10  N   LIG     1      17.475  36.834  23.977  1.00  0.00    -0.185 NA
ENDROOT
BRANCH   1  11
HETATM   11  O   LIG     1      16.774  34.841  25.073  1.00  0.00    -0.324 OA
HETATM   12  C   LIG     1      17.630  34.858  26.209  1.00  0.00     0.213 C 
ENDBRANCH   1  11
TORSDOF 1
ENDMDL
