MODEL 1
REMARK VINA RESULT:      -8.7      0.000      0.000
REMARK  1 active torsions:
REMARK  status: ('A' for Active; 'I' for Inactive)
REMARK    1  A    between atoms: C_10  and  C_11 
ROOT
HETATM    1  O   LIG     1      16.719  38.782  22.443  1.00  0.00    -0.259 OA
HETATM    2  C   LIG     1      16.733  37.530  22.592  1.00  0.00     0.302 A 
HETATM    3  C   LIG     1      17.135  36.955  23.808  1.00  0.00     0.068 A 
HETATM    4  C   LIG     1      17.541  37.719  24.917  1.00  0.00     0.020 A 
HETATM    5  C   LIG     1      17.929  37.079  26.099  1.00  0.00     0.001 A 
HETATM    6  C   LIG     1      17.915  35.682  26.181  1.00  0.00     0.002 A 
HETATM    7  C   LIG     1      17.513  34.918  25.080  1.00  0.00     0.033 A 
HETATM    8  C   LIG     1      17.123  35.552  23.895  1.00  0.00     0.076 A 
HETATM    9  N   LIG     1      16.732  34.818  22.824  1.00  0.00    -0.223 NA
HETATM   10  C   LIG     1      16.350  35.423  21.666  1.00  0.00     0.184 A 
HETATM   11  O   LIG     1      16.361  36.752  21.581  1.00  0.00    -0.255 OA
ENDROOT
BRANCH  10  12
HETATM   12  C   LIG     1      15.924  34.612  20.502  1.00  0.00     0.017 A 
HETATM   13  C   LIG     1      15.756  35.200  19.233  1.00  0.00     0.016 A 
HETATM   14  C   LIG     1      15.354  34.427  18.141  1.00  0.00     0.001 A 
HETATM   15  C   LIG     1      15.117  33.059  18.299  1.00  0.00     0.000 A 
HETATM   16  C   LIG     1      15.280  32.463  19.552  1.00  0.00     0.001 A 
HETATM   17  C   LIG     1      15.681  33.233  20.648  1.00  0.00     0.016 A 
ENDBRANCH  10  12
TORSDOF 1
ENDMDL
MODEL 2
REMARK VINA RESULT:      -8.6      7.699      9.859
REMARK  1 active torsions:
REMARK  status: ('A' for Active; 'I' for Inactive)
REMARK    1  A    between atoms: C_10  and  C_11 
ROOT
HETATM    1  O   LIG     1      16.128  34.448  16.382  1.00  0.00    -0.259 OA
HETATM    2  C   LIG     1      16.394  33.727  15.383  1.00  0.00     0.302 A 
HETATM    3  C   LIG     1      15.712  32.520  15.165  1.00  0.00     0.068 A 
HETATM    4  C   LIG     1      14.708  32.043  16.027  1.00  0.00     0.020 A 
HETATM    5  C   LIG     1      14.069  30.830  15.748  1.00  0.00     0.001 A 
HETATM    6  C   LIG     1      14.426  30.090  14.615  1.00  0.00     0.002 A 
HETATM    7  C   LIG     1      15.425  30.560  13.754  1.00  0.00     0.033 A 
HETATM    8  C   LIG     1      16.068  31.773  14.027  1.00  0.00     0.076 A 
HETATM    9  N   LIG     1      17.036  32.234  13.198  1.00  0.00    -0.223 NA
HETATM   10  C   LIG     1      17.668  33.413  13.454  1.00  0.00     0.184 A 
HETATM   11  O   LIG     1      17.334  34.122  14.530  1.00  0.00    -0.255 OA
ENDROOT
BRANCH  10  12
HETATM   12  C   LIG     1      18.726  33.908  12.541  1.00  0.00     0.017 A 
HETATM   13  C   LIG     1      18.395  34.519  11.317  1.00  0.00     0.016 A 
HETATM   14  C   LIG     1      19.399  34.984  10.463  1.00  0.00     0.001 A 
HETATM   15  C   LIG     1      20.743  34.846  10.820  1.00  0.00     0.000 A 
HETATM   16  C   LIG     1      21.084  34.241  12.031  1.00  0.00     0.001 A 
HETATM   17  C   LIG     1      20.083  33.774  12.889  1.00  0.00     0.016 A 
ENDBRANCH  10  12
TORSDOF 1
ENDMDL
MODEL 3
REMARK VINA RESULT:      -8.4      2.381      3.136
REMARK  1 active torsions:
REMARK  status: ('A' for Active; 'I' for Inactive)
REMARK    1  A    between atoms: C_10  and  C_11 
ROOT
HETATM    1  O   LIG     1      15.671  37.337  23.063  1.00  0.00    -0.259 OA
HETATM    2  C   LIG     1      16.243  36.936  22.014  1.00  0.00     0.302 A 
HETATM    3  C   LIG     1      17.382  37.591  21.521  1.00  0.00     0.068 A 
HETATM    4  C   LIG     1      17.951  38.713  22.150  1.00  0.00     0.020 A 
HETATM    5  C   LIG     1      19.088  39.316  21.603  1.00  0.00     0.001 A 
HETATM    6  C   LIG     1      19.661  38.807  20.432  1.00  0.00     0.002 A 
HETATM    7  C   LIG     1      19.099  37.691  19.802  1.00  0.00     0.033 A 
HETATM    8  C   LIG     1      17.961  37.083  20.344  1.00  0.00     0.076 A 
HETATM    9  N   LIG     1      17.411  36.001  19.739  1.00  0.00    -0.223 NA
HETATM   10  C   LIG     1      16.305  35.401  20.258  1.00  0.00     0.184 A 
HETATM   11  O   LIG     1      15.754  35.881  21.372  1.00  0.00    -0.255 OA
ENDROOT
BRANCH  10  12
HETATM   12  C   LIG     1      15.711  34.220  19.589  1.00  0.00     0.017 A 
HETATM   13  C   LIG     1      15.381  34.254  18.220  1.00  0.00     0.016 A 
HETATM   14  C   LIG     1      14.822  33.135  17.597  1.00  0.00     0.001 A 
HETATM   15  C   LIG     1      14.585  31.970  18.331  1.00  0.00     0.000 A 
HETATM   16  C   LIG     1      14.907  31.923  19.689  1.00  0.00     0.001 A 
HETATM   17  C   LIG     1      15.467  33.040  20.317  1.00  0.00     0.016 A 
ENDBRANCH  10  12
TORSDOF 1
ENDMDL
MODEL 4
REMARK VINA RESULT:      -7.7      2.072      2.448
REMARK  1 active torsions:
REMARK  status: ('A' for Active; 'I' for Inactive)
REMARK    1  A    between atoms: C_10  and  C_11 
ROOT
HETATM    1  O   LIG     1      18.948  37.468  19.528  1.00  0.00    -0.259 OA
HETATM    2  C   LIG     1      17.977  36.924  20.118  1.00  0.00     0.302 A 
HETATM    3  C   LIG     1      17.539  37.394  21.366  1.00  0.00     0.068 A 
HETATM    4  C   LIG     1      18.140  38.481  22.027  1.00  0.00     0.020 A 
HETATM    5  C   LIG     1      17.650  38.896  23.270  1.00  0.00     0.001 A 
HETATM    6  C   LIG     1      16.566  38.235  23.857  1.00  0.00     0.002 A 
HETATM    7  C   LIG     1      15.964  37.154  23.204  1.00  0.00     0.033 A 
HETATM    8  C   LIG     1      16.448  36.733  21.960  1.00  0.00     0.076 A 
HETATM    9  N   LIG     1      15.871  35.686  21.321  1.00  0.00    -0.223 NA
HETATM   10  C   LIG     1      16.333  35.268  20.111  1.00  0.00     0.184 A 
HETATM   11  O   LIG     1      17.365  35.892  19.546  1.00  0.00    -0.255 OA
ENDROOT
BRANCH  10  12
HETATM   12  C   LIG     1      15.695  34.122  19.420  1.00  0.00     0.017 A 
HETATM   13  C   LIG     1      15.368  34.194  18.052  1.00  0.00     0.016 A 
HETATM   14  C   LIG     1      14.766  33.108  17.410  1.00  0.00     0.001 A 
HETATM   15  C   LIG     1      14.484  31.940  18.122  1.00  0.00     0.000 A 
HETATM   16  C   LIG     1      14.803  31.857  19.479  1.00  0.00     0.001 A 
HETATM   17  C   LIG     1      15.405  32.940  20.127  1.00  0.00     0.016 A 
ENDBRANCH  10  12
TORSDOF 1
ENDMDL
MODEL 5
REMARK VINA RESULT:      -7.5      4.256      8.515
REMARK  1 active torsions:
REMARK  status: ('A' for Active; 'I' for Inactive)
REMARK    1  A    between atoms: C_10  and  C_11 
ROOT
HETATM    1  O   LIG     1      17.325  32.272  14.845  1.00  0.00    -0.259 OA
HETATM    2  C   LIG     1      16.329  32.110  15.600  1.00  0.00     0.302 A 
HETATM    3  C   LIG     1      15.277  31.259  15.229  1.00  0.00     0.068 A 
HETATM    4  C   LIG     1      15.262  30.544  14.017  1.00  0.00     0.020 A 
HETATM    5  C   LIG     1      14.180  29.713  13.712  1.00  0.00     0.001 A 
HETATM    6  C   LIG     1      13.112  29.590  14.608  1.00  0.00     0.002 A 
HETATM    7  C   LIG     1      13.121  30.298  15.814  1.00  0.00     0.033 A 
HETATM    8  C   LIG     1      14.201  31.132  16.126  1.00  0.00     0.076 A 
HETATM    9  N   LIG     1      14.216  31.822  17.293  1.00  0.00    -0.223 NA
HETATM   10  C   LIG     1      15.262  32.635  17.607  1.00  0.00     0.184 A 
HETATM   11  O   LIG     1      16.282  32.757  16.759  1.00  0.00    -0.255 OA
ENDROOT
BRANCH  10  12
HETATM   12  C   LIG     1      15.269  33.385  18.885  1.00  0.00     0.017 A 
HETATM   13  C   LIG     1      15.626  34.747  18.922  1.00  0.00     0.016 A 
HETATM   14  C   LIG     1      15.630  35.446  20.132  1.00  0.00     0.001 A 
HETATM   15  C   LIG     1      15.278  34.797  21.318  1.00  0.00     0.000 A 
HETATM   16  C   LIG     1      14.923  33.447  21.295  1.00  0.00     0.001 A 
HETATM   17  C   LIG     1      14.918  32.742  20.087  1.00  0.00     0.016 A 
ENDBRANCH  10  12
TORSDOF 1
ENDMDL
MODEL 6
REMARK VINA RESULT:      -7.5      7.276      9.716
REMARK  1 active torsions:
REMARK  status: ('A' for Active; 'I' for Inactive)
REMARK    1  A    between atoms: C_10  and  C_11 
ROOT
HETATM    1  O   LIG     1      15.591  30.314  13.263  1.00  0.00    -0.259 OA
HETATM    2  C   LIG     1      16.073  31.396  13.694  1.00  0.00     0.302 A 
HETATM    3  C   LIG     1      15.605  31.967  14.888  1.00  0.00     0.068 A 
HETATM    4  C   LIG     1      14.589  31.385  15.667  1.00  0.00     0.020 A 
HETATM    5  C   LIG     1      14.172  32.010  16.846  1.00  0.00     0.001 A 
HETATM    6  C   LIG     1      14.761  33.212  17.253  1.00  0.00     0.002 A 
HETATM    7  C   LIG     1      15.772  33.795  16.482  1.00  0.00     0.033 A 
HETATM    8  C   LIG     1      16.195  33.175  15.301  1.00  0.00     0.076 A 
HETATM    9  N   LIG     1      17.174  33.735  14.548  1.00  0.00    -0.223 NA
HETATM   10  C   LIG     1      17.593  33.141  13.398  1.00  0.00     0.184 A 
HETATM   11  O   LIG     1      17.037  31.997  13.004  1.00  0.00    -0.255 OA
ENDROOT
BRANCH  10  12
HETATM   12  C   LIG     1      18.664  33.761  12.582  1.00  0.00     0.017 A 
HETATM   13  C   LIG     1      18.363  34.421  11.375  1.00  0.00     0.016 A 
HETATM   14  C   LIG     1      19.379  35.003  10.613  1.00  0.00     0.001 A 
HETATM   15  C   LIG     1      20.706  34.935  11.044  1.00  0.00     0.000 A 
HETATM   16  C   LIG     1      21.018  34.282  12.239  1.00  0.00     0.001 A 
HETATM   17  C   LIG     1      20.005  33.698  13.005  1.00  0.00     0.016 A 
ENDBRANCH  10  12
TORSDOF 1
ENDMDL
MODEL 7
REMARK VINA RESULT:      -7.0      4.401      6.735
REMARK  1 active torsions:
REMARK  status: ('A' for Active; 'I' for Inactive)
REMARK    1  A    between atoms: C_10  and  C_11 
ROOT
HETATM    1  O   LIG     1      15.814  35.062  16.083  1.00  0.00    -0.259 OA
HETATM    2  C   LIG     1      15.462  33.977  16.620  1.00  0.00     0.302 A 
HETATM    3  C   LIG     1      15.411  33.850  18.017  1.00  0.00     0.068 A 
HETATM    4  C   LIG     1      15.740  34.900  18.893  1.00  0.00     0.020 A 
HETATM    5  C   LIG     1      15.666  34.702  20.276  1.00  0.00     0.001 A 
HETATM    6  C   LIG     1      15.266  33.463  20.790  1.00  0.00     0.002 A 
HETATM    7  C   LIG     1      14.937  32.416  19.923  1.00  0.00     0.033 A 
HETATM    8  C   LIG     1      15.009  32.607  18.538  1.00  0.00     0.076 A 
HETATM    9  N   LIG     1      14.692  31.596  17.691  1.00  0.00    -0.223 NA
HETATM   10  C   LIG     1      14.758  31.771  16.343  1.00  0.00     0.184 A 
HETATM   11  O   LIG     1      15.139  32.946  15.847  1.00  0.00    -0.255 OA
ENDROOT
BRANCH  10  12
HETATM   12  C   LIG     1      14.410  30.659  15.427  1.00  0.00     0.017 A 
HETATM   13  C   LIG     1      15.404  30.003  14.676  1.00  0.00     0.016 A 
HETATM   14  C   LIG     1      15.066  28.956  13.814  1.00  0.00     0.001 A 
HETATM   15  C   LIG     1      13.735  28.551  13.691  1.00  0.00     0.000 A 
HETATM   16  C   LIG     1      12.739  29.193  14.430  1.00  0.00     0.001 A 
HETATM   17  C   LIG     1      13.072  30.242  15.294  1.00  0.00     0.016 A 
ENDBRANCH  10  12
TORSDOF 1
ENDMDL
MODEL 8
REMARK VINA RESULT:      -6.9      2.989      7.099
REMARK  1 active torsions:
REMARK  status: ('A' for Active; 'I' for Inactive)
REMARK    1  A    between atoms: C_10  and  C_11 
ROOT
HETATM    1  O   LIG     1      16.461  34.707  15.539  1.00  0.00    -0.259 OA
HETATM    2  C   LIG     1      15.971  34.261  16.611  1.00  0.00     0.302 A 
HETATM    3  C   LIG     1      15.261  33.050  16.628  1.00  0.00     0.068 A 
HETATM    4  C   LIG     1      15.054  32.269  15.477  1.00  0.00     0.020 A 
HETATM    5  C   LIG     1      14.337  31.072  15.568  1.00  0.00     0.001 A 
HETATM    6  C   LIG     1      13.825  30.649  16.799  1.00  0.00     0.002 A 
HETATM    7  C   LIG     1      14.028  31.422  17.948  1.00  0.00     0.033 A 
HETATM    8  C   LIG     1      14.745  32.621  17.864  1.00  0.00     0.076 A 
HETATM    9  N   LIG     1      14.946  33.376  18.972  1.00  0.00    -0.223 NA
HETATM   10  C   LIG     1      15.642  34.544  18.903  1.00  0.00     0.184 A 
HETATM   11  O   LIG     1      16.131  34.953  17.734  1.00  0.00    -0.255 OA
ENDROOT
BRANCH  10  12
HETATM   12  C   LIG     1      15.855  35.362  20.121  1.00  0.00     0.017 A 
HETATM   13  C   LIG     1      17.124  35.896  20.419  1.00  0.00     0.016 A 
HETATM   14  C   LIG     1      17.315  36.666  21.569  1.00  0.00     0.001 A 
HETATM   15  C   LIG     1      16.247  36.913  22.434  1.00  0.00     0.000 A 
HETATM   16  C   LIG     1      14.984  36.389  22.150  1.00  0.00     0.001 A 
HETATM   17  C   LIG     1      14.786  35.617  21.000  1.00  0.00     0.016 A 
ENDBRANCH  10  12
TORSDOF 1
ENDMDL
MODEL 9
REMARK VINA RESULT:      -6.6      1.032      5.792
REMARK  1 active torsions:
REMARK  status: ('A' for Active; 'I' for Inactive)
REMARK    1  A    between atoms: C_10  and  C_11 
ROOT
HETATM    1  O   LIG     1      17.655  37.142  19.645  1.00  0.00    -0.259 OA
HETATM    2  C   LIG     1      17.202  36.308  20.474  1.00  0.00     0.302 A 
HETATM    3  C   LIG     1      16.433  35.214  20.047  1.00  0.00     0.068 A 
HETATM    4  C   LIG     1      16.124  34.979  18.695  1.00  0.00     0.020 A 
HETATM    5  C   LIG     1      15.353  33.867  18.341  1.00  0.00     0.001 A 
HETATM    6  C   LIG     1      14.888  32.989  19.326  1.00  0.00     0.002 A 
HETATM    7  C   LIG     1      15.192  33.219  20.672  1.00  0.00     0.033 A 
HETATM    8  C   LIG     1      15.964  34.329  21.034  1.00  0.00     0.076 A 
HETATM    9  N   LIG     1      16.263  34.558  22.337  1.00  0.00    -0.223 NA
HETATM   10  C   LIG     1      17.013  35.634  22.700  1.00  0.00     0.184 A 
HETATM   11  O   LIG     1      17.458  36.474  21.767  1.00  0.00    -0.255 OA
ENDROOT
BRANCH  10  12
HETATM   12  C   LIG     1      17.334  35.876  24.127  1.00  0.00     0.017 A 
HETATM   13  C   LIG     1      17.458  37.186  24.627  1.00  0.00     0.016 A 
HETATM   14  C   LIG     1      17.761  37.404  25.974  1.00  0.00     0.001 A 
HETATM   15  C   LIG     1      17.942  36.320  26.837  1.00  0.00     0.000 A 
HETATM   16  C   LIG     1      17.822  35.016  26.352  1.00  0.00     0.001 A 
HETATM   17  C   LIG     1      17.519  34.792  25.006  1.00  0.00     0.016 A 
ENDBRANCH  10  12
TORSDOF 1
ENDMDL
MODEL 10
REMARK VINA RESULT:      -6.0      1.368      6.091
REMARK  1 active torsions:
REMARK  status: ('A' for Active; 'I' for Inactive)
REMARK    1  A    between atoms: C_10  and  C_11 
ROOT
HETATM    1  O   LIG     1      16.545  35.666  18.029  1.00  0.00    -0.259 OA
HETATM    2  C   LIG     1      16.253  35.074  19.102  1.00  0.00     0.302 A 
HETATM    3  C   LIG     1      15.609  33.826  19.083  1.00  0.00     0.068 A 
HETATM    4  C   LIG     1      15.255  33.167  17.891  1.00  0.00     0.020 A 
HETATM    5  C   LIG     1      14.616  31.925  17.947  1.00  0.00     0.001 A 
HETATM    6  C   LIG     1      14.326  31.336  19.183  1.00  0.00     0.002 A 
HETATM    7  C   LIG     1      14.676  31.987  20.370  1.00  0.00     0.033 A 
HETATM    8  C   LIG     1      15.317  33.230  20.323  1.00  0.00     0.076 A 
HETATM    9  N   LIG     1      15.659  33.868  21.470  1.00  0.00    -0.223 NA
HETATM   10  C   LIG     1      16.283  35.077  21.435  1.00  0.00     0.184 A 
HETATM   11  O   LIG     1      16.560  35.644  20.262  1.00  0.00    -0.255 OA
ENDROOT
BRANCH  10  12
HETATM   12  C   LIG     1      16.652  35.765  22.694  1.00  0.00     0.017 A 
HETATM   13  C   LIG     1      17.103  35.036  23.811  1.00  0.00     0.016 A 
HETATM   14  C   LIG     1      17.449  35.694  24.995  1.00  0.00     0.001 A 
HETATM   15  C   LIG     1      17.351  37.084  25.078  1.00  0.00     0.000 A 
HETATM   16  C   LIG     1      16.905  37.820  23.978  1.00  0.00     0.001 A 
HETATM   17  C   LIG     1      16.557  37.167  22.791  1.00  0.00     0.016 A 
ENDBRANCH  10  12
TORSDOF 1
ENDMDL
