MODEL 1
REMARK VINA RESULT:      -6.4      0.000      0.000
REMARK  2 active torsions:
REMARK  status: ('A' for Active; 'I' for Inactive)
REMARK    1  A    between atoms: C_2  and  N_3 
REMARK    2  A    between atoms: N_3  and  C_4 
ROOT
HETATM    1  C   LIG     1      17.263  37.278  24.853  1.00  0.00     0.027 A 
HETATM    2  C   LIG     1      17.917  37.366  26.094  1.00  0.00     0.029 A 
HETATM    3  C   LIG     1      18.335  36.210  26.761  1.00  0.00     0.002 A 
HETATM    4  C   LIG     1      18.100  34.954  26.198  1.00  0.00     0.000 A 
HETATM    5  C   LIG     1      17.444  34.852  24.970  1.00  0.00     0.002 A 
HETATM    6  C   LIG     1      17.024  36.005  24.298  1.00  0.00     0.029 A 
ENDROOT
BRANCH   1   7
HETATM    7  N   LIG     1      16.840  38.490  24.197  1.00  0.00    -0.390 N 
HETATM    8  H   LIG     1      16.537  39.296  24.790  1.00  0.00     0.159 HD
BRANCH   7   9
HETATM    9  C   LIG     1      16.811  38.686  22.747  1.00  0.00     0.115 C 
HETATM   10  C   LIG     1      18.217  38.927  22.204  1.00  0.00     0.026 C 
ENDBRANCH   7   9
ENDBRANCH   1   7
TORSDOF 2
ENDMDL
MODEL 2
REMARK VINA RESULT:      -6.4      0.037      1.614
REMARK  2 active torsions:
REMARK  status: ('A' for Active; 'I' for Inactive)
REMARK    1  A    between atoms: C_2  and  N_3 
REMARK    2  A    between atoms: N_3  and  C_4 
ROOT
HETATM    1  C   LIG     1      17.267  37.305  24.879  1.00  0.00     0.027 A 
HETATM    2  C   LIG     1      17.022  36.051  24.294  1.00  0.00     0.029 A 
HETATM    3  C   LIG     1      17.424  34.876  24.938  1.00  0.00     0.002 A 
HETATM    4  C   LIG     1      18.078  34.941  26.170  1.00  0.00     0.000 A 
HETATM    5  C   LIG     1      18.336  36.181  26.758  1.00  0.00     0.002 A 
HETATM    6  C   LIG     1      17.935  37.359  26.119  1.00  0.00     0.029 A 
ENDROOT
BRANCH   1   7
HETATM    7  N   LIG     1      16.846  38.496  24.185  1.00  0.00    -0.390 N 
HETATM    8  H   LIG     1      16.546  39.321  24.752  1.00  0.00     0.159 HD
BRANCH   7   9
HETATM    9  C   LIG     1      16.815  38.645  22.729  1.00  0.00     0.115 C 
HETATM   10  C   LIG     1      18.208  38.950  22.185  1.00  0.00     0.026 C 
ENDBRANCH   7   9
ENDBRANCH   1   7
TORSDOF 2
ENDMDL
MODEL 3
REMARK VINA RESULT:      -5.9      1.721      3.944
REMARK  2 active torsions:
REMARK  status: ('A' for Active; 'I' for Inactive)
REMARK    1  A    between atoms: C_2  and  N_3 
REMARK    2  A    between atoms: N_3  and  C_4 
ROOT
HETATM    1  C   LIG     1      17.030  37.541  22.954  1.00  0.00     0.027 A 
HETATM    2  C   LIG     1      17.797  38.508  22.282  1.00  0.00     0.029 A 
HETATM    3  C   LIG     1      18.336  38.237  21.020  1.00  0.00     0.002 A 
HETATM    4  C   LIG     1      18.120  36.995  20.419  1.00  0.00     0.000 A 
HETATM    5  C   LIG     1      17.367  36.022  21.079  1.00  0.00     0.002 A 
HETATM    6  C   LIG     1      16.825  36.289  22.341  1.00  0.00     0.029 A 
ENDROOT
BRANCH   1   7
HETATM    7  N   LIG     1      16.496  37.852  24.256  1.00  0.00    -0.390 N 
HETATM    8  H   LIG     1      15.457  37.876  24.374  1.00  0.00     0.159 HD
BRANCH   7   9
HETATM    9  C   LIG     1      17.305  38.130  25.445  1.00  0.00     0.115 C 
HETATM   10  C   LIG     1      18.174  36.929  25.802  1.00  0.00     0.026 C 
ENDBRANCH   7   9
ENDBRANCH   1   7
TORSDOF 2
ENDMDL
MODEL 4
REMARK VINA RESULT:      -5.9      1.686      4.212
REMARK  2 active torsions:
REMARK  status: ('A' for Active; 'I' for Inactive)
REMARK    1  A    between atoms: C_2  and  N_3 
REMARK    2  A    between atoms: N_3  and  C_4 
ROOT
HETATM    1  C   LIG     1      17.120  37.642  22.915  1.00  0.00     0.027 A 
HETATM    2  C   LIG     1      16.894  36.418  22.262  1.00  0.00     0.029 A 
HETATM    3  C   LIG     1      17.435  36.176  20.995  1.00  0.00     0.002 A 
HETATM    4  C   LIG     1      18.204  37.156  20.364  1.00  0.00     0.000 A 
HETATM    5  C   LIG     1      18.430  38.380  20.997  1.00  0.00     0.002 A 
HETATM    6  C   LIG     1      17.892  38.626  22.265  1.00  0.00     0.029 A 
ENDROOT
BRANCH   1   7
HETATM    7  N   LIG     1      16.542  37.859  24.216  1.00  0.00    -0.390 N 
HETATM    8  H   LIG     1      15.502  37.810  24.312  1.00  0.00     0.159 HD
BRANCH   7   9
HETATM    9  C   LIG     1      17.307  38.137  25.433  1.00  0.00     0.115 C 
HETATM   10  C   LIG     1      18.174  36.940  25.813  1.00  0.00     0.026 C 
ENDBRANCH   7   9
ENDBRANCH   1   7
TORSDOF 2
ENDMDL
MODEL 5
REMARK VINA RESULT:      -5.6      2.287      5.110
REMARK  2 active torsions:
REMARK  status: ('A' for Active; 'I' for Inactive)
REMARK    1  A    between atoms: C_2  and  N_3 
REMARK    2  A    between atoms: N_3  and  C_4 
ROOT
HETATM    1  C   LIG     1      17.642  37.289  21.260  1.00  0.00     0.027 A 
HETATM    2  C   LIG     1      17.924  38.616  21.625  1.00  0.00     0.029 A 
HETATM    3  C   LIG     1      18.874  39.362  20.920  1.00  0.00     0.002 A 
HETATM    4  C   LIG     1      19.557  38.787  19.846  1.00  0.00     0.000 A 
HETATM    5  C   LIG     1      19.293  37.466  19.478  1.00  0.00     0.002 A 
HETATM    6  C   LIG     1      18.343  36.717  20.179  1.00  0.00     0.029 A 
ENDROOT
BRANCH   1   7
HETATM    7  N   LIG     1      16.662  36.548  22.014  1.00  0.00    -0.390 N 
HETATM    8  H   LIG     1      15.746  37.008  22.224  1.00  0.00     0.159 HD
BRANCH   7   9
HETATM    9  C   LIG     1      16.846  35.181  22.504  1.00  0.00     0.115 C 
HETATM   10  C   LIG     1      17.157  35.178  23.998  1.00  0.00     0.026 C 
ENDBRANCH   7   9
ENDBRANCH   1   7
TORSDOF 2
ENDMDL
MODEL 6
REMARK VINA RESULT:      -5.6      4.070      5.550
REMARK  2 active torsions:
REMARK  status: ('A' for Active; 'I' for Inactive)
REMARK    1  A    between atoms: C_2  and  N_3 
REMARK    2  A    between atoms: N_3  and  C_4 
ROOT
HETATM    1  C   LIG     1      17.959  36.886  20.801  1.00  0.00     0.027 A 
HETATM    2  C   LIG     1      18.871  36.940  19.733  1.00  0.00     0.029 A 
HETATM    3  C   LIG     1      19.570  38.120  19.454  1.00  0.00     0.002 A 
HETATM    4  C   LIG     1      19.360  39.258  20.234  1.00  0.00     0.000 A 
HETATM    5  C   LIG     1      18.450  39.221  21.292  1.00  0.00     0.002 A 
HETATM    6  C   LIG     1      17.750  38.044  21.577  1.00  0.00     0.029 A 
ENDROOT
BRANCH   1   7
HETATM    7  N   LIG     1      17.251  35.657  21.056  1.00  0.00    -0.390 N 
HETATM    8  H   LIG     1      17.660  34.983  21.743  1.00  0.00     0.159 HD
BRANCH   7   9
HETATM    9  C   LIG     1      15.984  35.278  20.428  1.00  0.00     0.115 C 
HETATM   10  C   LIG     1      14.802  35.705  21.292  1.00  0.00     0.026 C 
ENDBRANCH   7   9
ENDBRANCH   1   7
TORSDOF 2
ENDMDL
MODEL 7
REMARK VINA RESULT:      -5.5      1.209      4.109
REMARK  2 active torsions:
REMARK  status: ('A' for Active; 'I' for Inactive)
REMARK    1  A    between atoms: C_2  and  N_3 
REMARK    2  A    between atoms: N_3  and  C_4 
ROOT
HETATM    1  C   LIG     1      17.483  37.844  24.707  1.00  0.00     0.027 A 
HETATM    2  C   LIG     1      16.296  37.595  23.997  1.00  0.00     0.029 A 
HETATM    3  C   LIG     1      16.191  37.936  22.645  1.00  0.00     0.002 A 
HETATM    4  C   LIG     1      17.268  38.535  21.989  1.00  0.00     0.000 A 
HETATM    5  C   LIG     1      18.450  38.796  22.684  1.00  0.00     0.002 A 
HETATM    6  C   LIG     1      18.561  38.456  24.036  1.00  0.00     0.029 A 
ENDROOT
BRANCH   1   7
HETATM    7  N   LIG     1      17.553  37.485  26.101  1.00  0.00    -0.390 N 
HETATM    8  H   LIG     1      16.954  38.009  26.780  1.00  0.00     0.159 HD
BRANCH   7   9
HETATM    9  C   LIG     1      18.402  36.424  26.647  1.00  0.00     0.115 C 
HETATM   10  C   LIG     1      17.958  35.058  26.135  1.00  0.00     0.026 C 
ENDBRANCH   7   9
ENDBRANCH   1   7
TORSDOF 2
ENDMDL
MODEL 8
REMARK VINA RESULT:      -5.4      9.762     10.987
REMARK  2 active torsions:
REMARK  status: ('A' for Active; 'I' for Inactive)
REMARK    1  A    between atoms: C_2  and  N_3 
REMARK    2  A    between atoms: N_3  and  C_4 
ROOT
HETATM    1  C   LIG     1      14.211  31.641  16.629  1.00  0.00     0.027 A 
HETATM    2  C   LIG     1      13.249  30.699  16.227  1.00  0.00     0.029 A 
HETATM    3  C   LIG     1      13.382  30.020  15.011  1.00  0.00     0.002 A 
HETATM    4  C   LIG     1      14.474  30.280  14.181  1.00  0.00     0.000 A 
HETATM    5  C   LIG     1      15.433  31.220  14.563  1.00  0.00     0.002 A 
HETATM    6  C   LIG     1      15.306  31.901  15.779  1.00  0.00     0.029 A 
ENDROOT
BRANCH   1   7
HETATM    7  N   LIG     1      14.039  32.326  17.885  1.00  0.00    -0.390 N 
HETATM    8  H   LIG     1      13.118  32.780  18.081  1.00  0.00     0.159 HD
BRANCH   7   9
HETATM    9  C   LIG     1      15.064  32.428  18.926  1.00  0.00     0.115 C 
HETATM   10  C   LIG     1      14.860  31.359  19.994  1.00  0.00     0.026 C 
ENDBRANCH   7   9
ENDBRANCH   1   7
TORSDOF 2
ENDMDL
MODEL 9
REMARK VINA RESULT:      -5.4      9.642     10.815
REMARK  2 active torsions:
REMARK  status: ('A' for Active; 'I' for Inactive)
REMARK    1  A    between atoms: C_2  and  N_3 
REMARK    2  A    between atoms: N_3  and  C_4 
ROOT
HETATM    1  C   LIG     1      14.312  31.762  16.661  1.00  0.00     0.027 A 
HETATM    2  C   LIG     1      15.411  32.103  15.854  1.00  0.00     0.029 A 
HETATM    3  C   LIG     1      15.615  31.467  14.625  1.00  0.00     0.002 A 
HETATM    4  C   LIG     1      14.728  30.480  14.192  1.00  0.00     0.000 A 
HETATM    5  C   LIG     1      13.637  30.125  14.988  1.00  0.00     0.002 A 
HETATM    6  C   LIG     1      13.427  30.759  16.217  1.00  0.00     0.029 A 
ENDROOT
BRANCH   1   7
HETATM    7  N   LIG     1      14.136  32.433  17.925  1.00  0.00    -0.390 N 
HETATM    8  H   LIG     1      13.236  32.937  18.098  1.00  0.00     0.159 HD
BRANCH   7   9
HETATM    9  C   LIG     1      15.127  32.455  19.002  1.00  0.00     0.115 C 
HETATM   10  C   LIG     1      14.862  31.336  20.005  1.00  0.00     0.026 C 
ENDBRANCH   7   9
ENDBRANCH   1   7
TORSDOF 2
ENDMDL
MODEL 10
REMARK VINA RESULT:      -5.4      3.871      5.365
REMARK  2 active torsions:
REMARK  status: ('A' for Active; 'I' for Inactive)
REMARK    1  A    between atoms: C_2  and  N_3 
REMARK    2  A    between atoms: N_3  and  C_4 
ROOT
HETATM    1  C   LIG     1      17.787  36.863  21.001  1.00  0.00     0.027 A 
HETATM    2  C   LIG     1      17.640  38.019  21.786  1.00  0.00     0.029 A 
HETATM    3  C   LIG     1      18.288  39.207  21.432  1.00  0.00     0.002 A 
HETATM    4  C   LIG     1      19.094  39.251  20.293  1.00  0.00     0.000 A 
HETATM    5  C   LIG     1      19.257  38.107  19.508  1.00  0.00     0.002 A 
HETATM    6  C   LIG     1      18.610  36.917  19.857  1.00  0.00     0.029 A 
ENDROOT
BRANCH   1   7
HETATM    7  N   LIG     1      17.110  35.654  21.399  1.00  0.00    -0.390 N 
HETATM    8  H   LIG     1      17.624  34.973  22.003  1.00  0.00     0.159 HD
BRANCH   7   9
HETATM    9  C   LIG     1      15.737  35.307  21.028  1.00  0.00     0.115 C 
HETATM   10  C   LIG     1      15.688  33.942  20.347  1.00  0.00     0.026 C 
ENDBRANCH   7   9
ENDBRANCH   1   7
TORSDOF 2
ENDMDL
MODEL 11
REMARK VINA RESULT:      -5.1     12.502     13.529
REMARK  2 active torsions:
REMARK  status: ('A' for Active; 'I' for Inactive)
REMARK    1  A    between atoms: C_2  and  N_3 
REMARK    2  A    between atoms: N_3  and  C_4 
ROOT
HETATM    1  C   LIG     1      13.425  29.715  14.502  1.00  0.00     0.027 A 
HETATM    2  C   LIG     1      13.040  30.406  15.663  1.00  0.00     0.029 A 
HETATM    3  C   LIG     1      13.888  31.359  16.238  1.00  0.00     0.002 A 
HETATM    4  C   LIG     1      15.131  31.628  15.662  1.00  0.00     0.000 A 
HETATM    5  C   LIG     1      15.530  30.942  14.513  1.00  0.00     0.002 A 
HETATM    6  C   LIG     1      14.686  29.989  13.933  1.00  0.00     0.029 A 
ENDROOT
BRANCH   1   7
HETATM    7  N   LIG     1      12.529  28.735  13.941  1.00  0.00    -0.390 N 
HETATM    8  H   LIG     1      11.554  29.031  13.707  1.00  0.00     0.159 HD
BRANCH   7   9
HETATM    9  C   LIG     1      12.887  27.344  13.658  1.00  0.00     0.115 C 
HETATM   10  C   LIG     1      11.796  26.659  12.840  1.00  0.00     0.026 C 
ENDBRANCH   7   9
ENDBRANCH   1   7
TORSDOF 2
ENDMDL
MODEL 12
REMARK VINA RESULT:      -5.0      2.781      3.768
REMARK  2 active torsions:
REMARK  status: ('A' for Active; 'I' for Inactive)
REMARK    1  A    between atoms: C_2  and  N_3 
REMARK    2  A    between atoms: N_3  and  C_4 
ROOT
HETATM    1  C   LIG     1      16.894  35.692  22.836  1.00  0.00     0.027 A 
HETATM    2  C   LIG     1      17.189  35.196  24.118  1.00  0.00     0.029 A 
HETATM    3  C   LIG     1      17.426  36.072  25.183  1.00  0.00     0.002 A 
HETATM    4  C   LIG     1      17.375  37.452  24.977  1.00  0.00     0.000 A 
HETATM    5  C   LIG     1      17.092  37.959  23.707  1.00  0.00     0.002 A 
HETATM    6  C   LIG     1      16.853  37.087  22.639  1.00  0.00     0.029 A 
ENDROOT
BRANCH   1   7
HETATM    7  N   LIG     1      16.663  34.761  21.761  1.00  0.00    -0.390 N 
HETATM    8  H   LIG     1      17.489  34.295  21.321  1.00  0.00     0.159 HD
BRANCH   7   9
HETATM    9  C   LIG     1      15.343  34.403  21.237  1.00  0.00     0.115 C 
HETATM   10  C   LIG     1      15.469  33.425  20.073  1.00  0.00     0.026 C 
ENDBRANCH   7   9
ENDBRANCH   1   7
TORSDOF 2
ENDMDL
MODEL 13
REMARK VINA RESULT:      -4.9      9.921     10.915
REMARK  2 active torsions:
REMARK  status: ('A' for Active; 'I' for Inactive)
REMARK    1  A    between atoms: C_2  and  N_3 
REMARK    2  A    between atoms: N_3  and  C_4 
ROOT
HETATM    1  C   LIG     1      15.442  32.318  15.840  1.00  0.00     0.027 A 
HETATM    2  C   LIG     1      15.289  31.281  14.904  1.00  0.00     0.029 A 
HETATM    3  C   LIG     1      14.170  30.442  14.948  1.00  0.00     0.002 A 
HETATM    4  C   LIG     1      13.197  30.626  15.932  1.00  0.00     0.000 A 
HETATM    5  C   LIG     1      13.341  31.646  16.874  1.00  0.00     0.002 A 
HETATM    6  C   LIG     1      14.456  32.489  16.833  1.00  0.00     0.029 A 
ENDROOT
BRANCH   1   7
HETATM    7  N   LIG     1      16.610  33.159  15.768  1.00  0.00    -0.390 N 
HETATM    8  H   LIG     1      16.663  33.990  16.401  1.00  0.00     0.159 HD
BRANCH   7   9
HETATM    9  C   LIG     1      17.748  32.932  14.875  1.00  0.00     0.115 C 
HETATM   10  C   LIG     1      17.897  34.082  13.884  1.00  0.00     0.026 C 
ENDBRANCH   7   9
ENDBRANCH   1   7
TORSDOF 2
ENDMDL
MODEL 14
REMARK VINA RESULT:      -4.8     11.933     12.962
REMARK  2 active torsions:
REMARK  status: ('A' for Active; 'I' for Inactive)
REMARK    1  A    between atoms: C_2  and  N_3 
REMARK    2  A    between atoms: N_3  and  C_4 
ROOT
HETATM    1  C   LIG     1      14.622  30.124  14.466  1.00  0.00     0.027 A 
HETATM    2  C   LIG     1      13.400  29.981  15.143  1.00  0.00     0.029 A 
HETATM    3  C   LIG     1      13.055  30.852  16.182  1.00  0.00     0.002 A 
HETATM    4  C   LIG     1      13.930  31.873  16.558  1.00  0.00     0.000 A 
HETATM    5  C   LIG     1      15.152  32.021  15.900  1.00  0.00     0.002 A 
HETATM    6  C   LIG     1      15.502  31.153  14.860  1.00  0.00     0.029 A 
ENDROOT
BRANCH   1   7
HETATM    7  N   LIG     1      14.948  29.204  13.406  1.00  0.00    -0.390 N 
HETATM    8  H   LIG     1      14.952  29.561  12.423  1.00  0.00     0.159 HD
BRANCH   7   9
HETATM    9  C   LIG     1      15.289  27.794  13.601  1.00  0.00     0.115 C 
HETATM   10  C   LIG     1      15.823  27.181  12.310  1.00  0.00     0.026 C 
ENDBRANCH   7   9
ENDBRANCH   1   7
TORSDOF 2
ENDMDL
MODEL 15
REMARK VINA RESULT:      -4.0     12.341     13.232
REMARK  2 active torsions:
REMARK  status: ('A' for Active; 'I' for Inactive)
REMARK    1  A    between atoms: C_2  and  N_3 
REMARK    2  A    between atoms: N_3  and  C_4 
ROOT
HETATM    1  C   LIG     1      14.731  29.896  14.432  1.00  0.00     0.027 A 
HETATM    2  C   LIG     1      13.341  29.697  14.468  1.00  0.00     0.029 A 
HETATM    3  C   LIG     1      12.785  28.479  14.062  1.00  0.00     0.002 A 
HETATM    4  C   LIG     1      13.612  27.449  13.609  1.00  0.00     0.000 A 
HETATM    5  C   LIG     1      14.995  27.636  13.560  1.00  0.00     0.002 A 
HETATM    6  C   LIG     1      15.556  28.851  13.966  1.00  0.00     0.029 A 
ENDROOT
BRANCH   1   7
HETATM    7  N   LIG     1      15.269  31.165  14.852  1.00  0.00    -0.390 N 
HETATM    8  H   LIG     1      15.093  31.478  15.834  1.00  0.00     0.159 HD
BRANCH   7   9
HETATM    9  C   LIG     1      16.060  32.058  14.003  1.00  0.00     0.115 C 
HETATM   10  C   LIG     1      17.011  32.904  14.843  1.00  0.00     0.026 C 
ENDBRANCH   7   9
ENDBRANCH   1   7
TORSDOF 2
ENDMDL
MODEL 16
REMARK VINA RESULT:      -3.9      8.294      9.195
REMARK  2 active torsions:
REMARK  status: ('A' for Active; 'I' for Inactive)
REMARK    1  A    between atoms: C_2  and  N_3 
REMARK    2  A    between atoms: N_3  and  C_4 
ROOT
HETATM    1  C   LIG     1      14.692  32.444  17.606  1.00  0.00     0.027 A 
HETATM    2  C   LIG     1      15.049  33.800  17.515  1.00  0.00     0.029 A 
HETATM    3  C   LIG     1      15.481  34.499  18.647  1.00  0.00     0.002 A 
HETATM    4  C   LIG     1      15.557  33.852  19.882  1.00  0.00     0.000 A 
HETATM    5  C   LIG     1      15.197  32.507  19.988  1.00  0.00     0.002 A 
HETATM    6  C   LIG     1      14.765  31.803  18.859  1.00  0.00     0.029 A 
ENDROOT
BRANCH   1   7
HETATM    7  N   LIG     1      14.244  31.757  16.420  1.00  0.00    -0.390 N 
HETATM    8  H   LIG     1      13.243  31.459  16.368  1.00  0.00     0.159 HD
BRANCH   7   9
HETATM    9  C   LIG     1      15.090  31.449  15.266  1.00  0.00     0.115 C 
HETATM   10  C   LIG     1      14.625  30.168  14.580  1.00  0.00     0.026 C 
ENDBRANCH   7   9
ENDBRANCH   1   7
TORSDOF 2
ENDMDL
MODEL 17
REMARK VINA RESULT:      -3.8      9.946     11.333
REMARK  2 active torsions:
REMARK  status: ('A' for Active; 'I' for Inactive)
REMARK    1  A    between atoms: C_2  and  N_3 
REMARK    2  A    between atoms: N_3  and  C_4 
ROOT
HETATM    1  C   LIG     1      15.849  32.538  15.619  1.00  0.00     0.027 A 
HETATM    2  C   LIG     1      15.640  31.825  14.427  1.00  0.00     0.029 A 
HETATM    3  C   LIG     1      16.369  32.136  13.274  1.00  0.00     0.002 A 
HETATM    4  C   LIG     1      17.311  33.167  13.299  1.00  0.00     0.000 A 
HETATM    5  C   LIG     1      17.523  33.890  14.475  1.00  0.00     0.002 A 
HETATM    6  C   LIG     1      16.798  33.582  15.631  1.00  0.00     0.029 A 
ENDROOT
BRANCH   1   7
HETATM    7  N   LIG     1      15.076  32.195  16.786  1.00  0.00    -0.390 N 
HETATM    8  H   LIG     1      15.585  31.925  17.658  1.00  0.00     0.159 HD
BRANCH   7   9
HETATM    9  C   LIG     1      13.613  32.206  16.849  1.00  0.00     0.115 C 
HETATM   10  C   LIG     1      13.044  30.840  16.477  1.00  0.00     0.026 C 
ENDBRANCH   7   9
ENDBRANCH   1   7
TORSDOF 2
ENDMDL
MODEL 18
REMARK VINA RESULT:      -3.7     10.783     12.055
REMARK  2 active torsions:
REMARK  status: ('A' for Active; 'I' for Inactive)
REMARK    1  A    between atoms: C_2  and  N_3 
REMARK    2  A    between atoms: N_3  and  C_4 
ROOT
HETATM    1  C   LIG     1      15.859  32.078  14.638  1.00  0.00     0.027 A 
HETATM    2  C   LIG     1      16.296  32.975  15.627  1.00  0.00     0.029 A 
HETATM    3  C   LIG     1      17.239  33.963  15.324  1.00  0.00     0.002 A 
HETATM    4  C   LIG     1      17.760  34.062  14.033  1.00  0.00     0.000 A 
HETATM    5  C   LIG     1      17.341  33.171  13.042  1.00  0.00     0.002 A 
HETATM    6  C   LIG     1      16.398  32.182  13.339  1.00  0.00     0.029 A 
ENDROOT
BRANCH   1   7
HETATM    7  N   LIG     1      14.892  31.068  14.986  1.00  0.00    -0.390 N 
HETATM    8  H   LIG     1      14.284  31.230  15.821  1.00  0.00     0.159 HD
BRANCH   7   9
HETATM    9  C   LIG     1      14.684  29.822  14.246  1.00  0.00     0.115 C 
HETATM   10  C   LIG     1      13.241  29.344  14.383  1.00  0.00     0.026 C 
ENDBRANCH   7   9
ENDBRANCH   1   7
TORSDOF 2
ENDMDL
