REMARK  2 active torsions:
REMARK  status: ('A' for Active; 'I' for Inactive)
REMARK    1  A    between atoms: C_2  and  O_3 
REMARK    2  A    between atoms: O_3  and  C_4 
ROOT
HETATM    1  C   LIG     1       0.351  -0.302   0.073  1.00  0.00     0.068 A 
HETATM    2  C   LIG     1       0.853   0.994   0.304  1.00  0.00     0.037 A 
HETATM    3  C   LIG     1       2.230   1.204   0.424  1.00  0.00     0.003 A 
HETATM    4  C   LIG     1       3.116   0.129   0.315  1.00  0.00     0.000 A 
HETATM    5  C   LIG     1       2.625  -1.159   0.086  1.00  0.00     0.003 A 
HETATM    6  C   LIG     1       1.248  -1.373  -0.035  1.00  0.00     0.037 A 
ENDROOT
BRANCH   1   7
HETATM    7  O   LIG     1      -1.021  -0.567  -0.055  1.00  0.00    -0.352 OA
BRANCH   7   8
HETATM    8  C   LIG     1      -2.043   0.422   0.032  1.00  0.00     0.171 C 
HETATM    9  C   LIG     1      -3.401  -0.234  -0.156  1.00  0.00     0.034 C 
ENDBRANCH   7   8
ENDBRANCH   1   7
TORSDOF 2
