MODEL 1
REMARK VINA RESULT:      -6.6      0.000      0.000
REMARK  2 active torsions:
REMARK  status: ('A' for Active; 'I' for Inactive)
REMARK    1  A    between atoms: C_2  and  C_3 
REMARK    2  A    between atoms: C_3  and  C_4 
ROOT
HETATM    1  C   LIG     1      17.213  36.824  24.229  1.00  0.00    -0.058 A 
HETATM    2  C   LIG     1      17.088  35.434  24.397  1.00  0.00     0.007 A 
HETATM    3  C   LIG     1      17.625  34.808  25.526  1.00  0.00     0.001 A 
HETATM    4  C   LIG     1      18.293  35.565  26.494  1.00  0.00     0.000 A 
HETATM    5  C   LIG     1      18.426  36.946  26.333  1.00  0.00     0.001 A 
HETATM    6  C   LIG     1      17.891  37.575  25.205  1.00  0.00     0.007 A 
ENDROOT
BRANCH   1   7
HETATM    7  C   LIG     1      16.634  37.499  23.011  1.00  0.00     0.038 C 
BRANCH   7   8
HETATM    8  C   LIG     1      17.222  38.899  22.787  1.00  0.00     0.000 C 
HETATM    9  C   LIG     1      18.286  38.911  21.689  1.00  0.00     0.005 C 
ENDBRANCH   7   8
ENDBRANCH   1   7
TORSDOF 2
ENDMDL
MODEL 2
REMARK VINA RESULT:      -6.6      0.029      1.616
REMARK  2 active torsions:
REMARK  status: ('A' for Active; 'I' for Inactive)
REMARK    1  A    between atoms: C_2  and  C_3 
REMARK    2  A    between atoms: C_3  and  C_4 
ROOT
HETATM    1  C   LIG     1      17.215  36.807  24.213  1.00  0.00    -0.058 A 
HETATM    2  C   LIG     1      17.871  37.574  25.191  1.00  0.00     0.007 A 
HETATM    3  C   LIG     1      18.404  36.961  26.330  1.00  0.00     0.001 A 
HETATM    4  C   LIG     1      18.284  35.578  26.501  1.00  0.00     0.000 A 
HETATM    5  C   LIG     1      17.628  34.809  25.536  1.00  0.00     0.001 A 
HETATM    6  C   LIG     1      17.094  35.419  24.398  1.00  0.00     0.007 A 
ENDROOT
BRANCH   1   7
HETATM    7  C   LIG     1      16.639  37.469  22.987  1.00  0.00     0.038 C 
BRANCH   7   8
HETATM    8  C   LIG     1      17.188  38.888  22.781  1.00  0.00     0.000 C 
HETATM    9  C   LIG     1      18.251  38.944  21.684  1.00  0.00     0.005 C 
ENDBRANCH   7   8
ENDBRANCH   1   7
TORSDOF 2
ENDMDL
MODEL 3
REMARK VINA RESULT:      -6.3      1.896      4.966
REMARK  2 active torsions:
REMARK  status: ('A' for Active; 'I' for Inactive)
REMARK    1  A    between atoms: C_2  and  C_3 
REMARK    2  A    between atoms: C_3  and  C_4 
ROOT
HETATM    1  C   LIG     1      17.824  38.465  21.610  1.00  0.00    -0.058 A 
HETATM    2  C   LIG     1      18.745  39.361  21.043  1.00  0.00     0.007 A 
HETATM    3  C   LIG     1      19.543  38.966  19.964  1.00  0.00     0.001 A 
HETATM    4  C   LIG     1      19.429  37.672  19.448  1.00  0.00     0.000 A 
HETATM    5  C   LIG     1      18.520  36.772  20.009  1.00  0.00     0.001 A 
HETATM    6  C   LIG     1      17.721  37.164  21.087  1.00  0.00     0.007 A 
ENDROOT
BRANCH   1   7
HETATM    7  C   LIG     1      16.964  38.892  22.774  1.00  0.00     0.038 C 
BRANCH   7   8
HETATM    8  C   LIG     1      16.738  37.753  23.779  1.00  0.00     0.000 C 
HETATM    9  C   LIG     1      17.352  38.058  25.145  1.00  0.00     0.005 C 
ENDBRANCH   7   8
ENDBRANCH   1   7
TORSDOF 2
ENDMDL
MODEL 4
REMARK VINA RESULT:      -6.3      1.999      4.896
REMARK  2 active torsions:
REMARK  status: ('A' for Active; 'I' for Inactive)
REMARK    1  A    between atoms: C_2  and  C_3 
REMARK    2  A    between atoms: C_3  and  C_4 
ROOT
HETATM    1  C   LIG     1      17.583  37.309  21.276  1.00  0.00    -0.058 A 
HETATM    2  C   LIG     1      18.256  36.645  20.236  1.00  0.00     0.007 A 
HETATM    3  C   LIG     1      19.270  37.293  19.523  1.00  0.00     0.001 A 
HETATM    4  C   LIG     1      19.617  38.610  19.843  1.00  0.00     0.000 A 
HETATM    5  C   LIG     1      18.950  39.279  20.871  1.00  0.00     0.001 A 
HETATM    6  C   LIG     1      17.935  38.634  21.585  1.00  0.00     0.007 A 
ENDROOT
BRANCH   1   7
HETATM    7  C   LIG     1      16.489  36.609  22.043  1.00  0.00     0.038 C 
BRANCH   7   8
HETATM    8  C   LIG     1      16.902  35.199  22.488  1.00  0.00     0.000 C 
HETATM    9  C   LIG     1      17.177  35.124  23.990  1.00  0.00     0.005 C 
ENDBRANCH   7   8
ENDBRANCH   1   7
TORSDOF 2
ENDMDL
MODEL 5
REMARK VINA RESULT:      -6.2      1.928      5.115
REMARK  2 active torsions:
REMARK  status: ('A' for Active; 'I' for Inactive)
REMARK    1  A    between atoms: C_2  and  C_3 
REMARK    2  A    between atoms: C_3  and  C_4 
ROOT
HETATM    1  C   LIG     1      17.565  37.274  21.292  1.00  0.00    -0.058 A 
HETATM    2  C   LIG     1      17.903  38.602  21.606  1.00  0.00     0.007 A 
HETATM    3  C   LIG     1      18.890  39.271  20.876  1.00  0.00     0.001 A 
HETATM    4  C   LIG     1      19.549  38.619  19.830  1.00  0.00     0.000 A 
HETATM    5  C   LIG     1      19.224  37.297  19.514  1.00  0.00     0.001 A 
HETATM    6  C   LIG     1      18.238  36.625  20.242  1.00  0.00     0.007 A 
ENDROOT
BRANCH   1   7
HETATM    7  C   LIG     1      16.501  36.552  22.081  1.00  0.00     0.038 C 
BRANCH   7   8
HETATM    8  C   LIG     1      16.981  35.186  22.589  1.00  0.00     0.000 C 
HETATM    9  C   LIG     1      17.188  35.173  24.104  1.00  0.00     0.005 C 
ENDBRANCH   7   8
ENDBRANCH   1   7
TORSDOF 2
ENDMDL
MODEL 6
REMARK VINA RESULT:      -5.8      2.887      4.448
REMARK  2 active torsions:
REMARK  status: ('A' for Active; 'I' for Inactive)
REMARK    1  A    between atoms: C_2  and  C_3 
REMARK    2  A    between atoms: C_3  and  C_4 
ROOT
HETATM    1  C   LIG     1      18.227  37.417  20.638  1.00  0.00    -0.058 A 
HETATM    2  C   LIG     1      18.032  38.597  21.378  1.00  0.00     0.007 A 
HETATM    3  C   LIG     1      17.096  38.632  22.417  1.00  0.00     0.001 A 
HETATM    4  C   LIG     1      16.346  37.493  22.722  1.00  0.00     0.000 A 
HETATM    5  C   LIG     1      16.529  36.318  21.988  1.00  0.00     0.001 A 
HETATM    6  C   LIG     1      17.463  36.279  20.949  1.00  0.00     0.007 A 
ENDROOT
BRANCH   1   7
HETATM    7  C   LIG     1      19.236  37.380  19.518  1.00  0.00     0.038 C 
BRANCH   7   8
HETATM    8  C   LIG     1      19.633  38.786  19.046  1.00  0.00     0.000 C 
HETATM    9  C   LIG     1      18.893  39.199  17.774  1.00  0.00     0.005 C 
ENDBRANCH   7   8
ENDBRANCH   1   7
TORSDOF 2
ENDMDL
MODEL 7
REMARK VINA RESULT:      -5.8      2.202      3.526
REMARK  2 active torsions:
REMARK  status: ('A' for Active; 'I' for Inactive)
REMARK    1  A    between atoms: C_2  and  C_3 
REMARK    2  A    between atoms: C_3  and  C_4 
ROOT
HETATM    1  C   LIG     1      17.901  38.055  21.536  1.00  0.00    -0.058 A 
HETATM    2  C   LIG     1      17.767  36.872  20.789  1.00  0.00     0.007 A 
HETATM    3  C   LIG     1      17.197  35.732  21.367  1.00  0.00     0.001 A 
HETATM    4  C   LIG     1      16.760  35.765  22.694  1.00  0.00     0.000 A 
HETATM    5  C   LIG     1      16.894  36.935  23.446  1.00  0.00     0.001 A 
HETATM    6  C   LIG     1      17.464  38.076  22.872  1.00  0.00     0.007 A 
ENDROOT
BRANCH   1   7
HETATM    7  C   LIG     1      18.516  39.283  20.913  1.00  0.00     0.038 C 
BRANCH   7   8
HETATM    8  C   LIG     1      18.999  39.026  19.478  1.00  0.00     0.000 C 
HETATM    9  C   LIG     1      20.507  38.785  19.410  1.00  0.00     0.005 C 
ENDBRANCH   7   8
ENDBRANCH   1   7
TORSDOF 2
ENDMDL
MODEL 8
REMARK VINA RESULT:      -5.5      3.070      4.793
REMARK  2 active torsions:
REMARK  status: ('A' for Active; 'I' for Inactive)
REMARK    1  A    between atoms: C_2  and  C_3 
REMARK    2  A    between atoms: C_3  and  C_4 
ROOT
HETATM    1  C   LIG     1      17.512  36.990  21.045  1.00  0.00    -0.058 A 
HETATM    2  C   LIG     1      17.001  37.711  22.138  1.00  0.00     0.007 A 
HETATM    3  C   LIG     1      17.517  38.972  22.456  1.00  0.00     0.001 A 
HETATM    4  C   LIG     1      18.548  39.520  21.688  1.00  0.00     0.000 A 
HETATM    5  C   LIG     1      19.066  38.807  20.603  1.00  0.00     0.001 A 
HETATM    6  C   LIG     1      18.552  37.547  20.282  1.00  0.00     0.007 A 
ENDROOT
BRANCH   1   7
HETATM    7  C   LIG     1      16.955  35.631  20.704  1.00  0.00     0.038 C 
BRANCH   7   8
HETATM    8  C   LIG     1      16.143  35.028  21.859  1.00  0.00     0.000 C 
HETATM    9  C   LIG     1      14.949  34.213  21.363  1.00  0.00     0.005 C 
ENDBRANCH   7   8
ENDBRANCH   1   7
TORSDOF 2
ENDMDL
MODEL 9
REMARK VINA RESULT:      -5.5      9.671     11.040
REMARK  2 active torsions:
REMARK  status: ('A' for Active; 'I' for Inactive)
REMARK    1  A    between atoms: C_2  and  C_3 
REMARK    2  A    between atoms: C_3  and  C_4 
ROOT
HETATM    1  C   LIG     1      14.338  31.445  16.143  1.00  0.00    -0.058 A 
HETATM    2  C   LIG     1      13.706  30.367  15.499  1.00  0.00     0.007 A 
HETATM    3  C   LIG     1      14.170  29.915  14.259  1.00  0.00     0.001 A 
HETATM    4  C   LIG     1      15.266  30.537  13.653  1.00  0.00     0.000 A 
HETATM    5  C   LIG     1      15.896  31.613  14.284  1.00  0.00     0.001 A 
HETATM    6  C   LIG     1      15.435  32.067  15.523  1.00  0.00     0.007 A 
ENDROOT
BRANCH   1   7
HETATM    7  C   LIG     1      13.836  31.932  17.479  1.00  0.00     0.038 C 
BRANCH   7   8
HETATM    8  C   LIG     1      14.983  32.318  18.425  1.00  0.00     0.000 C 
HETATM    9  C   LIG     1      14.906  31.575  19.759  1.00  0.00     0.005 C 
ENDBRANCH   7   8
ENDBRANCH   1   7
TORSDOF 2
ENDMDL
MODEL 10
REMARK VINA RESULT:      -5.5     10.594     11.776
REMARK  2 active torsions:
REMARK  status: ('A' for Active; 'I' for Inactive)
REMARK    1  A    between atoms: C_2  and  C_3 
REMARK    2  A    between atoms: C_3  and  C_4 
ROOT
HETATM    1  C   LIG     1      14.262  30.699  15.234  1.00  0.00    -0.058 A 
HETATM    2  C   LIG     1      13.359  30.963  16.279  1.00  0.00     0.007 A 
HETATM    3  C   LIG     1      13.570  32.046  17.138  1.00  0.00     0.001 A 
HETATM    4  C   LIG     1      14.685  32.871  16.963  1.00  0.00     0.000 A 
HETATM    5  C   LIG     1      15.591  32.613  15.931  1.00  0.00     0.001 A 
HETATM    6  C   LIG     1      15.383  31.532  15.070  1.00  0.00     0.007 A 
ENDROOT
BRANCH   1   7
HETATM    7  C   LIG     1      14.035  29.530  14.309  1.00  0.00     0.038 C 
BRANCH   7   8
HETATM    8  C   LIG     1      15.342  29.019  13.686  1.00  0.00     0.000 C 
HETATM    9  C   LIG     1      15.364  27.496  13.559  1.00  0.00     0.005 C 
ENDBRANCH   7   8
ENDBRANCH   1   7
TORSDOF 2
ENDMDL
MODEL 11
REMARK VINA RESULT:      -5.3      2.007      4.163
REMARK  2 active torsions:
REMARK  status: ('A' for Active; 'I' for Inactive)
REMARK    1  A    between atoms: C_2  and  C_3 
REMARK    2  A    between atoms: C_3  and  C_4 
ROOT
HETATM    1  C   LIG     1      16.680  37.544  22.233  1.00  0.00    -0.058 A 
HETATM    2  C   LIG     1      17.595  36.985  21.324  1.00  0.00     0.007 A 
HETATM    3  C   LIG     1      17.215  35.912  20.510  1.00  0.00     0.001 A 
HETATM    4  C   LIG     1      15.922  35.388  20.602  1.00  0.00     0.000 A 
HETATM    5  C   LIG     1      15.009  35.934  21.507  1.00  0.00     0.001 A 
HETATM    6  C   LIG     1      15.385  37.006  22.321  1.00  0.00     0.007 A 
ENDROOT
BRANCH   1   7
HETATM    7  C   LIG     1      17.090  38.701  23.110  1.00  0.00     0.038 C 
BRANCH   7   8
HETATM    8  C   LIG     1      18.069  38.275  24.213  1.00  0.00     0.000 C 
HETATM    9  C   LIG     1      17.348  37.823  25.483  1.00  0.00     0.005 C 
ENDBRANCH   7   8
ENDBRANCH   1   7
TORSDOF 2
ENDMDL
MODEL 12
REMARK VINA RESULT:      -5.2      3.108      4.836
REMARK  2 active torsions:
REMARK  status: ('A' for Active; 'I' for Inactive)
REMARK    1  A    between atoms: C_2  and  C_3 
REMARK    2  A    between atoms: C_3  and  C_4 
ROOT
HETATM    1  C   LIG     1      16.219  36.097  21.512  1.00  0.00    -0.058 A 
HETATM    2  C   LIG     1      17.375  36.200  20.719  1.00  0.00     0.007 A 
HETATM    3  C   LIG     1      18.204  37.322  20.823  1.00  0.00     0.001 A 
HETATM    4  C   LIG     1      17.883  38.349  21.716  1.00  0.00     0.000 A 
HETATM    5  C   LIG     1      16.733  38.257  22.503  1.00  0.00     0.001 A 
HETATM    6  C   LIG     1      15.902  37.137  22.402  1.00  0.00     0.007 A 
ENDROOT
BRANCH   1   7
HETATM    7  C   LIG     1      15.325  34.887  21.399  1.00  0.00     0.038 C 
BRANCH   7   8
HETATM    8  C   LIG     1      15.874  33.849  20.410  1.00  0.00     0.000 C 
HETATM    9  C   LIG     1      14.934  32.656  20.243  1.00  0.00     0.005 C 
ENDBRANCH   7   8
ENDBRANCH   1   7
TORSDOF 2
ENDMDL
MODEL 13
REMARK VINA RESULT:      -5.1      9.796     11.018
REMARK  2 active torsions:
REMARK  status: ('A' for Active; 'I' for Inactive)
REMARK    1  A    between atoms: C_2  and  C_3 
REMARK    2  A    between atoms: C_3  and  C_4 
ROOT
HETATM    1  C   LIG     1      15.639  32.090  15.419  1.00  0.00    -0.058 A 
HETATM    2  C   LIG     1      14.895  32.514  16.534  1.00  0.00     0.007 A 
HETATM    3  C   LIG     1      13.715  31.852  16.889  1.00  0.00     0.001 A 
HETATM    4  C   LIG     1      13.269  30.765  16.132  1.00  0.00     0.000 A 
HETATM    5  C   LIG     1      13.999  30.340  15.019  1.00  0.00     0.001 A 
HETATM    6  C   LIG     1      15.179  30.999  14.662  1.00  0.00     0.007 A 
ENDROOT
BRANCH   1   7
HETATM    7  C   LIG     1      16.912  32.805  15.037  1.00  0.00     0.038 C 
BRANCH   7   8
HETATM    8  C   LIG     1      17.042  32.987  13.518  1.00  0.00     0.000 C 
HETATM    9  C   LIG     1      18.365  33.644  13.125  1.00  0.00     0.005 C 
ENDBRANCH   7   8
ENDBRANCH   1   7
TORSDOF 2
ENDMDL
MODEL 14
REMARK VINA RESULT:      -5.1      9.857     11.164
REMARK  2 active torsions:
REMARK  status: ('A' for Active; 'I' for Inactive)
REMARK    1  A    between atoms: C_2  and  C_3 
REMARK    2  A    between atoms: C_3  and  C_4 
ROOT
HETATM    1  C   LIG     1      14.978  31.614  15.738  1.00  0.00    -0.058 A 
HETATM    2  C   LIG     1      13.715  31.087  16.056  1.00  0.00     0.007 A 
HETATM    3  C   LIG     1      13.160  30.064  15.279  1.00  0.00     0.001 A 
HETATM    4  C   LIG     1      13.862  29.564  14.178  1.00  0.00     0.000 A 
HETATM    5  C   LIG     1      15.116  30.086  13.851  1.00  0.00     0.001 A 
HETATM    6  C   LIG     1      15.673  31.108  14.625  1.00  0.00     0.007 A 
ENDROOT
BRANCH   1   7
HETATM    7  C   LIG     1      15.575  32.717  16.576  1.00  0.00     0.038 C 
BRANCH   7   8
HETATM    8  C   LIG     1      14.773  32.970  17.860  1.00  0.00     0.000 C 
HETATM    9  C   LIG     1      15.384  32.267  19.072  1.00  0.00     0.005 C 
ENDBRANCH   7   8
ENDBRANCH   1   7
TORSDOF 2
ENDMDL
MODEL 15
REMARK VINA RESULT:      -4.6     11.935     13.019
REMARK  2 active torsions:
REMARK  status: ('A' for Active; 'I' for Inactive)
REMARK    1  A    between atoms: C_2  and  C_3 
REMARK    2  A    between atoms: C_3  and  C_4 
ROOT
HETATM    1  C   LIG     1      14.614  29.922  14.522  1.00  0.00    -0.058 A 
HETATM    2  C   LIG     1      13.248  29.597  14.462  1.00  0.00     0.007 A 
HETATM    3  C   LIG     1      12.841  28.349  13.979  1.00  0.00     0.001 A 
HETATM    4  C   LIG     1      13.793  27.420  13.550  1.00  0.00     0.000 A 
HETATM    5  C   LIG     1      15.153  27.737  13.601  1.00  0.00     0.001 A 
HETATM    6  C   LIG     1      15.564  28.983  14.083  1.00  0.00     0.007 A 
ENDROOT
BRANCH   1   7
HETATM    7  C   LIG     1      15.053  31.269  15.043  1.00  0.00     0.038 C 
BRANCH   7   8
HETATM    8  C   LIG     1      15.983  31.996  14.061  1.00  0.00     0.000 C 
HETATM    9  C   LIG     1      17.070  32.796  14.780  1.00  0.00     0.005 C 
ENDBRANCH   7   8
ENDBRANCH   1   7
TORSDOF 2
ENDMDL
MODEL 16
REMARK VINA RESULT:      -4.6      8.150      9.264
REMARK  2 active torsions:
REMARK  status: ('A' for Active; 'I' for Inactive)
REMARK    1  A    between atoms: C_2  and  C_3 
REMARK    2  A    between atoms: C_3  and  C_4 
ROOT
HETATM    1  C   LIG     1      14.402  32.027  17.641  1.00  0.00    -0.058 A 
HETATM    2  C   LIG     1      14.651  31.678  18.980  1.00  0.00     0.007 A 
HETATM    3  C   LIG     1      15.220  32.607  19.858  1.00  0.00     0.001 A 
HETATM    4  C   LIG     1      15.545  33.889  19.404  1.00  0.00     0.000 A 
HETATM    5  C   LIG     1      15.306  34.242  18.074  1.00  0.00     0.001 A 
HETATM    6  C   LIG     1      14.738  33.316  17.194  1.00  0.00     0.007 A 
ENDROOT
BRANCH   1   7
HETATM    7  C   LIG     1      13.790  31.025  16.695  1.00  0.00     0.038 C 
BRANCH   7   8
HETATM    8  C   LIG     1      14.499  31.002  15.334  1.00  0.00     0.000 C 
HETATM    9  C   LIG     1      14.103  29.787  14.495  1.00  0.00     0.005 C 
ENDBRANCH   7   8
ENDBRANCH   1   7
TORSDOF 2
ENDMDL
MODEL 17
REMARK VINA RESULT:      -4.2     12.823     14.031
REMARK  2 active torsions:
REMARK  status: ('A' for Active; 'I' for Inactive)
REMARK    1  A    between atoms: C_2  and  C_3 
REMARK    2  A    between atoms: C_3  and  C_4 
ROOT
HETATM    1  C   LIG     1      13.906  28.711  14.054  1.00  0.00    -0.058 A 
HETATM    2  C   LIG     1      12.990  29.417  14.854  1.00  0.00     0.007 A 
HETATM    3  C   LIG     1      13.357  30.630  15.445  1.00  0.00     0.001 A 
HETATM    4  C   LIG     1      14.642  31.145  15.246  1.00  0.00     0.000 A 
HETATM    5  C   LIG     1      15.561  30.448  14.458  1.00  0.00     0.001 A 
HETATM    6  C   LIG     1      15.197  29.235  13.865  1.00  0.00     0.007 A 
ENDROOT
BRANCH   1   7
HETATM    7  C   LIG     1      13.510  27.403  13.417  1.00  0.00     0.038 C 
BRANCH   7   8
HETATM    8  C   LIG     1      11.997  27.309  13.175  1.00  0.00     0.000 C 
HETATM    9  C   LIG     1      11.603  26.011  12.471  1.00  0.00     0.005 C 
ENDBRANCH   7   8
ENDBRANCH   1   7
TORSDOF 2
ENDMDL
MODEL 18
REMARK VINA RESULT:      -3.8     15.286     15.987
REMARK  2 active torsions:
REMARK  status: ('A' for Active; 'I' for Inactive)
REMARK    1  A    between atoms: C_2  and  C_3 
REMARK    2  A    between atoms: C_3  and  C_4 
ROOT
HETATM    1  C   LIG     1      26.679  30.620  34.951  1.00  0.00    -0.058 A 
HETATM    2  C   LIG     1      26.348  29.290  34.642  1.00  0.00     0.007 A 
HETATM    3  C   LIG     1      27.149  28.547  33.768  1.00  0.00     0.001 A 
HETATM    4  C   LIG     1      28.284  29.129  33.194  1.00  0.00     0.000 A 
HETATM    5  C   LIG     1      28.617  30.453  33.491  1.00  0.00     0.001 A 
HETATM    6  C   LIG     1      27.819  31.198  34.364  1.00  0.00     0.007 A 
ENDROOT
BRANCH   1   7
HETATM    7  C   LIG     1      25.815  31.421  35.893  1.00  0.00     0.038 C 
BRANCH   7   8
HETATM    8  C   LIG     1      26.186  31.186  37.364  1.00  0.00     0.000 C 
HETATM    9  C   LIG     1      27.098  32.283  37.913  1.00  0.00     0.005 C 
ENDBRANCH   7   8
ENDBRANCH   1   7
TORSDOF 2
ENDMDL
MODEL 19
REMARK VINA RESULT:      -3.8     19.916     20.620
REMARK  2 active torsions:
REMARK  status: ('A' for Active; 'I' for Inactive)
REMARK    1  A    between atoms: C_2  and  C_3 
REMARK    2  A    between atoms: C_3  and  C_4 
ROOT
HETATM    1  C   LIG     1      15.580  19.463  13.833  1.00  0.00    -0.058 A 
HETATM    2  C   LIG     1      16.279  19.482  15.052  1.00  0.00     0.007 A 
HETATM    3  C   LIG     1      15.687  18.974  16.213  1.00  0.00     0.001 A 
HETATM    4  C   LIG     1      14.393  18.447  16.166  1.00  0.00     0.000 A 
HETATM    5  C   LIG     1      13.689  18.430  14.959  1.00  0.00     0.001 A 
HETATM    6  C   LIG     1      14.277  18.937  13.797  1.00  0.00     0.007 A 
ENDROOT
BRANCH   1   7
HETATM    7  C   LIG     1      16.218  20.012  12.581  1.00  0.00     0.038 C 
BRANCH   7   8
HETATM    8  C   LIG     1      15.204  20.195  11.444  1.00  0.00     0.000 C 
HETATM    9  C   LIG     1      15.445  21.482  10.655  1.00  0.00     0.005 C 
ENDBRANCH   7   8
ENDBRANCH   1   7
TORSDOF 2
ENDMDL
