REMARK  2 active torsions:
REMARK  status: ('A' for Active; 'I' for Inactive)
REMARK    1  A    between atoms: C_2  and  C_3 
REMARK    2  A    between atoms: C_3  and  C_4 
ROOT
HETATM    1  C   LIG     1      -0.326  -0.471   0.334  1.00  0.00    -0.058 A 
HETATM    2  C   LIG     1      -1.188  -0.732  -0.745  1.00  0.00     0.007 A 
HETATM    3  C   LIG     1      -2.430  -0.094  -0.827  1.00  0.00     0.001 A 
HETATM    4  C   LIG     1      -2.821   0.806   0.169  1.00  0.00     0.000 A 
HETATM    5  C   LIG     1      -1.973   1.067   1.248  1.00  0.00     0.001 A 
HETATM    6  C   LIG     1      -0.731   0.431   1.333  1.00  0.00     0.007 A 
ENDROOT
BRANCH   1   7
HETATM    7  C   LIG     1       1.013  -1.160   0.422  1.00  0.00     0.038 C 
BRANCH   7   8
HETATM    8  C   LIG     1       1.985  -0.682  -0.666  1.00  0.00     0.000 C 
HETATM    9  C   LIG     1       2.379   0.784  -0.486  1.00  0.00     0.005 C 
ENDBRANCH   7   8
ENDBRANCH   1   7
TORSDOF 2
