REMARK  2 active torsions:
REMARK  status: ('A' for Active; 'I' for Inactive)
REMARK    1  A    between atoms: C_1  and  N_2 
REMARK    2  A    between atoms: N_3  and  C_4 
ROOT
HETATM    1  N   LIG     1      -0.749  -2.186  -0.218  1.00  0.00    -0.150 NA
HETATM    2  N   LIG     1       0.513  -2.264  -0.025  1.00  0.00    -0.150 NA
ENDROOT
BRANCH   1   3
HETATM    3  C   LIG     1      -1.531  -0.981  -0.200  1.00  0.00     0.079 A 
HETATM    4  C   LIG     1      -2.541  -0.810  -1.156  1.00  0.00     0.033 A 
HETATM    5  C   LIG     1      -3.341   0.337  -1.139  1.00  0.00     0.002 A 
HETATM    6  C   LIG     1      -3.152   1.309  -0.152  1.00  0.00     0.000 A 
HETATM    7  C   LIG     1      -2.169   1.129   0.826  1.00  0.00     0.002 A 
HETATM    8  C   LIG     1      -1.368  -0.017   0.811  1.00  0.00     0.033 A 
ENDBRANCH   1   3
BRANCH   2   9
HETATM    9  C   LIG     1       1.418  -1.153   0.084  1.00  0.00     0.079 A 
HETATM   10  C   LIG     1       1.363  -0.073  -0.816  1.00  0.00     0.033 A 
HETATM   11  C   LIG     1       2.281   0.976  -0.711  1.00  0.00     0.002 A 
HETATM   12  C   LIG     1       3.271   0.944   0.275  1.00  0.00     0.000 A 
HETATM   13  C   LIG     1       3.352  -0.143   1.149  1.00  0.00     0.002 A 
HETATM   14  C   LIG     1       2.435  -1.194   1.046  1.00  0.00     0.033 A 
ENDBRANCH   2   9
TORSDOF 2
