MODEL 1
REMARK VINA RESULT:      -5.9      0.000      0.000
REMARK  1 active torsions:
REMARK  status: ('A' for Active; 'I' for Inactive)
REMARK       I    between atoms: C_2  and  N_3 
REMARK    1  A    between atoms: N_3  and  C_4 
ROOT
HETATM    1  C   LIG     1      16.768  35.373  21.946  1.00  0.00     0.034 A 
HETATM    2  C   LIG     1      16.715  36.765  21.739  1.00  0.00     0.031 A 
HETATM    3  C   LIG     1      16.898  37.645  22.811  1.00  0.00     0.021 A 
HETATM    4  C   LIG     1      17.149  37.148  24.092  1.00  0.00     0.011 A 
HETATM    5 BR   LIG     1      17.401  38.352  25.553  1.00  0.00    -0.051 Br
HETATM    6  C   LIG     1      17.226  35.767  24.302  1.00  0.00     0.021 A 
HETATM    7  C   LIG     1      17.044  34.885  23.233  1.00  0.00     0.031 A 
ENDROOT
BRANCH   1   8
HETATM    8  N   LIG     1      16.608  34.445  20.859  1.00  0.00    -0.328 N 
HETATM    9  C   LIG     1      15.401  33.710  20.600  1.00  0.00     0.218 C 
HETATM   10  C   LIG     1      15.239  32.949  19.323  1.00  0.00     0.117 C 
HETATM   11  O   LIG     1      14.479  33.665  21.459  1.00  0.00    -0.274 OA
HETATM   12  H   LIG     1      17.447  34.226  20.277  1.00  0.00     0.169 HD
ENDBRANCH   1   8
TORSDOF 1
ENDMDL
MODEL 2
REMARK VINA RESULT:      -5.8      5.360      8.015
REMARK  1 active torsions:
REMARK  status: ('A' for Active; 'I' for Inactive)
REMARK       I    between atoms: C_2  and  N_3 
REMARK    1  A    between atoms: N_3  and  C_4 
ROOT
HETATM    1  C   LIG     1      14.866  32.738  17.304  1.00  0.00     0.034 A 
HETATM    2  C   LIG     1      13.822  31.794  17.329  1.00  0.00     0.031 A 
HETATM    3  C   LIG     1      13.702  30.847  16.306  1.00  0.00     0.021 A 
HETATM    4  C   LIG     1      14.627  30.825  15.259  1.00  0.00     0.011 A 
HETATM    5 BR   LIG     1      14.463  29.530  13.865  1.00  0.00    -0.051 Br
HETATM    6  C   LIG     1      15.680  31.745  15.239  1.00  0.00     0.021 A 
HETATM    7  C   LIG     1      15.803  32.692  16.261  1.00  0.00     0.031 A 
ENDROOT
BRANCH   1   8
HETATM    8  N   LIG     1      15.028  33.706  18.355  1.00  0.00    -0.328 N 
HETATM    9  C   LIG     1      15.518  33.393  19.669  1.00  0.00     0.218 C 
HETATM   10  C   LIG     1      15.877  34.486  20.623  1.00  0.00     0.117 C 
HETATM   11  O   LIG     1      15.615  32.194  20.050  1.00  0.00    -0.274 OA
HETATM   12  H   LIG     1      14.687  34.678  18.181  1.00  0.00     0.169 HD
ENDBRANCH   1   8
TORSDOF 1
ENDMDL
MODEL 3
REMARK VINA RESULT:      -5.7      1.809      2.282
REMARK  1 active torsions:
REMARK  status: ('A' for Active; 'I' for Inactive)
REMARK       I    between atoms: C_2  and  N_3 
REMARK    1  A    between atoms: N_3  and  C_4 
ROOT
HETATM    1  C   LIG     1      15.804  35.277  20.119  1.00  0.00     0.034 A 
HETATM    2  C   LIG     1      14.888  35.635  21.126  1.00  0.00     0.031 A 
HETATM    3  C   LIG     1      15.286  36.470  22.176  1.00  0.00     0.021 A 
HETATM    4  C   LIG     1      16.592  36.965  22.224  1.00  0.00     0.011 A 
HETATM    5 BR   LIG     1      17.130  38.106  23.658  1.00  0.00    -0.051 Br
HETATM    6  C   LIG     1      17.501  36.631  21.215  1.00  0.00     0.021 A 
HETATM    7  C   LIG     1      17.107  35.798  20.164  1.00  0.00     0.031 A 
ENDROOT
BRANCH   1   8
HETATM    8  N   LIG     1      15.417  34.441  19.015  1.00  0.00    -0.328 N 
HETATM    9  C   LIG     1      15.306  33.010  19.089  1.00  0.00     0.218 C 
HETATM   10  C   LIG     1      14.676  32.242  17.972  1.00  0.00     0.117 C 
HETATM   11  O   LIG     1      15.771  32.380  20.077  1.00  0.00    -0.274 OA
HETATM   12  H   LIG     1      15.296  34.892  18.080  1.00  0.00     0.169 HD
ENDBRANCH   1   8
TORSDOF 1
ENDMDL
MODEL 4
REMARK VINA RESULT:      -5.5      3.331      4.233
REMARK  1 active torsions:
REMARK  status: ('A' for Active; 'I' for Inactive)
REMARK       I    between atoms: C_2  and  N_3 
REMARK    1  A    between atoms: N_3  and  C_4 
ROOT
HETATM    1  C   LIG     1      17.381  37.508  22.434  1.00  0.00     0.034 A 
HETATM    2  C   LIG     1      17.628  38.080  23.696  1.00  0.00     0.031 A 
HETATM    3  C   LIG     1      17.602  37.286  24.847  1.00  0.00     0.021 A 
HETATM    4  C   LIG     1      17.344  35.916  24.749  1.00  0.00     0.011 A 
HETATM    5 BR   LIG     1      17.312  34.834  26.323  1.00  0.00    -0.051 Br
HETATM    6  C   LIG     1      17.119  35.336  23.496  1.00  0.00     0.021 A 
HETATM    7  C   LIG     1      17.146  36.128  22.344  1.00  0.00     0.031 A 
ENDROOT
BRANCH   1   8
HETATM    8  N   LIG     1      17.426  38.295  21.231  1.00  0.00    -0.328 N 
HETATM    9  C   LIG     1      18.619  38.906  20.713  1.00  0.00     0.218 C 
HETATM   10  C   LIG     1      18.628  39.506  19.344  1.00  0.00     0.117 C 
HETATM   11  O   LIG     1      19.662  38.978  21.418  1.00  0.00    -0.274 OA
HETATM   12  H   LIG     1      16.521  38.510  20.753  1.00  0.00     0.169 HD
ENDBRANCH   1   8
TORSDOF 1
ENDMDL
MODEL 5
REMARK VINA RESULT:      -5.5      4.193      6.633
REMARK  1 active torsions:
REMARK  status: ('A' for Active; 'I' for Inactive)
REMARK       I    between atoms: C_2  and  N_3 
REMARK    1  A    between atoms: N_3  and  C_4 
ROOT
HETATM    1  C   LIG     1      15.399  33.500  19.059  1.00  0.00     0.034 A 
HETATM    2  C   LIG     1      15.025  32.191  19.418  1.00  0.00     0.031 A 
HETATM    3  C   LIG     1      14.360  31.371  18.501  1.00  0.00     0.021 A 
HETATM    4  C   LIG     1      14.074  31.842  17.217  1.00  0.00     0.011 A 
HETATM    5 BR   LIG     1      13.167  30.719  15.965  1.00  0.00    -0.051 Br
HETATM    6  C   LIG     1      14.462  33.134  16.845  1.00  0.00     0.021 A 
HETATM    7  C   LIG     1      15.129  33.955  17.760  1.00  0.00     0.031 A 
ENDROOT
BRANCH   1   8
HETATM    8  N   LIG     1      16.107  34.356  19.973  1.00  0.00    -0.328 N 
HETATM    9  C   LIG     1      15.687  34.613  21.323  1.00  0.00     0.218 C 
HETATM   10  C   LIG     1      16.596  35.322  22.275  1.00  0.00     0.117 C 
HETATM   11  O   LIG     1      14.535  34.279  21.713  1.00  0.00    -0.274 OA
HETATM   12  H   LIG     1      16.925  34.893  19.606  1.00  0.00     0.169 HD
ENDBRANCH   1   8
TORSDOF 1
ENDMDL
MODEL 6
REMARK VINA RESULT:      -5.4      8.152      9.590
REMARK  1 active torsions:
REMARK  status: ('A' for Active; 'I' for Inactive)
REMARK       I    between atoms: C_2  and  N_3 
REMARK    1  A    between atoms: N_3  and  C_4 
ROOT
HETATM    1  C   LIG     1      16.873  32.620  13.599  1.00  0.00     0.034 A 
HETATM    2  C   LIG     1      16.916  33.225  14.870  1.00  0.00     0.031 A 
HETATM    3  C   LIG     1      16.015  32.836  15.867  1.00  0.00     0.021 A 
HETATM    4  C   LIG     1      15.076  31.834  15.612  1.00  0.00     0.011 A 
HETATM    5 BR   LIG     1      13.848  31.303  16.976  1.00  0.00    -0.051 Br
HETATM    6  C   LIG     1      15.041  31.212  14.359  1.00  0.00     0.021 A 
HETATM    7  C   LIG     1      15.941  31.599  13.361  1.00  0.00     0.031 A 
ENDROOT
BRANCH   1   8
HETATM    8  N   LIG     1      17.802  32.982  12.563  1.00  0.00    -0.328 N 
HETATM    9  C   LIG     1      17.994  34.324  12.087  1.00  0.00     0.218 C 
HETATM   10  C   LIG     1      19.138  34.649  11.181  1.00  0.00     0.117 C 
HETATM   11  O   LIG     1      17.181  35.238  12.396  1.00  0.00    -0.274 OA
HETATM   12  H   LIG     1      18.304  32.212  12.066  1.00  0.00     0.169 HD
ENDBRANCH   1   8
TORSDOF 1
ENDMDL
MODEL 7
REMARK VINA RESULT:      -5.2      8.463      9.912
REMARK  1 active torsions:
REMARK  status: ('A' for Active; 'I' for Inactive)
REMARK       I    between atoms: C_2  and  N_3 
REMARK    1  A    between atoms: N_3  and  C_4 
ROOT
HETATM    1  C   LIG     1      13.232  29.819  14.607  1.00  0.00     0.034 A 
HETATM    2  C   LIG     1      14.500  30.288  14.212  1.00  0.00     0.031 A 
HETATM    3  C   LIG     1      15.168  31.247  14.979  1.00  0.00     0.021 A 
HETATM    4  C   LIG     1      14.586  31.738  16.152  1.00  0.00     0.011 A 
HETATM    5 BR   LIG     1      15.502  33.047  17.199  1.00  0.00    -0.051 Br
HETATM    6  C   LIG     1      13.337  31.261  16.563  1.00  0.00     0.021 A 
HETATM    7  C   LIG     1      12.668  30.301  15.798  1.00  0.00     0.031 A 
ENDROOT
BRANCH   1   8
HETATM    8  N   LIG     1      12.534  28.815  13.851  1.00  0.00    -0.328 N 
HETATM    9  C   LIG     1      13.074  27.520  13.542  1.00  0.00     0.218 C 
HETATM   10  C   LIG     1      12.200  26.456  12.960  1.00  0.00     0.117 C 
HETATM   11  O   LIG     1      14.297  27.274  13.723  1.00  0.00    -0.274 OA
HETATM   12  H   LIG     1      11.615  29.074  13.426  1.00  0.00     0.169 HD
ENDBRANCH   1   8
TORSDOF 1
ENDMDL
MODEL 8
REMARK VINA RESULT:      -5.2      4.198      5.352
REMARK  1 active torsions:
REMARK  status: ('A' for Active; 'I' for Inactive)
REMARK       I    between atoms: C_2  and  N_3 
REMARK    1  A    between atoms: N_3  and  C_4 
ROOT
HETATM    1  C   LIG     1      14.938  32.454  17.841  1.00  0.00     0.034 A 
HETATM    2  C   LIG     1      15.135  33.814  17.536  1.00  0.00     0.031 A 
HETATM    3  C   LIG     1      15.437  34.728  18.550  1.00  0.00     0.021 A 
HETATM    4  C   LIG     1      15.558  34.294  19.873  1.00  0.00     0.011 A 
HETATM    5 BR   LIG     1      15.972  35.545  21.256  1.00  0.00    -0.051 Br
HETATM    6  C   LIG     1      15.385  32.941  20.182  1.00  0.00     0.021 A 
HETATM    7  C   LIG     1      15.084  32.024  19.169  1.00  0.00     0.031 A 
ENDROOT
BRANCH   1   8
HETATM    8  N   LIG     1      14.652  31.487  16.816  1.00  0.00    -0.328 N 
HETATM    9  C   LIG     1      13.325  31.118  16.406  1.00  0.00     0.218 C 
HETATM   10  C   LIG     1      13.116  30.287  15.181  1.00  0.00     0.117 C 
HETATM   11  O   LIG     1      12.322  31.458  17.091  1.00  0.00    -0.274 OA
HETATM   12  H   LIG     1      15.454  30.957  16.407  1.00  0.00     0.169 HD
ENDBRANCH   1   8
TORSDOF 1
ENDMDL
MODEL 9
REMARK VINA RESULT:      -5.1      4.308      5.607
REMARK  1 active torsions:
REMARK  status: ('A' for Active; 'I' for Inactive)
REMARK       I    between atoms: C_2  and  N_3 
REMARK    1  A    between atoms: N_3  and  C_4 
ROOT
HETATM    1  C   LIG     1      17.791  37.912  21.903  1.00  0.00     0.034 A 
HETATM    2  C   LIG     1      17.990  36.946  20.899  1.00  0.00     0.031 A 
HETATM    3  C   LIG     1      18.486  37.322  19.646  1.00  0.00     0.021 A 
HETATM    4  C   LIG     1      18.799  38.660  19.388  1.00  0.00     0.011 A 
HETATM    5 BR   LIG     1      19.477  39.171  17.677  1.00  0.00    -0.051 Br
HETATM    6  C   LIG     1      18.624  39.623  20.387  1.00  0.00     0.021 A 
HETATM    7  C   LIG     1      18.130  39.249  21.641  1.00  0.00     0.031 A 
ENDROOT
BRANCH   1   8
HETATM    8  N   LIG     1      17.307  37.551  23.208  1.00  0.00    -0.328 N 
HETATM    9  C   LIG     1      17.989  37.864  24.434  1.00  0.00     0.218 C 
HETATM   10  C   LIG     1      17.309  37.661  25.750  1.00  0.00     0.117 C 
HETATM   11  O   LIG     1      19.180  38.277  24.420  1.00  0.00    -0.274 OA
HETATM   12  H   LIG     1      16.456  36.948  23.264  1.00  0.00     0.169 HD
ENDBRANCH   1   8
TORSDOF 1
ENDMDL
MODEL 10
REMARK VINA RESULT:      -5.1      3.438      5.081
REMARK  1 active torsions:
REMARK  status: ('A' for Active; 'I' for Inactive)
REMARK       I    between atoms: C_2  and  N_3 
REMARK    1  A    between atoms: N_3  and  C_4 
ROOT
HETATM    1  C   LIG     1      16.951  36.077  22.276  1.00  0.00     0.034 A 
HETATM    2  C   LIG     1      15.927  35.111  22.290  1.00  0.00     0.031 A 
HETATM    3  C   LIG     1      15.434  34.589  21.089  1.00  0.00     0.021 A 
HETATM    4  C   LIG     1      15.965  35.013  19.869  1.00  0.00     0.011 A 
HETATM    5 BR   LIG     1      15.291  34.297  18.231  1.00  0.00    -0.051 Br
HETATM    6  C   LIG     1      16.998  35.957  19.847  1.00  0.00     0.021 A 
HETATM    7  C   LIG     1      17.493  36.480  21.046  1.00  0.00     0.031 A 
ENDROOT
BRANCH   1   8
HETATM    8  N   LIG     1      17.495  36.613  23.495  1.00  0.00    -0.328 N 
HETATM    9  C   LIG     1      16.788  37.514  24.363  1.00  0.00     0.218 C 
HETATM   10  C   LIG     1      17.329  37.837  25.719  1.00  0.00     0.117 C 
HETATM   11  O   LIG     1      15.724  38.072  23.981  1.00  0.00    -0.274 OA
HETATM   12  H   LIG     1      18.494  36.406  23.716  1.00  0.00     0.169 HD
ENDBRANCH   1   8
TORSDOF 1
ENDMDL
MODEL 11
REMARK VINA RESULT:      -5.0      3.459      4.503
REMARK  1 active torsions:
REMARK  status: ('A' for Active; 'I' for Inactive)
REMARK       I    between atoms: C_2  and  N_3 
REMARK    1  A    between atoms: N_3  and  C_4 
ROOT
HETATM    1  C   LIG     1      17.545  37.397  23.505  1.00  0.00     0.034 A 
HETATM    2  C   LIG     1      17.181  36.770  22.298  1.00  0.00     0.031 A 
HETATM    3  C   LIG     1      17.557  37.328  21.072  1.00  0.00     0.021 A 
HETATM    4  C   LIG     1      18.308  38.506  21.038  1.00  0.00     0.011 A 
HETATM    5 BR   LIG     1      18.822  39.265  19.361  1.00  0.00    -0.051 Br
HETATM    6  C   LIG     1      18.692  39.124  22.232  1.00  0.00     0.021 A 
HETATM    7  C   LIG     1      18.318  38.567  23.460  1.00  0.00     0.031 A 
ENDROOT
BRANCH   1   8
HETATM    8  N   LIG     1      17.194  36.833  24.780  1.00  0.00    -0.328 N 
HETATM    9  C   LIG     1      17.308  35.436  25.101  1.00  0.00     0.218 C 
HETATM   10  C   LIG     1      17.147  34.970  26.512  1.00  0.00     0.117 C 
HETATM   11  O   LIG     1      17.507  34.583  24.194  1.00  0.00    -0.274 OA
HETATM   12  H   LIG     1      16.746  37.460  25.485  1.00  0.00     0.169 HD
ENDBRANCH   1   8
TORSDOF 1
ENDMDL
MODEL 12
REMARK VINA RESULT:      -5.0      7.690      9.124
REMARK  1 active torsions:
REMARK  status: ('A' for Active; 'I' for Inactive)
REMARK       I    between atoms: C_2  and  N_3 
REMARK    1  A    between atoms: N_3  and  C_4 
ROOT
HETATM    1  C   LIG     1      14.602  30.513  14.665  1.00  0.00     0.034 A 
HETATM    2  C   LIG     1      13.744  30.675  15.769  1.00  0.00     0.031 A 
HETATM    3  C   LIG     1      13.928  31.742  16.654  1.00  0.00     0.021 A 
HETATM    4  C   LIG     1      14.958  32.662  16.441  1.00  0.00     0.011 A 
HETATM    5 BR   LIG     1      15.207  34.119  17.651  1.00  0.00    -0.051 Br
HETATM    6  C   LIG     1      15.802  32.519  15.334  1.00  0.00     0.021 A 
HETATM    7  C   LIG     1      15.619  31.454  14.447  1.00  0.00     0.031 A 
ENDROOT
BRANCH   1   8
HETATM    8  N   LIG     1      14.421  29.440  13.724  1.00  0.00    -0.328 N 
HETATM    9  C   LIG     1      15.228  28.251  13.694  1.00  0.00     0.218 C 
HETATM   10  C   LIG     1      14.829  27.088  12.844  1.00  0.00     0.117 C 
HETATM   11  O   LIG     1      16.302  28.187  14.353  1.00  0.00    -0.274 OA
HETATM   12  H   LIG     1      13.719  29.572  12.962  1.00  0.00     0.169 HD
ENDBRANCH   1   8
TORSDOF 1
ENDMDL
MODEL 13
REMARK VINA RESULT:      -4.5      6.237      8.763
REMARK  1 active torsions:
REMARK  status: ('A' for Active; 'I' for Inactive)
REMARK       I    between atoms: C_2  and  N_3 
REMARK    1  A    between atoms: N_3  and  C_4 
ROOT
HETATM    1  C   LIG     1      14.859  31.856  16.827  1.00  0.00     0.034 A 
HETATM    2  C   LIG     1      15.474  31.533  15.602  1.00  0.00     0.031 A 
HETATM    3  C   LIG     1      14.847  30.660  14.707  1.00  0.00     0.021 A 
HETATM    4  C   LIG     1      13.599  30.113  15.018  1.00  0.00     0.011 A 
HETATM    5 BR   LIG     1      12.744  28.922  13.793  1.00  0.00    -0.051 Br
HETATM    6  C   LIG     1      12.972  30.446  16.223  1.00  0.00     0.021 A 
HETATM    7  C   LIG     1      13.596  31.320  17.119  1.00  0.00     0.031 A 
ENDROOT
BRANCH   1   8
HETATM    8  N   LIG     1      15.469  32.771  17.755  1.00  0.00    -0.328 N 
HETATM    9  C   LIG     1      15.256  34.192  17.741  1.00  0.00     0.218 C 
HETATM   10  C   LIG     1      15.736  35.039  18.875  1.00  0.00     0.117 C 
HETATM   11  O   LIG     1      14.697  34.749  16.757  1.00  0.00    -0.274 OA
HETATM   12  H   LIG     1      16.176  32.390  18.422  1.00  0.00     0.169 HD
ENDBRANCH   1   8
TORSDOF 1
ENDMDL
MODEL 14
REMARK VINA RESULT:      -4.4      9.428     11.447
REMARK  1 active torsions:
REMARK  status: ('A' for Active; 'I' for Inactive)
REMARK       I    between atoms: C_2  and  N_3 
REMARK    1  A    between atoms: N_3  and  C_4 
ROOT
HETATM    1  C   LIG     1      14.812  29.669  14.496  1.00  0.00     0.034 A 
HETATM    2  C   LIG     1      13.417  29.815  14.617  1.00  0.00     0.031 A 
HETATM    3  C   LIG     1      12.559  28.827  14.121  1.00  0.00     0.021 A 
HETATM    4  C   LIG     1      13.083  27.682  13.515  1.00  0.00     0.011 A 
HETATM    5 BR   LIG     1      11.910  26.334  12.841  1.00  0.00    -0.051 Br
HETATM    6  C   LIG     1      14.469  27.520  13.411  1.00  0.00     0.021 A 
HETATM    7  C   LIG     1      15.328  28.505  13.906  1.00  0.00     0.031 A 
ENDROOT
BRANCH   1   8
HETATM    8  N   LIG     1      15.718  30.656  15.019  1.00  0.00    -0.328 N 
HETATM    9  C   LIG     1      16.099  31.851  14.316  1.00  0.00     0.218 C 
HETATM   10  C   LIG     1      16.854  32.932  15.019  1.00  0.00     0.117 C 
HETATM   11  O   LIG     1      15.835  31.987  13.090  1.00  0.00    -0.274 OA
HETATM   12  H   LIG     1      16.196  30.450  15.924  1.00  0.00     0.169 HD
ENDBRANCH   1   8
TORSDOF 1
ENDMDL
MODEL 15
REMARK VINA RESULT:      -4.2      6.874      9.741
REMARK  1 active torsions:
REMARK  status: ('A' for Active; 'I' for Inactive)
REMARK       I    between atoms: C_2  and  N_3 
REMARK    1  A    between atoms: N_3  and  C_4 
ROOT
HETATM    1  C   LIG     1      14.415  31.250  15.688  1.00  0.00     0.034 A 
HETATM    2  C   LIG     1      13.127  30.683  15.688  1.00  0.00     0.031 A 
HETATM    3  C   LIG     1      12.859  29.539  14.930  1.00  0.00     0.021 A 
HETATM    4  C   LIG     1      13.874  28.942  14.177  1.00  0.00     0.011 A 
HETATM    5 BR   LIG     1      13.506  27.378  13.145  1.00  0.00    -0.051 Br
HETATM    6  C   LIG     1      15.163  29.486  14.189  1.00  0.00     0.021 A 
HETATM    7  C   LIG     1      15.433  30.630  14.947  1.00  0.00     0.031 A 
ENDROOT
BRANCH   1   8
HETATM    8  N   LIG     1      14.726  32.411  16.477  1.00  0.00    -0.328 N 
HETATM    9  C   LIG     1      14.765  32.421  17.914  1.00  0.00     0.218 C 
HETATM   10  C   LIG     1      15.321  33.599  18.647  1.00  0.00     0.117 C 
HETATM   11  O   LIG     1      14.298  31.454  18.576  1.00  0.00    -0.274 OA
HETATM   12  H   LIG     1      14.842  33.323  15.980  1.00  0.00     0.169 HD
ENDBRANCH   1   8
TORSDOF 1
ENDMDL
MODEL 16
REMARK VINA RESULT:      -4.0      8.149      8.935
REMARK  1 active torsions:
REMARK  status: ('A' for Active; 'I' for Inactive)
REMARK       I    between atoms: C_2  and  N_3 
REMARK    1  A    between atoms: N_3  and  C_4 
ROOT
HETATM    1  C   LIG     1      15.932  31.790  14.768  1.00  0.00     0.034 A 
HETATM    2  C   LIG     1      16.979  32.317  15.547  1.00  0.00     0.031 A 
HETATM    3  C   LIG     1      18.017  33.033  14.943  1.00  0.00     0.021 A 
HETATM    4  C   LIG     1      18.015  33.241  13.561  1.00  0.00     0.011 A 
HETATM    5 BR   LIG     1      19.433  34.221  12.738  1.00  0.00    -0.051 Br
HETATM    6  C   LIG     1      16.967  32.740  12.782  1.00  0.00     0.021 A 
HETATM    7  C   LIG     1      15.927  32.025  13.384  1.00  0.00     0.031 A 
ENDROOT
BRANCH   1   8
HETATM    8  N   LIG     1      14.839  31.072  15.365  1.00  0.00    -0.328 N 
HETATM    9  C   LIG     1      13.909  31.650  16.296  1.00  0.00     0.218 C 
HETATM   10  C   LIG     1      12.671  30.909  16.687  1.00  0.00     0.117 C 
HETATM   11  O   LIG     1      14.142  32.772  16.824  1.00  0.00    -0.274 OA
HETATM   12  H   LIG     1      14.768  30.047  15.179  1.00  0.00     0.169 HD
ENDBRANCH   1   8
TORSDOF 1
ENDMDL
MODEL 17
REMARK VINA RESULT:      -4.0      3.808      5.034
REMARK  1 active torsions:
REMARK  status: ('A' for Active; 'I' for Inactive)
REMARK       I    between atoms: C_2  and  N_3 
REMARK    1  A    between atoms: N_3  and  C_4 
ROOT
HETATM    1  C   LIG     1      17.143  36.213  20.818  1.00  0.00     0.034 A 
HETATM    2  C   LIG     1      16.659  35.809  19.559  1.00  0.00     0.031 A 
HETATM    3  C   LIG     1      15.927  34.624  19.432  1.00  0.00     0.021 A 
HETATM    4  C   LIG     1      15.660  33.840  20.558  1.00  0.00     0.011 A 
HETATM    5 BR   LIG     1      14.659  32.223  20.382  1.00  0.00    -0.051 Br
HETATM    6  C   LIG     1      16.119  34.246  21.815  1.00  0.00     0.021 A 
HETATM    7  C   LIG     1      16.850  35.431  21.945  1.00  0.00     0.031 A 
ENDROOT
BRANCH   1   8
HETATM    8  N   LIG     1      17.876  37.439  20.982  1.00  0.00    -0.328 N 
HETATM    9  C   LIG     1      19.017  37.807  20.189  1.00  0.00     0.218 C 
HETATM   10  C   LIG     1      19.575  39.192  20.264  1.00  0.00     0.117 C 
HETATM   11  O   LIG     1      19.585  36.959  19.449  1.00  0.00    -0.274 OA
HETATM   12  H   LIG     1      17.620  38.058  21.784  1.00  0.00     0.169 HD
ENDBRANCH   1   8
TORSDOF 1
ENDMDL
MODEL 18
REMARK VINA RESULT:      -3.8     16.557     17.382
REMARK  1 active torsions:
REMARK  status: ('A' for Active; 'I' for Inactive)
REMARK       I    between atoms: C_2  and  N_3 
REMARK    1  A    between atoms: N_3  and  C_4 
ROOT
HETATM    1  C   LIG     1      27.536  28.965  34.178  1.00  0.00     0.034 A 
HETATM    2  C   LIG     1      27.313  28.216  35.349  1.00  0.00     0.031 A 
HETATM    3  C   LIG     1      26.881  28.849  36.520  1.00  0.00     0.021 A 
HETATM    4  C   LIG     1      26.655  30.228  36.530  1.00  0.00     0.011 A 
HETATM    5 BR   LIG     1      26.064  31.089  38.129  1.00  0.00    -0.051 Br
HETATM    6  C   LIG     1      26.853  30.976  35.365  1.00  0.00     0.021 A 
HETATM    7  C   LIG     1      27.284  30.346  34.193  1.00  0.00     0.031 A 
ENDROOT
BRANCH   1   8
HETATM    8  N   LIG     1      27.955  28.339  32.954  1.00  0.00    -0.328 N 
HETATM    9  C   LIG     1      27.066  27.662  32.050  1.00  0.00     0.218 C 
HETATM   10  C   LIG     1      27.539  27.245  30.695  1.00  0.00     0.117 C 
HETATM   11  O   LIG     1      25.888  27.379  32.400  1.00  0.00    -0.274 OA
HETATM   12  H   LIG     1      28.979  28.295  32.754  1.00  0.00     0.169 HD
ENDBRANCH   1   8
TORSDOF 1
ENDMDL
MODEL 19
REMARK VINA RESULT:      -3.7     16.882     17.733
REMARK  1 active torsions:
REMARK  status: ('A' for Active; 'I' for Inactive)
REMARK       I    between atoms: C_2  and  N_3 
REMARK    1  A    between atoms: N_3  and  C_4 
ROOT
HETATM    1  C   LIG     1      27.309  28.443  34.344  1.00  0.00     0.034 A 
HETATM    2  C   LIG     1      28.348  28.967  33.552  1.00  0.00     0.031 A 
HETATM    3  C   LIG     1      28.454  28.612  32.203  1.00  0.00     0.021 A 
HETATM    4  C   LIG     1      27.520  27.744  31.630  1.00  0.00     0.011 A 
HETATM    5 BR   LIG     1      27.666  27.263  29.787  1.00  0.00    -0.051 Br
HETATM    6  C   LIG     1      26.472  27.236  32.405  1.00  0.00     0.021 A 
HETATM    7  C   LIG     1      26.363  27.591  33.753  1.00  0.00     0.031 A 
ENDROOT
BRANCH   1   8
HETATM    8  N   LIG     1      27.160  28.810  35.726  1.00  0.00    -0.328 N 
HETATM    9  C   LIG     1      26.322  29.882  36.189  1.00  0.00     0.218 C 
HETATM   10  C   LIG     1      26.042  30.047  37.648  1.00  0.00     0.117 C 
HETATM   11  O   LIG     1      25.843  30.719  35.377  1.00  0.00    -0.274 OA
HETATM   12  H   LIG     1      27.765  28.326  36.428  1.00  0.00     0.169 HD
ENDBRANCH   1   8
TORSDOF 1
ENDMDL
