REMARK  1 active torsions:
REMARK  status: ('A' for Active; 'I' for Inactive)
REMARK       I    between atoms: C_2  and  N_3 
REMARK    1  A    between atoms: N_3  and  C_4 
ROOT
HETATM    1  C   LIG     1      -0.303   0.232  -0.220  1.00  0.00     0.034 A 
HETATM    2  C   LIG     1      -0.910  -1.009   0.051  1.00  0.00     0.029 A 
HETATM    3  C   LIG     1      -2.301  -1.140  -0.003  1.00  0.00     0.002 A 
HETATM    4  C   LIG     1      -3.097  -0.042  -0.340  1.00  0.00     0.000 A 
HETATM    5  C   LIG     1      -2.501   1.187  -0.632  1.00  0.00     0.002 A 
HETATM    6  C   LIG     1      -1.111   1.323  -0.580  1.00  0.00     0.029 A 
ENDROOT
BRANCH   1   7
HETATM    7  N   LIG     1       1.126   0.390  -0.196  1.00  0.00    -0.328 N 
HETATM    8  C   LIG     1       1.998  -0.303   0.712  1.00  0.00     0.218 C 
HETATM    9  C   LIG     1       3.479  -0.262   0.517  1.00  0.00     0.117 C 
HETATM   10  O   LIG     1       1.530  -0.922   1.705  1.00  0.00    -0.274 OA
HETATM   11  H   LIG     1       1.547   1.118  -0.817  1.00  0.00     0.169 HD
ENDBRANCH   1   7
TORSDOF 1
