MODEL 1
REMARK VINA RESULT:      -6.6      0.000      0.000
REMARK  3 active torsions:
REMARK  status: ('A' for Active; 'I' for Inactive)
REMARK    1  A    between atoms: N_1  and  C_2 
REMARK    2  A    between atoms: C_2  and  N_3 
REMARK    3  A    between atoms: N_3  and  C_4 
ROOT
HETATM    1  N   LIG     1      17.134  38.586  24.430  1.00  0.00    -0.334 N 
HETATM    2  H   LIG     1      17.184  39.428  25.048  1.00  0.00     0.168 HD
ENDROOT
BRANCH   1   3
HETATM    3  C   LIG     1      16.743  38.778  23.062  1.00  0.00     0.169 C 
HETATM    4  S   LIG     1      17.894  38.849  21.901  1.00  0.00    -0.041 SA
BRANCH   3   5
HETATM    5  N   LIG     1      15.364  38.752  22.681  1.00  0.00    -0.376 N 
HETATM    6  H   LIG     1      15.083  38.794  21.677  1.00  0.00     0.158 HD
HETATM    7  H   LIG     1      14.613  38.754  23.407  1.00  0.00     0.158 HD
ENDBRANCH   3   5
ENDBRANCH   1   3
BRANCH   1   8
HETATM    8  C   LIG     1      17.468  37.310  24.999  1.00  0.00     0.034 A 
HETATM    9  C   LIG     1      17.069  36.107  24.388  1.00  0.00     0.029 A 
HETATM   10  C   LIG     1      17.382  34.878  24.975  1.00  0.00     0.002 A 
HETATM   11  C   LIG     1      18.083  34.838  26.184  1.00  0.00     0.000 A 
HETATM   12  C   LIG     1      18.463  36.028  26.810  1.00  0.00     0.002 A 
HETATM   13  C   LIG     1      18.152  37.259  26.224  1.00  0.00     0.029 A 
ENDBRANCH   1   8
TORSDOF 3
ENDMDL
MODEL 2
REMARK VINA RESULT:      -6.4      0.837      1.722
REMARK  3 active torsions:
REMARK  status: ('A' for Active; 'I' for Inactive)
REMARK    1  A    between atoms: N_1  and  C_2 
REMARK    2  A    between atoms: C_2  and  N_3 
REMARK    3  A    between atoms: N_3  and  C_4 
ROOT
HETATM    1  N   LIG     1      16.816  36.820  23.030  1.00  0.00    -0.334 N 
HETATM    2  H   LIG     1      16.488  36.047  22.406  1.00  0.00     0.168 HD
ENDROOT
BRANCH   1   3
HETATM    3  C   LIG     1      16.711  38.166  22.544  1.00  0.00     0.169 C 
HETATM    4  S   LIG     1      17.895  38.770  21.590  1.00  0.00    -0.041 SA
BRANCH   3   5
HETATM    5  N   LIG     1      15.519  38.930  22.749  1.00  0.00    -0.376 N 
HETATM    6  H   LIG     1      14.581  38.537  22.513  1.00  0.00     0.158 HD
HETATM    7  H   LIG     1      15.573  39.919  23.080  1.00  0.00     0.158 HD
ENDBRANCH   3   5
ENDBRANCH   1   3
BRANCH   1   8
HETATM    8  C   LIG     1      17.335  36.469  24.322  1.00  0.00     0.034 A 
HETATM    9  C   LIG     1      17.968  37.422  25.141  1.00  0.00     0.029 A 
HETATM   10  C   LIG     1      18.491  37.051  26.384  1.00  0.00     0.002 A 
HETATM   11  C   LIG     1      18.400  35.724  26.814  1.00  0.00     0.000 A 
HETATM   12  C   LIG     1      17.793  34.766  25.997  1.00  0.00     0.002 A 
HETATM   13  C   LIG     1      17.269  35.134  24.753  1.00  0.00     0.029 A 
ENDBRANCH   1   8
TORSDOF 3
ENDMDL
MODEL 3
REMARK VINA RESULT:      -6.3      1.544      1.688
REMARK  3 active torsions:
REMARK  status: ('A' for Active; 'I' for Inactive)
REMARK    1  A    between atoms: N_1  and  C_2 
REMARK    2  A    between atoms: C_2  and  N_3 
REMARK    3  A    between atoms: N_3  and  C_4 
ROOT
HETATM    1  N   LIG     1      16.616  37.127  23.033  1.00  0.00    -0.334 N 
HETATM    2  H   LIG     1      15.592  37.339  23.054  1.00  0.00     0.168 HD
ENDROOT
BRANCH   1   3
HETATM    3  C   LIG     1      17.329  37.379  21.813  1.00  0.00     0.169 C 
HETATM    4  S   LIG     1      18.029  38.840  21.579  1.00  0.00    -0.041 SA
BRANCH   3   5
HETATM    5  N   LIG     1      17.570  36.328  20.873  1.00  0.00    -0.376 N 
HETATM    6  H   LIG     1      18.451  36.299  20.313  1.00  0.00     0.158 HD
HETATM    7  H   LIG     1      16.839  35.607  20.684  1.00  0.00     0.158 HD
ENDBRANCH   3   5
ENDBRANCH   1   3
BRANCH   1   8
HETATM    8  C   LIG     1      17.224  36.611  24.228  1.00  0.00     0.034 A 
HETATM    9  C   LIG     1      17.154  35.244  24.555  1.00  0.00     0.029 A 
HETATM   10  C   LIG     1      17.729  34.770  25.738  1.00  0.00     0.002 A 
HETATM   11  C   LIG     1      18.365  35.656  26.612  1.00  0.00     0.000 A 
HETATM   12  C   LIG     1      18.419  37.020  26.306  1.00  0.00     0.002 A 
HETATM   13  C   LIG     1      17.845  37.497  25.124  1.00  0.00     0.029 A 
ENDBRANCH   1   8
TORSDOF 3
ENDMDL
MODEL 4
REMARK VINA RESULT:      -6.2      1.710      2.280
REMARK  3 active torsions:
REMARK  status: ('A' for Active; 'I' for Inactive)
REMARK    1  A    between atoms: N_1  and  C_2 
REMARK    2  A    between atoms: C_2  and  N_3 
REMARK    3  A    between atoms: N_3  and  C_4 
ROOT
HETATM    1  N   LIG     1      17.093  36.744  22.866  1.00  0.00    -0.334 N 
HETATM    2  H   LIG     1      17.842  36.759  22.137  1.00  0.00     0.168 HD
ENDROOT
BRANCH   1   3
HETATM    3  C   LIG     1      15.747  37.018  22.451  1.00  0.00     0.169 C 
HETATM    4  S   LIG     1      14.979  35.961  21.465  1.00  0.00    -0.041 SA
BRANCH   3   5
HETATM    5  N   LIG     1      15.015  38.113  23.009  1.00  0.00    -0.376 N 
HETATM    6  H   LIG     1      14.311  37.961  23.765  1.00  0.00     0.158 HD
HETATM    7  H   LIG     1      15.127  39.077  22.624  1.00  0.00     0.158 HD
ENDBRANCH   3   5
ENDBRANCH   1   3
BRANCH   1   8
HETATM    8  C   LIG     1      17.473  36.441  24.218  1.00  0.00     0.034 A 
HETATM    9  C   LIG     1      18.080  37.407  25.042  1.00  0.00     0.029 A 
HETATM   10  C   LIG     1      18.466  37.081  26.346  1.00  0.00     0.002 A 
HETATM   11  C   LIG     1      18.264  35.787  26.833  1.00  0.00     0.000 A 
HETATM   12  C   LIG     1      17.683  34.815  26.013  1.00  0.00     0.002 A 
HETATM   13  C   LIG     1      17.295  35.138  24.709  1.00  0.00     0.029 A 
ENDBRANCH   1   8
TORSDOF 3
ENDMDL
MODEL 5
REMARK VINA RESULT:      -6.2      3.145      4.743
REMARK  3 active torsions:
REMARK  status: ('A' for Active; 'I' for Inactive)
REMARK    1  A    between atoms: N_1  and  C_2 
REMARK    2  A    between atoms: C_2  and  N_3 
REMARK    3  A    between atoms: N_3  and  C_4 
ROOT
HETATM    1  N   LIG     1      17.310  39.042  22.608  1.00  0.00    -0.334 N 
HETATM    2  H   LIG     1      17.347  40.066  22.816  1.00  0.00     0.168 HD
ENDROOT
BRANCH   1   3
HETATM    3  C   LIG     1      16.517  38.209  23.466  1.00  0.00     0.169 C 
HETATM    4  S   LIG     1      17.179  37.605  24.836  1.00  0.00    -0.041 SA
BRANCH   3   5
HETATM    5  N   LIG     1      15.118  38.029  23.227  1.00  0.00    -0.376 N 
HETATM    6  H   LIG     1      14.779  37.494  22.396  1.00  0.00     0.158 HD
HETATM    7  H   LIG     1      14.410  38.484  23.845  1.00  0.00     0.158 HD
ENDBRANCH   3   5
ENDBRANCH   1   3
BRANCH   1   8
HETATM    8  C   LIG     1      18.049  38.557  21.475  1.00  0.00     0.034 A 
HETATM    9  C   LIG     1      17.883  37.242  21.000  1.00  0.00     0.029 A 
HETATM   10  C   LIG     1      18.634  36.784  19.913  1.00  0.00     0.002 A 
HETATM   11  C   LIG     1      19.566  37.626  19.301  1.00  0.00     0.000 A 
HETATM   12  C   LIG     1      19.753  38.926  19.780  1.00  0.00     0.002 A 
HETATM   13  C   LIG     1      19.004  39.387  20.867  1.00  0.00     0.029 A 
ENDBRANCH   1   8
TORSDOF 3
ENDMDL
MODEL 6
REMARK VINA RESULT:      -5.9      4.277      5.217
REMARK  3 active torsions:
REMARK  status: ('A' for Active; 'I' for Inactive)
REMARK    1  A    between atoms: N_1  and  C_2 
REMARK    2  A    between atoms: C_2  and  N_3 
REMARK    3  A    between atoms: N_3  and  C_4 
ROOT
HETATM    1  N   LIG     1      16.924  35.445  21.506  1.00  0.00    -0.334 N 
HETATM    2  H   LIG     1      17.396  34.843  22.219  1.00  0.00     0.168 HD
ENDROOT
BRANCH   1   3
HETATM    3  C   LIG     1      15.656  35.010  20.993  1.00  0.00     0.169 C 
HETATM    4  S   LIG     1      15.543  33.550  20.262  1.00  0.00    -0.041 SA
BRANCH   3   5
HETATM    5  N   LIG     1      14.464  35.759  21.249  1.00  0.00    -0.376 N 
HETATM    6  H   LIG     1      14.508  36.774  21.488  1.00  0.00     0.158 HD
HETATM    7  H   LIG     1      13.533  35.286  21.265  1.00  0.00     0.158 HD
ENDBRANCH   3   5
ENDBRANCH   1   3
BRANCH   1   8
HETATM    8  C   LIG     1      17.579  36.660  21.107  1.00  0.00     0.034 A 
HETATM    9  C   LIG     1      18.435  36.698  19.990  1.00  0.00     0.029 A 
HETATM   10  C   LIG     1      19.084  37.885  19.638  1.00  0.00     0.002 A 
HETATM   11  C   LIG     1      18.897  39.039  20.404  1.00  0.00     0.000 A 
HETATM   12  C   LIG     1      18.067  39.004  21.528  1.00  0.00     0.002 A 
HETATM   13  C   LIG     1      17.416  37.818  21.883  1.00  0.00     0.029 A 
ENDBRANCH   1   8
TORSDOF 3
ENDMDL
MODEL 7
REMARK VINA RESULT:      -5.9      4.258      5.336
REMARK  3 active torsions:
REMARK  status: ('A' for Active; 'I' for Inactive)
REMARK    1  A    between atoms: N_1  and  C_2 
REMARK    2  A    between atoms: C_2  and  N_3 
REMARK    3  A    between atoms: N_3  and  C_4 
ROOT
HETATM    1  N   LIG     1      16.899  35.438  21.555  1.00  0.00    -0.334 N 
HETATM    2  H   LIG     1      17.347  34.827  22.275  1.00  0.00     0.168 HD
ENDROOT
BRANCH   1   3
HETATM    3  C   LIG     1      15.644  35.015  21.002  1.00  0.00     0.169 C 
HETATM    4  S   LIG     1      15.547  33.565  20.249  1.00  0.00    -0.041 SA
BRANCH   3   5
HETATM    5  N   LIG     1      14.448  35.765  21.234  1.00  0.00    -0.376 N 
HETATM    6  H   LIG     1      13.688  35.800  20.519  1.00  0.00     0.158 HD
HETATM    7  H   LIG     1      14.344  36.343  22.097  1.00  0.00     0.158 HD
ENDBRANCH   3   5
ENDBRANCH   1   3
BRANCH   1   8
HETATM    8  C   LIG     1      17.572  36.654  21.187  1.00  0.00     0.034 A 
HETATM    9  C   LIG     1      17.378  37.845  21.910  1.00  0.00     0.029 A 
HETATM   10  C   LIG     1      18.022  39.022  21.516  1.00  0.00     0.002 A 
HETATM   11  C   LIG     1      18.852  39.025  20.391  1.00  0.00     0.000 A 
HETATM   12  C   LIG     1      19.031  37.850  19.654  1.00  0.00     0.002 A 
HETATM   13  C   LIG     1      18.388  36.671  20.045  1.00  0.00     0.029 A 
ENDBRANCH   1   8
TORSDOF 3
ENDMDL
MODEL 8
REMARK VINA RESULT:      -5.6      1.910      2.567
REMARK  3 active torsions:
REMARK  status: ('A' for Active; 'I' for Inactive)
REMARK    1  A    between atoms: N_1  and  C_2 
REMARK    2  A    between atoms: C_2  and  N_3 
REMARK    3  A    between atoms: N_3  and  C_4 
ROOT
HETATM    1  N   LIG     1      17.070  37.664  21.952  1.00  0.00    -0.334 N 
HETATM    2  H   LIG     1      16.095  37.753  21.585  1.00  0.00     0.168 HD
ENDROOT
BRANCH   1   3
HETATM    3  C   LIG     1      18.140  38.178  21.146  1.00  0.00     0.169 C 
HETATM    4  S   LIG     1      18.673  37.307  19.867  1.00  0.00    -0.041 SA
BRANCH   3   5
HETATM    5  N   LIG     1      18.640  39.504  21.347  1.00  0.00    -0.376 N 
HETATM    6  H   LIG     1      18.890  40.113  20.536  1.00  0.00     0.158 HD
HETATM    7  H   LIG     1      18.823  39.862  22.310  1.00  0.00     0.158 HD
ENDBRANCH   3   5
ENDBRANCH   1   3
BRANCH   1   8
HETATM    8  C   LIG     1      17.255  37.044  23.235  1.00  0.00     0.034 A 
HETATM    9  C   LIG     1      17.689  37.784  24.350  1.00  0.00     0.029 A 
HETATM   10  C   LIG     1      17.889  37.154  25.582  1.00  0.00     0.002 A 
HETATM   11  C   LIG     1      17.672  35.779  25.709  1.00  0.00     0.000 A 
HETATM   12  C   LIG     1      17.262  35.032  24.600  1.00  0.00     0.002 A 
HETATM   13  C   LIG     1      17.061  35.660  23.367  1.00  0.00     0.029 A 
ENDBRANCH   1   8
TORSDOF 3
ENDMDL
MODEL 9
REMARK VINA RESULT:      -5.5      9.708     10.773
REMARK  3 active torsions:
REMARK  status: ('A' for Active; 'I' for Inactive)
REMARK    1  A    between atoms: N_1  and  C_2 
REMARK    2  A    between atoms: C_2  and  N_3 
REMARK    3  A    between atoms: N_3  and  C_4 
ROOT
HETATM    1  N   LIG     1      13.789  32.215  17.732  1.00  0.00    -0.334 N 
HETATM    2  H   LIG     1      12.791  32.346  18.015  1.00  0.00     0.168 HD
ENDROOT
BRANCH   1   3
HETATM    3  C   LIG     1      14.806  32.757  18.586  1.00  0.00     0.169 C 
HETATM    4  S   LIG     1      15.465  31.812  19.749  1.00  0.00    -0.041 SA
BRANCH   3   5
HETATM    5  N   LIG     1      15.362  34.051  18.338  1.00  0.00    -0.376 N 
HETATM    6  H   LIG     1      14.840  34.762  17.779  1.00  0.00     0.158 HD
HETATM    7  H   LIG     1      16.328  34.284  18.658  1.00  0.00     0.158 HD
ENDBRANCH   3   5
ENDBRANCH   1   3
BRANCH   1   8
HETATM    8  C   LIG     1      14.057  31.497  16.517  1.00  0.00     0.034 A 
HETATM    9  C   LIG     1      15.205  31.761  15.748  1.00  0.00     0.029 A 
HETATM   10  C   LIG     1      15.430  31.068  14.554  1.00  0.00     0.002 A 
HETATM   11  C   LIG     1      14.506  30.118  14.110  1.00  0.00     0.000 A 
HETATM   12  C   LIG     1      13.351  29.866  14.856  1.00  0.00     0.002 A 
HETATM   13  C   LIG     1      13.123  30.557  16.051  1.00  0.00     0.029 A 
ENDBRANCH   1   8
TORSDOF 3
ENDMDL
MODEL 10
REMARK VINA RESULT:      -5.4      3.006      3.875
REMARK  3 active torsions:
REMARK  status: ('A' for Active; 'I' for Inactive)
REMARK    1  A    between atoms: N_1  and  C_2 
REMARK    2  A    between atoms: C_2  and  N_3 
REMARK    3  A    between atoms: N_3  and  C_4 
ROOT
HETATM    1  N   LIG     1      16.829  35.077  21.726  1.00  0.00    -0.334 N 
HETATM    2  H   LIG     1      17.657  34.477  21.507  1.00  0.00     0.168 HD
ENDROOT
BRANCH   1   3
HETATM    3  C   LIG     1      15.588  34.773  21.073  1.00  0.00     0.169 C 
HETATM    4  S   LIG     1      15.457  33.396  20.198  1.00  0.00    -0.041 SA
BRANCH   3   5
HETATM    5  N   LIG     1      14.423  35.571  21.302  1.00  0.00    -0.376 N 
HETATM    6  H   LIG     1      14.447  36.383  21.958  1.00  0.00     0.158 HD
HETATM    7  H   LIG     1      13.510  35.316  20.863  1.00  0.00     0.158 HD
ENDBRANCH   3   5
ENDBRANCH   1   3
BRANCH   1   8
HETATM    8  C   LIG     1      17.001  36.147  22.670  1.00  0.00     0.034 A 
HETATM    9  C   LIG     1      17.151  37.480  22.246  1.00  0.00     0.029 A 
HETATM   10  C   LIG     1      17.345  38.501  23.182  1.00  0.00     0.002 A 
HETATM   11  C   LIG     1      17.406  38.199  24.545  1.00  0.00     0.000 A 
HETATM   12  C   LIG     1      17.282  36.874  24.973  1.00  0.00     0.002 A 
HETATM   13  C   LIG     1      17.087  35.851  24.040  1.00  0.00     0.029 A 
ENDBRANCH   1   8
TORSDOF 3
ENDMDL
MODEL 11
REMARK VINA RESULT:      -5.4      9.288     10.315
REMARK  3 active torsions:
REMARK  status: ('A' for Active; 'I' for Inactive)
REMARK    1  A    between atoms: N_1  and  C_2 
REMARK    2  A    between atoms: C_2  and  N_3 
REMARK    3  A    between atoms: N_3  and  C_4 
ROOT
HETATM    1  N   LIG     1      14.228  32.754  18.004  1.00  0.00    -0.334 N 
HETATM    2  H   LIG     1      13.658  33.630  17.981  1.00  0.00     0.168 HD
ENDROOT
BRANCH   1   3
HETATM    3  C   LIG     1      14.800  32.357  19.259  1.00  0.00     0.169 C 
HETATM    4  S   LIG     1      15.608  33.461  20.158  1.00  0.00    -0.041 SA
BRANCH   3   5
HETATM    5  N   LIG     1      14.541  31.062  19.808  1.00  0.00    -0.376 N 
HETATM    6  H   LIG     1      14.473  30.221  19.193  1.00  0.00     0.158 HD
HETATM    7  H   LIG     1      14.353  30.946  20.828  1.00  0.00     0.158 HD
ENDBRANCH   3   5
ENDBRANCH   1   3
BRANCH   1   8
HETATM    8  C   LIG     1      14.382  32.016  16.781  1.00  0.00     0.034 A 
HETATM    9  C   LIG     1      13.467  31.013  16.410  1.00  0.00     0.029 A 
HETATM   10  C   LIG     1      13.653  30.289  15.228  1.00  0.00     0.002 A 
HETATM   11  C   LIG     1      14.760  30.548  14.415  1.00  0.00     0.000 A 
HETATM   12  C   LIG     1      15.686  31.526  14.788  1.00  0.00     0.002 A 
HETATM   13  C   LIG     1      15.502  32.252  15.969  1.00  0.00     0.029 A 
ENDBRANCH   1   8
TORSDOF 3
ENDMDL
MODEL 12
REMARK VINA RESULT:      -5.2      9.960     10.912
REMARK  3 active torsions:
REMARK  status: ('A' for Active; 'I' for Inactive)
REMARK    1  A    between atoms: N_1  and  C_2 
REMARK    2  A    between atoms: C_2  and  N_3 
REMARK    3  A    between atoms: N_3  and  C_4 
ROOT
HETATM    1  N   LIG     1      17.093  32.405  15.437  1.00  0.00    -0.334 N 
HETATM    2  H   LIG     1      17.896  31.818  15.757  1.00  0.00     0.168 HD
ENDROOT
BRANCH   1   3
HETATM    3  C   LIG     1      17.387  33.679  14.844  1.00  0.00     0.169 C 
HETATM    4  S   LIG     1      17.822  33.750  13.268  1.00  0.00    -0.041 SA
BRANCH   3   5
HETATM    5  N   LIG     1      17.154  34.894  15.562  1.00  0.00    -0.376 N 
HETATM    6  H   LIG     1      17.898  35.623  15.642  1.00  0.00     0.158 HD
HETATM    7  H   LIG     1      16.256  35.046  16.072  1.00  0.00     0.158 HD
ENDBRANCH   3   5
ENDBRANCH   1   3
BRANCH   1   8
HETATM    8  C   LIG     1      15.765  31.884  15.608  1.00  0.00     0.034 A 
HETATM    9  C   LIG     1      14.944  32.307  16.669  1.00  0.00     0.029 A 
HETATM   10  C   LIG     1      13.665  31.765  16.832  1.00  0.00     0.002 A 
HETATM   11  C   LIG     1      13.201  30.788  15.947  1.00  0.00     0.000 A 
HETATM   12  C   LIG     1      14.019  30.346  14.904  1.00  0.00     0.002 A 
HETATM   13  C   LIG     1      15.298  30.886  14.738  1.00  0.00     0.029 A 
ENDBRANCH   1   8
TORSDOF 3
ENDMDL
MODEL 13
REMARK VINA RESULT:      -5.1      3.929      5.061
REMARK  3 active torsions:
REMARK  status: ('A' for Active; 'I' for Inactive)
REMARK    1  A    between atoms: N_1  and  C_2 
REMARK    2  A    between atoms: C_2  and  N_3 
REMARK    3  A    between atoms: N_3  and  C_4 
ROOT
HETATM    1  N   LIG     1      19.026  37.543  19.282  1.00  0.00    -0.334 N 
HETATM    2  H   LIG     1      19.242  36.611  18.860  1.00  0.00     0.168 HD
ENDROOT
BRANCH   1   3
HETATM    3  C   LIG     1      19.532  38.713  18.623  1.00  0.00     0.169 C 
HETATM    4  S   LIG     1      18.622  39.444  17.475  1.00  0.00    -0.041 SA
BRANCH   3   5
HETATM    5  N   LIG     1      20.741  39.338  19.061  1.00  0.00    -0.376 N 
HETATM    6  H   LIG     1      21.335  38.902  19.800  1.00  0.00     0.158 HD
HETATM    7  H   LIG     1      21.017  40.276  18.693  1.00  0.00     0.158 HD
ENDBRANCH   3   5
ENDBRANCH   1   3
BRANCH   1   8
HETATM    8  C   LIG     1      18.234  37.573  20.480  1.00  0.00     0.034 A 
HETATM    9  C   LIG     1      18.119  38.744  21.253  1.00  0.00     0.029 A 
HETATM   10  C   LIG     1      17.365  38.741  22.431  1.00  0.00     0.002 A 
HETATM   11  C   LIG     1      16.732  37.570  22.855  1.00  0.00     0.000 A 
HETATM   12  C   LIG     1      16.859  36.397  22.105  1.00  0.00     0.002 A 
HETATM   13  C   LIG     1      17.612  36.396  20.927  1.00  0.00     0.029 A 
ENDBRANCH   1   8
TORSDOF 3
ENDMDL
MODEL 14
REMARK VINA RESULT:      -5.0     11.468     12.389
REMARK  3 active torsions:
REMARK  status: ('A' for Active; 'I' for Inactive)
REMARK    1  A    between atoms: N_1  and  C_2 
REMARK    2  A    between atoms: C_2  and  N_3 
REMARK    3  A    between atoms: N_3  and  C_4 
ROOT
HETATM    1  N   LIG     1      14.449  30.046  13.699  1.00  0.00    -0.334 N 
HETATM    2  H   LIG     1      14.593  30.520  12.778  1.00  0.00     0.168 HD
ENDROOT
BRANCH   1   3
HETATM    3  C   LIG     1      14.149  28.642  13.693  1.00  0.00     0.169 C 
HETATM    4  S   LIG     1      15.374  27.559  13.623  1.00  0.00    -0.041 SA
BRANCH   3   5
HETATM    5  N   LIG     1      12.813  28.176  13.904  1.00  0.00    -0.376 N 
HETATM    6  H   LIG     1      12.035  28.844  14.099  1.00  0.00     0.158 HD
HETATM    7  H   LIG     1      12.606  27.153  13.930  1.00  0.00     0.158 HD
ENDBRANCH   3   5
ENDBRANCH   1   3
BRANCH   1   8
HETATM    8  C   LIG     1      14.573  30.837  14.892  1.00  0.00     0.034 A 
HETATM    9  C   LIG     1      13.621  30.759  15.925  1.00  0.00     0.029 A 
HETATM   10  C   LIG     1      13.748  31.560  17.064  1.00  0.00     0.002 A 
HETATM   11  C   LIG     1      14.816  32.454  17.177  1.00  0.00     0.000 A 
HETATM   12  C   LIG     1      15.754  32.554  16.145  1.00  0.00     0.002 A 
HETATM   13  C   LIG     1      15.630  31.755  15.004  1.00  0.00     0.029 A 
ENDBRANCH   1   8
TORSDOF 3
ENDMDL
MODEL 15
REMARK VINA RESULT:      -4.8     12.546     13.515
REMARK  3 active torsions:
REMARK  status: ('A' for Active; 'I' for Inactive)
REMARK    1  A    between atoms: N_1  and  C_2 
REMARK    2  A    between atoms: C_2  and  N_3 
REMARK    3  A    between atoms: N_3  and  C_4 
ROOT
HETATM    1  N   LIG     1      12.575  28.977  14.073  1.00  0.00    -0.334 N 
HETATM    2  H   LIG     1      11.568  29.236  13.954  1.00  0.00     0.168 HD
ENDROOT
BRANCH   1   3
HETATM    3  C   LIG     1      13.004  27.701  13.576  1.00  0.00     0.169 C 
HETATM    4  S   LIG     1      11.901  26.680  12.927  1.00  0.00    -0.041 SA
BRANCH   3   5
HETATM    5  N   LIG     1      14.394  27.374  13.495  1.00  0.00    -0.376 N 
HETATM    6  H   LIG     1      14.903  26.980  14.317  1.00  0.00     0.158 HD
HETATM    7  H   LIG     1      14.939  27.584  12.630  1.00  0.00     0.158 HD
ENDBRANCH   3   5
ENDBRANCH   1   3
BRANCH   1   8
HETATM    8  C   LIG     1      13.443  29.924  14.715  1.00  0.00     0.034 A 
HETATM    9  C   LIG     1      13.106  30.507  15.950  1.00  0.00     0.029 A 
HETATM   10  C   LIG     1      13.955  31.448  16.543  1.00  0.00     0.002 A 
HETATM   11  C   LIG     1      15.138  31.826  15.901  1.00  0.00     0.000 A 
HETATM   12  C   LIG     1      15.469  31.269  14.663  1.00  0.00     0.002 A 
HETATM   13  C   LIG     1      14.623  30.327  14.068  1.00  0.00     0.029 A 
ENDBRANCH   1   8
TORSDOF 3
ENDMDL
MODEL 16
REMARK VINA RESULT:      -4.7      3.421      4.300
REMARK  3 active torsions:
REMARK  status: ('A' for Active; 'I' for Inactive)
REMARK    1  A    between atoms: N_1  and  C_2 
REMARK    2  A    between atoms: C_2  and  N_3 
REMARK    3  A    between atoms: N_3  and  C_4 
ROOT
HETATM    1  N   LIG     1      18.379  37.385  19.449  1.00  0.00    -0.334 N 
HETATM    2  H   LIG     1      18.190  36.673  18.707  1.00  0.00     0.168 HD
ENDROOT
BRANCH   1   3
HETATM    3  C   LIG     1      19.128  38.554  19.084  1.00  0.00     0.169 C 
HETATM    4  S   LIG     1      20.720  38.636  19.455  1.00  0.00    -0.041 SA
BRANCH   3   5
HETATM    5  N   LIG     1      18.547  39.573  18.265  1.00  0.00    -0.376 N 
HETATM    6  H   LIG     1      17.784  40.186  18.630  1.00  0.00     0.158 HD
HETATM    7  H   LIG     1      18.832  39.679  17.267  1.00  0.00     0.158 HD
ENDBRANCH   3   5
ENDBRANCH   1   3
BRANCH   1   8
HETATM    8  C   LIG     1      17.865  37.139  20.768  1.00  0.00     0.034 A 
HETATM    9  C   LIG     1      17.389  35.870  21.143  1.00  0.00     0.029 A 
HETATM   10  C   LIG     1      16.867  35.661  22.424  1.00  0.00     0.002 A 
HETATM   11  C   LIG     1      16.803  36.719  23.335  1.00  0.00     0.000 A 
HETATM   12  C   LIG     1      17.253  37.989  22.962  1.00  0.00     0.002 A 
HETATM   13  C   LIG     1      17.775  38.201  21.683  1.00  0.00     0.029 A 
ENDBRANCH   1   8
TORSDOF 3
ENDMDL
MODEL 17
REMARK VINA RESULT:      -4.5      3.191      5.061
REMARK  3 active torsions:
REMARK  status: ('A' for Active; 'I' for Inactive)
REMARK    1  A    between atoms: N_1  and  C_2 
REMARK    2  A    between atoms: C_2  and  N_3 
REMARK    3  A    between atoms: N_3  and  C_4 
ROOT
HETATM    1  N   LIG     1      16.895  37.693  22.311  1.00  0.00    -0.334 N 
HETATM    2  H   LIG     1      15.916  37.469  22.020  1.00  0.00     0.168 HD
ENDROOT
BRANCH   1   3
HETATM    3  C   LIG     1      17.175  37.780  23.716  1.00  0.00     0.169 C 
HETATM    4  S   LIG     1      18.694  38.131  24.212  1.00  0.00    -0.041 SA
BRANCH   3   5
HETATM    5  N   LIG     1      16.120  37.720  24.681  1.00  0.00    -0.376 N 
HETATM    6  H   LIG     1      15.491  38.539  24.841  1.00  0.00     0.158 HD
HETATM    7  H   LIG     1      16.001  36.878  25.286  1.00  0.00     0.158 HD
ENDBRANCH   3   5
ENDBRANCH   1   3
BRANCH   1   8
HETATM    8  C   LIG     1      17.878  37.886  21.282  1.00  0.00     0.034 A 
HETATM    9  C   LIG     1      18.419  39.157  21.015  1.00  0.00     0.029 A 
HETATM   10  C   LIG     1      19.354  39.326  19.989  1.00  0.00     0.002 A 
HETATM   11  C   LIG     1      19.745  38.232  19.211  1.00  0.00     0.000 A 
HETATM   12  C   LIG     1      19.195  36.970  19.454  1.00  0.00     0.002 A 
HETATM   13  C   LIG     1      18.260  36.799  20.480  1.00  0.00     0.029 A 
ENDBRANCH   1   8
TORSDOF 3
ENDMDL
MODEL 18
REMARK VINA RESULT:      -4.5     11.035     11.927
REMARK  3 active torsions:
REMARK  status: ('A' for Active; 'I' for Inactive)
REMARK    1  A    between atoms: N_1  and  C_2 
REMARK    2  A    between atoms: C_2  and  N_3 
REMARK    3  A    between atoms: N_3  and  C_4 
ROOT
HETATM    1  N   LIG     1      17.901  33.564  13.891  1.00  0.00    -0.334 N 
HETATM    2  H   LIG     1      18.558  33.890  14.637  1.00  0.00     0.168 HD
ENDROOT
BRANCH   1   3
HETATM    3  C   LIG     1      18.160  33.974  12.541  1.00  0.00     0.169 C 
HETATM    4  S   LIG     1      19.387  33.277  11.711  1.00  0.00    -0.041 SA
BRANCH   3   5
HETATM    5  N   LIG     1      17.270  34.863  11.860  1.00  0.00    -0.376 N 
HETATM    6  H   LIG     1      16.339  35.107  12.264  1.00  0.00     0.158 HD
HETATM    7  H   LIG     1      17.512  35.234  10.914  1.00  0.00     0.158 HD
ENDBRANCH   3   5
ENDBRANCH   1   3
BRANCH   1   8
HETATM    8  C   LIG     1      16.802  32.725  14.281  1.00  0.00     0.034 A 
HETATM    9  C   LIG     1      16.237  32.807  15.567  1.00  0.00     0.029 A 
HETATM   10  C   LIG     1      15.186  31.961  15.932  1.00  0.00     0.002 A 
HETATM   11  C   LIG     1      14.699  31.016  15.024  1.00  0.00     0.000 A 
HETATM   12  C   LIG     1      15.270  30.911  13.753  1.00  0.00     0.002 A 
HETATM   13  C   LIG     1      16.321  31.757  13.384  1.00  0.00     0.029 A 
ENDBRANCH   1   8
TORSDOF 3
ENDMDL
MODEL 19
REMARK VINA RESULT:      -4.4      2.662      4.291
REMARK  3 active torsions:
REMARK  status: ('A' for Active; 'I' for Inactive)
REMARK    1  A    between atoms: N_1  and  C_2 
REMARK    2  A    between atoms: C_2  and  N_3 
REMARK    3  A    between atoms: N_3  and  C_4 
ROOT
HETATM    1  N   LIG     1      16.897  37.234  24.985  1.00  0.00    -0.334 N 
HETATM    2  H   LIG     1      16.035  37.585  25.462  1.00  0.00     0.168 HD
ENDROOT
BRANCH   1   3
HETATM    3  C   LIG     1      17.515  36.047  25.502  1.00  0.00     0.169 C 
HETATM    4  S   LIG     1      18.434  36.143  26.854  1.00  0.00    -0.041 SA
BRANCH   3   5
HETATM    5  N   LIG     1      17.215  34.762  24.950  1.00  0.00    -0.376 N 
HETATM    6  H   LIG     1      16.274  34.556  24.547  1.00  0.00     0.158 HD
HETATM    7  H   LIG     1      17.913  33.987  24.999  1.00  0.00     0.158 HD
ENDBRANCH   3   5
ENDBRANCH   1   3
BRANCH   1   8
HETATM    8  C   LIG     1      17.384  37.964  23.847  1.00  0.00     0.034 A 
HETATM    9  C   LIG     1      16.607  38.110  22.683  1.00  0.00     0.029 A 
HETATM   10  C   LIG     1      17.113  38.801  21.578  1.00  0.00     0.002 A 
HETATM   11  C   LIG     1      18.402  39.339  21.618  1.00  0.00     0.000 A 
HETATM   12  C   LIG     1      19.189  39.179  22.762  1.00  0.00     0.002 A 
HETATM   13  C   LIG     1      18.686  38.489  23.869  1.00  0.00     0.029 A 
ENDBRANCH   1   8
TORSDOF 3
ENDMDL
MODEL 20
REMARK VINA RESULT:      -4.3      7.952      8.846
REMARK  3 active torsions:
REMARK  status: ('A' for Active; 'I' for Inactive)
REMARK    1  A    between atoms: N_1  and  C_2 
REMARK    2  A    between atoms: C_2  and  N_3 
REMARK    3  A    between atoms: N_3  and  C_4 
ROOT
HETATM    1  N   LIG     1      14.855  32.728  16.317  1.00  0.00    -0.334 N 
HETATM    2  H   LIG     1      13.894  32.850  15.925  1.00  0.00     0.168 HD
ENDROOT
BRANCH   1   3
HETATM    3  C   LIG     1      15.872  32.200  15.453  1.00  0.00     0.169 C 
HETATM    4  S   LIG     1      15.462  31.108  14.304  1.00  0.00    -0.041 SA
BRANCH   3   5
HETATM    5  N   LIG     1      17.201  32.727  15.475  1.00  0.00    -0.376 N 
HETATM    6  H   LIG     1      18.004  32.179  15.094  1.00  0.00     0.158 HD
HETATM    7  H   LIG     1      17.401  33.645  15.930  1.00  0.00     0.158 HD
ENDBRANCH   3   5
ENDBRANCH   1   3
BRANCH   1   8
HETATM    8  C   LIG     1      15.079  33.107  17.685  1.00  0.00     0.034 A 
HETATM    9  C   LIG     1      15.354  34.441  18.039  1.00  0.00     0.029 A 
HETATM   10  C   LIG     1      15.596  34.782  19.374  1.00  0.00     0.002 A 
HETATM   11  C   LIG     1      15.581  33.794  20.363  1.00  0.00     0.000 A 
HETATM   12  C   LIG     1      15.332  32.463  20.016  1.00  0.00     0.002 A 
HETATM   13  C   LIG     1      15.089  32.119  18.682  1.00  0.00     0.029 A 
ENDBRANCH   1   8
TORSDOF 3
ENDMDL
