REMARK  4 active torsions:
REMARK  status: ('A' for Active; 'I' for Inactive)
REMARK    1  A    between atoms: C_2  and  C_6 
REMARK    2  A    between atoms: C_2  and  O_3 
REMARK    3  A    between atoms: O_3  and  C_4 
REMARK    4  A    between atoms: C_7  and  C_8 
ROOT
HETATM    1  C   LIG     1       0.883   0.763  -2.103  1.00  0.00     0.083 C 
HETATM    2  C   LIG     1      -0.142   1.522  -1.687  1.00  0.00     0.017 C 
ENDROOT
BRANCH   2   3
HETATM    3  C   LIG     1      -1.066   1.179  -0.587  1.00  0.00    -0.036 A 
HETATM    4  C   LIG     1      -1.700  -0.075  -0.531  1.00  0.00     0.011 A 
HETATM    5  C   LIG     1      -2.602  -0.363   0.498  1.00  0.00     0.001 A 
HETATM    6  C   LIG     1      -2.895   0.604   1.463  1.00  0.00     0.000 A 
HETATM    7  C   LIG     1      -2.293   1.863   1.396  1.00  0.00     0.001 A 
HETATM    8  C   LIG     1      -1.390   2.155   0.369  1.00  0.00     0.011 A 
ENDBRANCH   2   3
BRANCH   1   9
HETATM    9  C   LIG     1       1.381  -0.447  -1.422  1.00  0.00     0.282 C 
HETATM   10  O   LIG     1       2.125  -1.241  -2.059  1.00  0.00    -0.260 OA
BRANCH   9  11
HETATM   11  O   LIG     1       1.080  -0.687  -0.075  1.00  0.00    -0.319 OA
BRANCH  11  12
HETATM   12  C   LIG     1       1.564  -1.814   0.652  1.00  0.00     0.174 C 
HETATM   13  C   LIG     1       3.022  -1.613   1.046  1.00  0.00     0.034 C 
ENDBRANCH  11  12
ENDBRANCH   9  11
ENDBRANCH   1   9
TORSDOF 4
