MODEL 1
REMARK VINA RESULT:      -6.2      0.000      0.000
REMARK  2 active torsions:
REMARK  status: ('A' for Active; 'I' for Inactive)
REMARK    1  A    between atoms: C_2  and  N_3 
REMARK    2  A    between atoms: N_3  and  C_4 
ROOT
HETATM    1  C   LIG     1      17.297  37.292  24.857  1.00  0.00     0.034 A 
HETATM    2  C   LIG     1      17.927  37.361  26.110  1.00  0.00     0.029 A 
HETATM    3  C   LIG     1      18.321  36.194  26.771  1.00  0.00     0.002 A 
HETATM    4  C   LIG     1      18.076  34.946  26.193  1.00  0.00     0.000 A 
HETATM    5  C   LIG     1      17.429  34.864  24.958  1.00  0.00     0.002 A 
HETATM    6  C   LIG     1      17.034  36.029  24.293  1.00  0.00     0.029 A 
ENDROOT
BRANCH   1   7
HETATM    7  N   LIG     1      16.882  38.506  24.209  1.00  0.00    -0.334 N 
HETATM    8  H   LIG     1      16.406  39.238  24.783  1.00  0.00     0.168 HD
BRANCH   7   9
HETATM    9  C   LIG     1      17.182  38.842  22.848  1.00  0.00     0.353 C 
HETATM   10  O   LIG     1      18.371  38.966  22.451  1.00  0.00    -0.283 OA
ENDBRANCH   7   9
ENDBRANCH   1   7
TORSDOF 2
ENDMDL
MODEL 2
REMARK VINA RESULT:      -5.9      3.003      4.900
REMARK  2 active torsions:
REMARK  status: ('A' for Active; 'I' for Inactive)
REMARK    1  A    between atoms: C_2  and  N_3 
REMARK    2  A    between atoms: N_3  and  C_4 
ROOT
HETATM    1  C   LIG     1      17.655  37.538  21.354  1.00  0.00     0.034 A 
HETATM    2  C   LIG     1      18.231  38.817  21.427  1.00  0.00     0.029 A 
HETATM    3  C   LIG     1      19.233  39.194  20.528  1.00  0.00     0.002 A 
HETATM    4  C   LIG     1      19.679  38.293  19.558  1.00  0.00     0.000 A 
HETATM    5  C   LIG     1      19.129  37.011  19.491  1.00  0.00     0.002 A 
HETATM    6  C   LIG     1      18.125  36.629  20.388  1.00  0.00     0.029 A 
ENDROOT
BRANCH   1   7
HETATM    7  N   LIG     1      16.641  37.168  22.305  1.00  0.00    -0.334 N 
HETATM    8  H   LIG     1      15.741  36.779  21.944  1.00  0.00     0.168 HD
BRANCH   7   9
HETATM    9  C   LIG     1      16.821  37.180  23.727  1.00  0.00     0.353 C 
HETATM   10  O   LIG     1      16.215  38.010  24.455  1.00  0.00    -0.283 OA
ENDBRANCH   7   9
ENDBRANCH   1   7
TORSDOF 2
ENDMDL
MODEL 3
REMARK VINA RESULT:      -5.8      1.594      1.778
REMARK  2 active torsions:
REMARK  status: ('A' for Active; 'I' for Inactive)
REMARK    1  A    between atoms: C_2  and  N_3 
REMARK    2  A    between atoms: N_3  and  C_4 
ROOT
HETATM    1  C   LIG     1      17.218  36.515  24.226  1.00  0.00     0.034 A 
HETATM    2  C   LIG     1      17.799  37.474  25.071  1.00  0.00     0.029 A 
HETATM    3  C   LIG     1      18.385  37.090  26.281  1.00  0.00     0.002 A 
HETATM    4  C   LIG     1      18.383  35.747  26.664  1.00  0.00     0.000 A 
HETATM    5  C   LIG     1      17.787  34.787  25.842  1.00  0.00     0.002 A 
HETATM    6  C   LIG     1      17.201  35.167  24.630  1.00  0.00     0.029 A 
ENDROOT
BRANCH   1   7
HETATM    7  N   LIG     1      16.603  36.940  22.997  1.00  0.00    -0.334 N 
HETATM    8  H   LIG     1      16.179  37.894  22.958  1.00  0.00     0.168 HD
BRANCH   7   9
HETATM    9  C   LIG     1      16.633  36.192  21.775  1.00  0.00     0.353 C 
HETATM   10  O   LIG     1      17.622  36.248  20.998  1.00  0.00    -0.283 OA
ENDBRANCH   7   9
ENDBRANCH   1   7
TORSDOF 2
ENDMDL
MODEL 4
REMARK VINA RESULT:      -5.5      2.293      4.087
REMARK  2 active torsions:
REMARK  status: ('A' for Active; 'I' for Inactive)
REMARK    1  A    between atoms: C_2  and  N_3 
REMARK    2  A    between atoms: N_3  and  C_4 
ROOT
HETATM    1  C   LIG     1      17.183  37.728  22.778  1.00  0.00     0.034 A 
HETATM    2  C   LIG     1      16.843  36.422  22.390  1.00  0.00     0.029 A 
HETATM    3  C   LIG     1      17.304  35.901  21.176  1.00  0.00     0.002 A 
HETATM    4  C   LIG     1      18.095  36.685  20.334  1.00  0.00     0.000 A 
HETATM    5  C   LIG     1      18.420  37.994  20.700  1.00  0.00     0.002 A 
HETATM    6  C   LIG     1      17.962  38.519  21.913  1.00  0.00     0.029 A 
ENDROOT
BRANCH   1   7
HETATM    7  N   LIG     1      16.678  38.246  24.021  1.00  0.00    -0.334 N 
HETATM    8  H   LIG     1      15.810  38.829  24.000  1.00  0.00     0.168 HD
BRANCH   7   9
HETATM    9  C   LIG     1      17.212  37.923  25.311  1.00  0.00     0.353 C 
HETATM   10  O   LIG     1      18.335  37.365  25.433  1.00  0.00    -0.283 OA
ENDBRANCH   7   9
ENDBRANCH   1   7
TORSDOF 2
ENDMDL
MODEL 5
REMARK VINA RESULT:      -5.3      4.253      5.405
REMARK  2 active torsions:
REMARK  status: ('A' for Active; 'I' for Inactive)
REMARK    1  A    between atoms: C_2  and  N_3 
REMARK    2  A    between atoms: N_3  and  C_4 
ROOT
HETATM    1  C   LIG     1      17.520  36.787  21.206  1.00  0.00     0.034 A 
HETATM    2  C   LIG     1      18.355  36.695  20.081  1.00  0.00     0.029 A 
HETATM    3  C   LIG     1      19.118  37.793  19.672  1.00  0.00     0.002 A 
HETATM    4  C   LIG     1      19.041  38.998  20.374  1.00  0.00     0.000 A 
HETATM    5  C   LIG     1      18.196  39.109  21.481  1.00  0.00     0.002 A 
HETATM    6  C   LIG     1      17.432  38.012  21.894  1.00  0.00     0.029 A 
ENDROOT
BRANCH   1   7
HETATM    7  N   LIG     1      16.730  35.650  21.593  1.00  0.00    -0.334 N 
HETATM    8  H   LIG     1      17.148  34.956  22.252  1.00  0.00     0.168 HD
BRANCH   7   9
HETATM    9  C   LIG     1      15.357  35.456  21.231  1.00  0.00     0.353 C 
HETATM   10  O   LIG     1      14.719  34.437  21.605  1.00  0.00    -0.283 OA
ENDBRANCH   7   9
ENDBRANCH   1   7
TORSDOF 2
ENDMDL
MODEL 6
REMARK VINA RESULT:      -5.3      3.573      4.513
REMARK  2 active torsions:
REMARK  status: ('A' for Active; 'I' for Inactive)
REMARK    1  A    between atoms: C_2  and  N_3 
REMARK    2  A    between atoms: N_3  and  C_4 
ROOT
HETATM    1  C   LIG     1      18.317  38.350  21.179  1.00  0.00     0.034 A 
HETATM    2  C   LIG     1      18.202  37.084  20.583  1.00  0.00     0.029 A 
HETATM    3  C   LIG     1      17.281  36.151  21.070  1.00  0.00     0.002 A 
HETATM    4  C   LIG     1      16.476  36.471  22.166  1.00  0.00     0.000 A 
HETATM    5  C   LIG     1      16.597  37.719  22.781  1.00  0.00     0.002 A 
HETATM    6  C   LIG     1      17.517  38.655  22.297  1.00  0.00     0.029 A 
ENDROOT
BRANCH   1   7
HETATM    7  N   LIG     1      19.288  39.282  20.672  1.00  0.00    -0.334 N 
HETATM    8  H   LIG     1      19.411  40.191  21.173  1.00  0.00     0.168 HD
BRANCH   7   9
HETATM    9  C   LIG     1      20.190  39.006  19.594  1.00  0.00     0.353 C 
HETATM   10  O   LIG     1      19.997  39.476  18.442  1.00  0.00    -0.283 OA
ENDBRANCH   7   9
ENDBRANCH   1   7
TORSDOF 2
ENDMDL
MODEL 7
REMARK VINA RESULT:      -5.3     10.022     11.101
REMARK  2 active torsions:
REMARK  status: ('A' for Active; 'I' for Inactive)
REMARK    1  A    between atoms: C_2  and  N_3 
REMARK    2  A    between atoms: N_3  and  C_4 
ROOT
HETATM    1  C   LIG     1      14.202  31.610  16.608  1.00  0.00     0.034 A 
HETATM    2  C   LIG     1      13.247  30.677  16.173  1.00  0.00     0.029 A 
HETATM    3  C   LIG     1      13.407  30.016  14.952  1.00  0.00     0.002 A 
HETATM    4  C   LIG     1      14.514  30.292  14.146  1.00  0.00     0.000 A 
HETATM    5  C   LIG     1      15.459  31.236  14.558  1.00  0.00     0.002 A 
HETATM    6  C   LIG     1      15.303  31.899  15.780  1.00  0.00     0.029 A 
ENDROOT
BRANCH   1   7
HETATM    7  N   LIG     1      14.003  32.292  17.858  1.00  0.00    -0.334 N 
HETATM    8  H   LIG     1      13.162  32.905  17.961  1.00  0.00     0.168 HD
BRANCH   7   9
HETATM    9  C   LIG     1      14.813  32.099  19.024  1.00  0.00     0.353 C 
HETATM   10  O   LIG     1      14.544  31.202  19.866  1.00  0.00    -0.283 OA
ENDBRANCH   7   9
ENDBRANCH   1   7
TORSDOF 2
ENDMDL
MODEL 8
REMARK VINA RESULT:      -5.2     12.539     13.448
REMARK  2 active torsions:
REMARK  status: ('A' for Active; 'I' for Inactive)
REMARK    1  A    between atoms: C_2  and  N_3 
REMARK    2  A    between atoms: N_3  and  C_4 
ROOT
HETATM    1  C   LIG     1      13.465  29.829  14.580  1.00  0.00     0.034 A 
HETATM    2  C   LIG     1      13.136  30.522  15.756  1.00  0.00     0.029 A 
HETATM    3  C   LIG     1      14.018  31.467  16.291  1.00  0.00     0.002 A 
HETATM    4  C   LIG     1      15.241  31.717  15.665  1.00  0.00     0.000 A 
HETATM    5  C   LIG     1      15.588  31.015  14.507  1.00  0.00     0.002 A 
HETATM    6  C   LIG     1      14.709  30.070  13.968  1.00  0.00     0.029 A 
ENDROOT
BRANCH   1   7
HETATM    7  N   LIG     1      12.550  28.847  14.062  1.00  0.00    -0.334 N 
HETATM    8  H   LIG     1      11.577  29.149  13.830  1.00  0.00     0.168 HD
BRANCH   7   9
HETATM    9  C   LIG     1      12.911  27.502  13.726  1.00  0.00     0.353 C 
HETATM   10  O   LIG     1      12.058  26.685  13.287  1.00  0.00    -0.283 OA
ENDBRANCH   7   9
ENDBRANCH   1   7
TORSDOF 2
ENDMDL
MODEL 9
REMARK VINA RESULT:      -5.1     10.040     11.008
REMARK  2 active torsions:
REMARK  status: ('A' for Active; 'I' for Inactive)
REMARK    1  A    between atoms: C_2  and  N_3 
REMARK    2  A    between atoms: N_3  and  C_4 
ROOT
HETATM    1  C   LIG     1      15.164  31.968  15.774  1.00  0.00     0.034 A 
HETATM    2  C   LIG     1      15.756  31.378  14.646  1.00  0.00     0.029 A 
HETATM    3  C   LIG     1      15.139  30.300  14.003  1.00  0.00     0.002 A 
HETATM    4  C   LIG     1      13.932  29.793  14.491  1.00  0.00     0.000 A 
HETATM    5  C   LIG     1      13.346  30.357  15.627  1.00  0.00     0.002 A 
HETATM    6  C   LIG     1      13.960  31.436  16.272  1.00  0.00     0.029 A 
ENDROOT
BRANCH   1   7
HETATM    7  N   LIG     1      15.831  33.061  16.429  1.00  0.00    -0.334 N 
HETATM    8  H   LIG     1      16.874  33.102  16.388  1.00  0.00     0.168 HD
BRANCH   7   9
HETATM    9  C   LIG     1      15.160  34.172  17.036  1.00  0.00     0.353 C 
HETATM   10  O   LIG     1      15.608  34.716  18.080  1.00  0.00    -0.283 OA
ENDBRANCH   7   9
ENDBRANCH   1   7
TORSDOF 2
ENDMDL
MODEL 10
REMARK VINA RESULT:      -5.1     10.190     11.142
REMARK  2 active torsions:
REMARK  status: ('A' for Active; 'I' for Inactive)
REMARK    1  A    between atoms: C_2  and  N_3 
REMARK    2  A    between atoms: N_3  and  C_4 
ROOT
HETATM    1  C   LIG     1      15.687  32.232  15.547  1.00  0.00     0.034 A 
HETATM    2  C   LIG     1      15.719  31.363  14.445  1.00  0.00     0.029 A 
HETATM    3  C   LIG     1      14.719  30.400  14.272  1.00  0.00     0.002 A 
HETATM    4  C   LIG     1      13.687  30.289  15.207  1.00  0.00     0.000 A 
HETATM    5  C   LIG     1      13.658  31.133  16.319  1.00  0.00     0.002 A 
HETATM    6  C   LIG     1      14.656  32.097  16.495  1.00  0.00     0.029 A 
ENDROOT
BRANCH   1   7
HETATM    7  N   LIG     1      16.739  33.198  15.712  1.00  0.00    -0.334 N 
HETATM    8  H   LIG     1      17.021  33.464  16.683  1.00  0.00     0.168 HD
BRANCH   7   9
HETATM    9  C   LIG     1      17.519  33.739  14.639  1.00  0.00     0.353 C 
HETATM   10  O   LIG     1      17.479  34.965  14.353  1.00  0.00    -0.283 OA
ENDBRANCH   7   9
ENDBRANCH   1   7
TORSDOF 2
ENDMDL
MODEL 11
REMARK VINA RESULT:      -5.1      9.908     10.773
REMARK  2 active torsions:
REMARK  status: ('A' for Active; 'I' for Inactive)
REMARK    1  A    between atoms: C_2  and  N_3 
REMARK    2  A    between atoms: N_3  and  C_4 
ROOT
HETATM    1  C   LIG     1      15.701  32.443  15.749  1.00  0.00     0.034 A 
HETATM    2  C   LIG     1      14.713  32.544  16.741  1.00  0.00     0.029 A 
HETATM    3  C   LIG     1      13.642  31.645  16.769  1.00  0.00     0.002 A 
HETATM    4  C   LIG     1      13.542  30.646  15.797  1.00  0.00     0.000 A 
HETATM    5  C   LIG     1      14.507  30.551  14.792  1.00  0.00     0.002 A 
HETATM    6  C   LIG     1      15.580  31.447  14.761  1.00  0.00     0.029 A 
ENDROOT
BRANCH   1   7
HETATM    7  N   LIG     1      16.780  33.394  15.730  1.00  0.00    -0.334 N 
HETATM    8  H   LIG     1      17.092  33.809  16.637  1.00  0.00     0.168 HD
BRANCH   7   9
HETATM    9  C   LIG     1      17.544  33.729  14.566  1.00  0.00     0.353 C 
HETATM   10  O   LIG     1      17.535  34.896  14.090  1.00  0.00    -0.283 OA
ENDBRANCH   7   9
ENDBRANCH   1   7
TORSDOF 2
ENDMDL
MODEL 12
REMARK VINA RESULT:      -4.8     11.818     12.737
REMARK  2 active torsions:
REMARK  status: ('A' for Active; 'I' for Inactive)
REMARK    1  A    between atoms: C_2  and  N_3 
REMARK    2  A    between atoms: N_3  and  C_4 
ROOT
HETATM    1  C   LIG     1      14.400  30.223  14.700  1.00  0.00     0.034 A 
HETATM    2  C   LIG     1      15.438  31.157  14.835  1.00  0.00     0.029 A 
HETATM    3  C   LIG     1      15.376  32.149  15.819  1.00  0.00     0.002 A 
HETATM    4  C   LIG     1      14.269  32.224  16.667  1.00  0.00     0.000 A 
HETATM    5  C   LIG     1      13.219  31.314  16.527  1.00  0.00     0.002 A 
HETATM    6  C   LIG     1      13.277  30.320  15.544  1.00  0.00     0.029 A 
ENDROOT
BRANCH   1   7
HETATM    7  N   LIG     1      14.478  29.226  13.666  1.00  0.00    -0.334 N 
HETATM    8  H   LIG     1      13.958  29.394  12.775  1.00  0.00     0.168 HD
BRANCH   7   9
HETATM    9  C   LIG     1      15.319  28.068  13.719  1.00  0.00     0.353 C 
HETATM   10  O   LIG     1      15.494  27.339  12.707  1.00  0.00    -0.283 OA
ENDBRANCH   7   9
ENDBRANCH   1   7
TORSDOF 2
ENDMDL
MODEL 13
REMARK VINA RESULT:      -4.8     10.658     11.479
REMARK  2 active torsions:
REMARK  status: ('A' for Active; 'I' for Inactive)
REMARK    1  A    between atoms: C_2  and  N_3 
REMARK    2  A    between atoms: N_3  and  C_4 
ROOT
HETATM    1  C   LIG     1      15.393  31.746  15.262  1.00  0.00     0.034 A 
HETATM    2  C   LIG     1      14.805  32.260  16.429  1.00  0.00     0.029 A 
HETATM    3  C   LIG     1      13.609  31.723  16.916  1.00  0.00     0.002 A 
HETATM    4  C   LIG     1      12.983  30.677  16.233  1.00  0.00     0.000 A 
HETATM    5  C   LIG     1      13.547  30.174  15.058  1.00  0.00     0.002 A 
HETATM    6  C   LIG     1      14.743  30.708  14.568  1.00  0.00     0.029 A 
ENDROOT
BRANCH   1   7
HETATM    7  N   LIG     1      16.611  32.331  14.771  1.00  0.00    -0.334 N 
HETATM    8  H   LIG     1      17.451  32.324  15.393  1.00  0.00     0.168 HD
BRANCH   7   9
HETATM    9  C   LIG     1      16.794  32.821  13.437  1.00  0.00     0.353 C 
HETATM   10  O   LIG     1      17.896  32.696  12.840  1.00  0.00    -0.283 OA
ENDBRANCH   7   9
ENDBRANCH   1   7
TORSDOF 2
ENDMDL
MODEL 14
REMARK VINA RESULT:      -4.5      4.942      5.944
REMARK  2 active torsions:
REMARK  status: ('A' for Active; 'I' for Inactive)
REMARK    1  A    between atoms: C_2  and  N_3 
REMARK    2  A    between atoms: N_3  and  C_4 
ROOT
HETATM    1  C   LIG     1      15.785  35.119  20.382  1.00  0.00     0.034 A 
HETATM    2  C   LIG     1      17.078  35.666  20.371  1.00  0.00     0.029 A 
HETATM    3  C   LIG     1      17.425  36.682  21.268  1.00  0.00     0.002 A 
HETATM    4  C   LIG     1      16.480  37.170  22.172  1.00  0.00     0.000 A 
HETATM    5  C   LIG     1      15.183  36.650  22.176  1.00  0.00     0.002 A 
HETATM    6  C   LIG     1      14.832  35.633  21.281  1.00  0.00     0.029 A 
ENDROOT
BRANCH   1   7
HETATM    7  N   LIG     1      15.447  34.091  19.435  1.00  0.00    -0.334 N 
HETATM    8  H   LIG     1      15.302  34.364  18.437  1.00  0.00     0.168 HD
BRANCH   7   9
HETATM    9  C   LIG     1      15.411  32.691  19.738  1.00  0.00     0.353 C 
HETATM   10  O   LIG     1      14.532  31.937  19.244  1.00  0.00    -0.283 OA
ENDBRANCH   7   9
ENDBRANCH   1   7
TORSDOF 2
ENDMDL
MODEL 15
REMARK VINA RESULT:      -4.5     14.169     15.090
REMARK  2 active torsions:
REMARK  status: ('A' for Active; 'I' for Inactive)
REMARK    1  A    between atoms: C_2  and  N_3 
REMARK    2  A    between atoms: N_3  and  C_4 
ROOT
HETATM    1  C   LIG     1      13.085  28.366  13.790  1.00  0.00     0.034 A 
HETATM    2  C   LIG     1      14.293  27.720  13.486  1.00  0.00     0.029 A 
HETATM    3  C   LIG     1      15.516  28.303  13.833  1.00  0.00     0.002 A 
HETATM    4  C   LIG     1      15.542  29.544  14.475  1.00  0.00     0.000 A 
HETATM    5  C   LIG     1      14.346  30.207  14.761  1.00  0.00     0.002 A 
HETATM    6  C   LIG     1      13.121  29.626  14.417  1.00  0.00     0.029 A 
ENDROOT
BRANCH   1   7
HETATM    7  N   LIG     1      11.842  27.754  13.403  1.00  0.00    -0.334 N 
HETATM    8  H   LIG     1      10.953  28.264  13.608  1.00  0.00     0.168 HD
BRANCH   7   9
HETATM    9  C   LIG     1      11.737  26.544  12.643  1.00  0.00     0.353 C 
HETATM   10  O   LIG     1      11.019  25.586  13.035  1.00  0.00    -0.283 OA
ENDBRANCH   7   9
ENDBRANCH   1   7
TORSDOF 2
ENDMDL
MODEL 16
REMARK VINA RESULT:      -4.1     12.355     13.252
REMARK  2 active torsions:
REMARK  status: ('A' for Active; 'I' for Inactive)
REMARK    1  A    between atoms: C_2  and  N_3 
REMARK    2  A    between atoms: N_3  and  C_4 
ROOT
HETATM    1  C   LIG     1      14.594  30.023  14.585  1.00  0.00     0.034 A 
HETATM    2  C   LIG     1      13.246  29.637  14.525  1.00  0.00     0.029 A 
HETATM    3  C   LIG     1      12.891  28.376  14.035  1.00  0.00     0.002 A 
HETATM    4  C   LIG     1      13.879  27.496  13.587  1.00  0.00     0.000 A 
HETATM    5  C   LIG     1      15.223  27.879  13.621  1.00  0.00     0.002 A 
HETATM    6  C   LIG     1      15.582  29.139  14.111  1.00  0.00     0.029 A 
ENDROOT
BRANCH   1   7
HETATM    7  N   LIG     1      14.930  31.334  15.073  1.00  0.00    -0.334 N 
HETATM    8  H   LIG     1      14.379  31.722  15.872  1.00  0.00     0.168 HD
BRANCH   7   9
HETATM    9  C   LIG     1      16.050  32.104  14.620  1.00  0.00     0.353 C 
HETATM   10  O   LIG     1      16.057  32.641  13.481  1.00  0.00    -0.283 OA
ENDBRANCH   7   9
ENDBRANCH   1   7
TORSDOF 2
ENDMDL
MODEL 17
REMARK VINA RESULT:      -4.1     16.567     16.992
REMARK  2 active torsions:
REMARK  status: ('A' for Active; 'I' for Inactive)
REMARK    1  A    between atoms: C_2  and  N_3 
REMARK    2  A    between atoms: N_3  and  C_4 
ROOT
HETATM    1  C   LIG     1       3.896  41.492  33.507  1.00  0.00     0.034 A 
HETATM    2  C   LIG     1       3.746  42.526  32.568  1.00  0.00     0.029 A 
HETATM    3  C   LIG     1       3.328  42.244  31.264  1.00  0.00     0.002 A 
HETATM    4  C   LIG     1       3.070  40.925  30.882  1.00  0.00     0.000 A 
HETATM    5  C   LIG     1       3.238  39.886  31.800  1.00  0.00     0.002 A 
HETATM    6  C   LIG     1       3.656  40.164  33.106  1.00  0.00     0.029 A 
ENDROOT
BRANCH   1   7
HETATM    7  N   LIG     1       4.349  41.807  34.835  1.00  0.00    -0.334 N 
HETATM    8  H   LIG     1       4.321  42.804  35.146  1.00  0.00     0.168 HD
BRANCH   7   9
HETATM    9  C   LIG     1       4.727  40.832  35.814  1.00  0.00     0.353 C 
HETATM   10  O   LIG     1       5.899  40.373  35.862  1.00  0.00    -0.283 OA
ENDBRANCH   7   9
ENDBRANCH   1   7
TORSDOF 2
ENDMDL
MODEL 18
REMARK VINA RESULT:      -4.1     10.934     11.896
REMARK  2 active torsions:
REMARK  status: ('A' for Active; 'I' for Inactive)
REMARK    1  A    between atoms: C_2  and  N_3 
REMARK    2  A    between atoms: N_3  and  C_4 
ROOT
HETATM    1  C   LIG     1      15.232  31.326  14.825  1.00  0.00     0.034 A 
HETATM    2  C   LIG     1      15.732  32.198  15.805  1.00  0.00     0.029 A 
HETATM    3  C   LIG     1      16.674  33.176  15.469  1.00  0.00     0.002 A 
HETATM    4  C   LIG     1      17.135  33.281  14.155  1.00  0.00     0.000 A 
HETATM    5  C   LIG     1      16.662  32.403  13.177  1.00  0.00     0.002 A 
HETATM    6  C   LIG     1      15.719  31.425  13.508  1.00  0.00     0.029 A 
ENDROOT
BRANCH   1   7
HETATM    7  N   LIG     1      14.280  30.316  15.201  1.00  0.00    -0.334 N 
HETATM    8  H   LIG     1      14.583  29.316  15.178  1.00  0.00     0.168 HD
BRANCH   7   9
HETATM    9  C   LIG     1      12.973  30.587  15.723  1.00  0.00     0.353 C 
HETATM   10  O   LIG     1      12.762  30.636  16.964  1.00  0.00    -0.283 OA
ENDBRANCH   7   9
ENDBRANCH   1   7
TORSDOF 2
ENDMDL
MODEL 19
REMARK VINA RESULT:      -4.1      7.985      8.883
REMARK  2 active torsions:
REMARK  status: ('A' for Active; 'I' for Inactive)
REMARK    1  A    between atoms: C_2  and  N_3 
REMARK    2  A    between atoms: N_3  and  C_4 
ROOT
HETATM    1  C   LIG     1      14.940  32.783  17.743  1.00  0.00     0.034 A 
HETATM    2  C   LIG     1      15.044  32.049  18.935  1.00  0.00     0.029 A 
HETATM    3  C   LIG     1      15.384  32.686  20.132  1.00  0.00     0.002 A 
HETATM    4  C   LIG     1      15.636  34.060  20.147  1.00  0.00     0.000 A 
HETATM    5  C   LIG     1      15.558  34.797  18.962  1.00  0.00     0.002 A 
HETATM    6  C   LIG     1      15.218  34.163  17.762  1.00  0.00     0.029 A 
ENDROOT
BRANCH   1   7
HETATM    7  N   LIG     1      14.612  32.100  16.521  1.00  0.00    -0.334 N 
HETATM    8  H   LIG     1      15.124  32.366  15.650  1.00  0.00     0.168 HD
BRANCH   7   9
HETATM    9  C   LIG     1      13.710  30.990  16.431  1.00  0.00     0.353 C 
HETATM   10  O   LIG     1      12.511  31.089  16.805  1.00  0.00    -0.283 OA
ENDBRANCH   7   9
ENDBRANCH   1   7
TORSDOF 2
ENDMDL
MODEL 20
REMARK VINA RESULT:      -3.9      5.628      6.744
REMARK  2 active torsions:
REMARK  status: ('A' for Active; 'I' for Inactive)
REMARK    1  A    between atoms: C_2  and  N_3 
REMARK    2  A    between atoms: N_3  and  C_4 
ROOT
HETATM    1  C   LIG     1      15.606  33.974  20.159  1.00  0.00     0.034 A 
HETATM    2  C   LIG     1      15.597  34.784  19.012  1.00  0.00     0.029 A 
HETATM    3  C   LIG     1      15.260  34.246  17.766  1.00  0.00     0.002 A 
HETATM    4  C   LIG     1      14.944  32.890  17.653  1.00  0.00     0.000 A 
HETATM    5  C   LIG     1      14.972  32.069  18.783  1.00  0.00     0.002 A 
HETATM    6  C   LIG     1      15.307  32.604  20.032  1.00  0.00     0.029 A 
ENDROOT
BRANCH   1   7
HETATM    7  N   LIG     1      15.976  34.548  21.424  1.00  0.00    -0.334 N 
HETATM    8  H   LIG     1      15.523  34.177  22.290  1.00  0.00     0.168 HD
BRANCH   7   9
HETATM    9  C   LIG     1      17.017  35.518  21.600  1.00  0.00     0.353 C 
HETATM   10  O   LIG     1      16.754  36.742  21.742  1.00  0.00    -0.283 OA
ENDBRANCH   7   9
ENDBRANCH   1   7
TORSDOF 2
ENDMDL
