MODEL 1
REMARK VINA RESULT:      -6.4      0.000      0.000
REMARK  2 active torsions:
REMARK  status: ('A' for Active; 'I' for Inactive)
REMARK    1  A    between atoms: C_2  and  O_3 
REMARK    2  A    between atoms: O_3  and  C_4 
ROOT
HETATM    1  C   LIG     1      17.223  37.289  24.815  1.00  0.00     0.068 A 
HETATM    2  C   LIG     1      16.997  36.006  24.279  1.00  0.00     0.037 A 
HETATM    3  C   LIG     1      17.438  34.869  24.963  1.00  0.00     0.003 A 
HETATM    4  C   LIG     1      18.105  35.000  26.184  1.00  0.00     0.000 A 
HETATM    5  C   LIG     1      18.333  36.269  26.721  1.00  0.00     0.003 A 
HETATM    6  C   LIG     1      17.894  37.409  26.040  1.00  0.00     0.037 A 
ENDROOT
BRANCH   1   7
HETATM    7  O   LIG     1      16.802  38.461  24.169  1.00  0.00    -0.352 OA
BRANCH   7   8
HETATM    8  C   LIG     1      16.775  38.635  22.755  1.00  0.00     0.171 C 
HETATM    9  C   LIG     1      18.179  38.929  22.253  1.00  0.00     0.034 C 
ENDBRANCH   7   8
ENDBRANCH   1   7
TORSDOF 2
ENDMDL
MODEL 2
REMARK VINA RESULT:      -5.8      1.706      3.800
REMARK  2 active torsions:
REMARK  status: ('A' for Active; 'I' for Inactive)
REMARK    1  A    between atoms: C_2  and  O_3 
REMARK    2  A    between atoms: O_3  and  C_4 
ROOT
HETATM    1  C   LIG     1      16.940  37.392  23.114  1.00  0.00     0.068 A 
HETATM    2  C   LIG     1      16.734  36.103  22.583  1.00  0.00     0.037 A 
HETATM    3  C   LIG     1      17.227  35.777  21.316  1.00  0.00     0.003 A 
HETATM    4  C   LIG     1      17.928  36.728  20.570  1.00  0.00     0.000 A 
HETATM    5  C   LIG     1      18.136  38.008  21.090  1.00  0.00     0.003 A 
HETATM    6  C   LIG     1      17.644  38.338  22.357  1.00  0.00     0.037 A 
ENDROOT
BRANCH   1   7
HETATM    7  O   LIG     1      16.466  37.770  24.379  1.00  0.00    -0.352 OA
BRANCH   7   8
HETATM    8  C   LIG     1      17.301  38.137  25.475  1.00  0.00     0.171 C 
HETATM    9  C   LIG     1      18.104  36.928  25.927  1.00  0.00     0.034 C 
ENDBRANCH   7   8
ENDBRANCH   1   7
TORSDOF 2
ENDMDL
MODEL 3
REMARK VINA RESULT:      -5.7      2.135      5.003
REMARK  2 active torsions:
REMARK  status: ('A' for Active; 'I' for Inactive)
REMARK    1  A    between atoms: C_2  and  O_3 
REMARK    2  A    between atoms: O_3  and  C_4 
ROOT
HETATM    1  C   LIG     1      17.687  37.778  21.566  1.00  0.00     0.068 A 
HETATM    2  C   LIG     1      18.373  39.003  21.443  1.00  0.00     0.037 A 
HETATM    3  C   LIG     1      19.319  39.180  20.429  1.00  0.00     0.003 A 
HETATM    4  C   LIG     1      19.589  38.143  19.532  1.00  0.00     0.000 A 
HETATM    5  C   LIG     1      18.912  36.926  19.649  1.00  0.00     0.003 A 
HETATM    6  C   LIG     1      17.965  36.745  20.661  1.00  0.00     0.037 A 
ENDROOT
BRANCH   1   7
HETATM    7  O   LIG     1      16.728  37.548  22.565  1.00  0.00    -0.352 OA
BRANCH   7   8
HETATM    8  C   LIG     1      17.000  36.909  23.809  1.00  0.00     0.171 C 
HETATM    9  C   LIG     1      17.258  37.961  24.875  1.00  0.00     0.034 C 
ENDBRANCH   7   8
ENDBRANCH   1   7
TORSDOF 2
ENDMDL
MODEL 4
REMARK VINA RESULT:      -5.6      2.373      5.086
REMARK  2 active torsions:
REMARK  status: ('A' for Active; 'I' for Inactive)
REMARK    1  A    between atoms: C_2  and  O_3 
REMARK    2  A    between atoms: O_3  and  C_4 
ROOT
HETATM    1  C   LIG     1      17.600  37.221  21.160  1.00  0.00     0.068 A 
HETATM    2  C   LIG     1      18.365  36.708  20.093  1.00  0.00     0.037 A 
HETATM    3  C   LIG     1      19.341  37.502  19.483  1.00  0.00     0.003 A 
HETATM    4  C   LIG     1      19.563  38.807  19.928  1.00  0.00     0.000 A 
HETATM    5  C   LIG     1      18.809  39.322  20.985  1.00  0.00     0.003 A 
HETATM    6  C   LIG     1      17.832  38.531  21.599  1.00  0.00     0.037 A 
ENDROOT
BRANCH   1   7
HETATM    7  O   LIG     1      16.609  36.467  21.807  1.00  0.00    -0.352 OA
BRANCH   7   8
HETATM    8  C   LIG     1      16.791  35.136  22.281  1.00  0.00     0.171 C 
HETATM    9  C   LIG     1      17.113  35.166  23.766  1.00  0.00     0.034 C 
ENDBRANCH   7   8
ENDBRANCH   1   7
TORSDOF 2
ENDMDL
MODEL 5
REMARK VINA RESULT:      -5.4      3.837      5.366
REMARK  2 active torsions:
REMARK  status: ('A' for Active; 'I' for Inactive)
REMARK    1  A    between atoms: C_2  and  O_3 
REMARK    2  A    between atoms: O_3  and  C_4 
ROOT
HETATM    1  C   LIG     1      17.602  37.165  21.267  1.00  0.00     0.068 A 
HETATM    2  C   LIG     1      17.829  38.491  21.685  1.00  0.00     0.037 A 
HETATM    3  C   LIG     1      18.737  39.301  20.995  1.00  0.00     0.003 A 
HETATM    4  C   LIG     1      19.424  38.798  19.887  1.00  0.00     0.000 A 
HETATM    5  C   LIG     1      19.203  37.484  19.467  1.00  0.00     0.003 A 
HETATM    6  C   LIG     1      18.296  36.671  20.154  1.00  0.00     0.037 A 
ENDROOT
BRANCH   1   7
HETATM    7  O   LIG     1      16.702  36.312  21.924  1.00  0.00    -0.352 OA
BRANCH   7   8
HETATM    8  C   LIG     1      15.425  35.942  21.412  1.00  0.00     0.171 C 
HETATM    9  C   LIG     1      15.348  34.430  21.284  1.00  0.00     0.034 C 
ENDBRANCH   7   8
ENDBRANCH   1   7
TORSDOF 2
ENDMDL
MODEL 6
REMARK VINA RESULT:      -5.2      2.402      3.687
REMARK  2 active torsions:
REMARK  status: ('A' for Active; 'I' for Inactive)
REMARK    1  A    between atoms: C_2  and  O_3 
REMARK    2  A    between atoms: O_3  and  C_4 
ROOT
HETATM    1  C   LIG     1      17.629  37.594  21.544  1.00  0.00     0.068 A 
HETATM    2  C   LIG     1      17.372  37.728  22.923  1.00  0.00     0.037 A 
HETATM    3  C   LIG     1      16.998  36.614  23.680  1.00  0.00     0.003 A 
HETATM    4  C   LIG     1      16.876  35.361  23.073  1.00  0.00     0.000 A 
HETATM    5  C   LIG     1      17.129  35.221  21.706  1.00  0.00     0.003 A 
HETATM    6  C   LIG     1      17.504  36.333  20.945  1.00  0.00     0.037 A 
ENDROOT
BRANCH   1   7
HETATM    7  O   LIG     1      18.007  38.679  20.739  1.00  0.00    -0.352 OA
BRANCH   7   8
HETATM    8  C   LIG     1      19.312  39.251  20.721  1.00  0.00     0.171 C 
HETATM    9  C   LIG     1      20.098  38.685  19.549  1.00  0.00     0.034 C 
ENDBRANCH   7   8
ENDBRANCH   1   7
TORSDOF 2
ENDMDL
MODEL 7
REMARK VINA RESULT:      -5.1      9.869     11.075
REMARK  2 active torsions:
REMARK  status: ('A' for Active; 'I' for Inactive)
REMARK    1  A    between atoms: C_2  and  O_3 
REMARK    2  A    between atoms: O_3  and  C_4 
ROOT
HETATM    1  C   LIG     1      14.264  31.617  16.467  1.00  0.00     0.068 A 
HETATM    2  C   LIG     1      15.368  31.828  15.619  1.00  0.00     0.037 A 
HETATM    3  C   LIG     1      15.488  31.107  14.427  1.00  0.00     0.003 A 
HETATM    4  C   LIG     1      14.511  30.173  14.071  1.00  0.00     0.000 A 
HETATM    5  C   LIG     1      13.413  29.958  14.908  1.00  0.00     0.003 A 
HETATM    6  C   LIG     1      13.290  30.678  16.101  1.00  0.00     0.037 A 
ENDROOT
BRANCH   1   7
HETATM    7  O   LIG     1      14.096  32.313  17.674  1.00  0.00    -0.352 OA
BRANCH   7   8
HETATM    8  C   LIG     1      15.110  32.461  18.665  1.00  0.00     0.171 C 
HETATM    9  C   LIG     1      14.853  31.487  19.803  1.00  0.00     0.034 C 
ENDBRANCH   7   8
ENDBRANCH   1   7
TORSDOF 2
ENDMDL
MODEL 8
REMARK VINA RESULT:      -5.1      9.838     10.987
REMARK  2 active torsions:
REMARK  status: ('A' for Active; 'I' for Inactive)
REMARK    1  A    between atoms: C_2  and  O_3 
REMARK    2  A    between atoms: O_3  and  C_4 
ROOT
HETATM    1  C   LIG     1      14.273  31.636  16.471  1.00  0.00     0.068 A 
HETATM    2  C   LIG     1      13.352  30.651  16.062  1.00  0.00     0.037 A 
HETATM    3  C   LIG     1      13.549  29.958  14.863  1.00  0.00     0.003 A 
HETATM    4  C   LIG     1      14.661  30.240  14.065  1.00  0.00     0.000 A 
HETATM    5  C   LIG     1      15.578  31.215  14.465  1.00  0.00     0.003 A 
HETATM    6  C   LIG     1      15.384  31.910  15.664  1.00  0.00     0.037 A 
ENDROOT
BRANCH   1   7
HETATM    7  O   LIG     1      14.122  32.359  17.664  1.00  0.00    -0.352 OA
BRANCH   7   8
HETATM    8  C   LIG     1      15.128  32.477  18.666  1.00  0.00     0.171 C 
HETATM    9  C   LIG     1      14.846  31.490  19.787  1.00  0.00     0.034 C 
ENDBRANCH   7   8
ENDBRANCH   1   7
TORSDOF 2
ENDMDL
MODEL 9
REMARK VINA RESULT:      -5.1      3.641      5.328
REMARK  2 active torsions:
REMARK  status: ('A' for Active; 'I' for Inactive)
REMARK    1  A    between atoms: C_2  and  O_3 
REMARK    2  A    between atoms: O_3  and  C_4 
ROOT
HETATM    1  C   LIG     1      17.181  36.127  20.781  1.00  0.00     0.068 A 
HETATM    2  C   LIG     1      16.630  36.792  21.893  1.00  0.00     0.037 A 
HETATM    3  C   LIG     1      17.118  38.045  22.277  1.00  0.00     0.003 A 
HETATM    4  C   LIG     1      18.155  38.644  21.559  1.00  0.00     0.000 A 
HETATM    5  C   LIG     1      18.707  37.990  20.454  1.00  0.00     0.003 A 
HETATM    6  C   LIG     1      18.221  36.737  20.067  1.00  0.00     0.037 A 
ENDROOT
BRANCH   1   7
HETATM    7  O   LIG     1      16.728  34.869  20.354  1.00  0.00    -0.352 OA
BRANCH   7   8
HETATM    8  C   LIG     1      15.601  34.192  20.901  1.00  0.00     0.171 C 
HETATM    9  C   LIG     1      15.313  32.943  20.084  1.00  0.00     0.034 C 
ENDBRANCH   7   8
ENDBRANCH   1   7
TORSDOF 2
ENDMDL
MODEL 10
REMARK VINA RESULT:      -5.0      3.318      4.373
REMARK  2 active torsions:
REMARK  status: ('A' for Active; 'I' for Inactive)
REMARK    1  A    between atoms: C_2  and  O_3 
REMARK    2  A    between atoms: O_3  and  C_4 
ROOT
HETATM    1  C   LIG     1      18.293  38.191  20.948  1.00  0.00     0.068 A 
HETATM    2  C   LIG     1      18.181  36.857  20.507  1.00  0.00     0.037 A 
HETATM    3  C   LIG     1      17.285  35.983  21.128  1.00  0.00     0.003 A 
HETATM    4  C   LIG     1      16.493  36.428  22.190  1.00  0.00     0.000 A 
HETATM    5  C   LIG     1      16.599  37.749  22.633  1.00  0.00     0.003 A 
HETATM    6  C   LIG     1      17.495  38.627  22.014  1.00  0.00     0.037 A 
ENDROOT
BRANCH   1   7
HETATM    7  O   LIG     1      19.177  39.108  20.359  1.00  0.00    -0.352 OA
BRANCH   7   8
HETATM    8  C   LIG     1      19.883  38.878  19.144  1.00  0.00     0.171 C 
HETATM    9  C   LIG     1      18.995  39.239  17.964  1.00  0.00     0.034 C 
ENDBRANCH   7   8
ENDBRANCH   1   7
TORSDOF 2
ENDMDL
MODEL 11
REMARK VINA RESULT:      -4.9     10.551     11.391
REMARK  2 active torsions:
REMARK  status: ('A' for Active; 'I' for Inactive)
REMARK    1  A    between atoms: C_2  and  O_3 
REMARK    2  A    between atoms: O_3  and  C_4 
ROOT
HETATM    1  C   LIG     1      15.637  31.554  14.822  1.00  0.00     0.068 A 
HETATM    2  C   LIG     1      14.886  30.505  14.256  1.00  0.00     0.037 A 
HETATM    3  C   LIG     1      13.709  30.071  14.872  1.00  0.00     0.003 A 
HETATM    4  C   LIG     1      13.270  30.676  16.053  1.00  0.00     0.000 A 
HETATM    5  C   LIG     1      14.011  31.717  16.620  1.00  0.00     0.003 A 
HETATM    6  C   LIG     1      15.189  32.154  16.006  1.00  0.00     0.037 A 
ENDROOT
BRANCH   1   7
HETATM    7  O   LIG     1      16.825  32.027  14.244  1.00  0.00    -0.352 OA
BRANCH   7   8
HETATM    8  C   LIG     1      17.562  33.149  14.723  1.00  0.00     0.171 C 
HETATM    9  C   LIG     1      18.320  33.788  13.571  1.00  0.00     0.034 C 
ENDBRANCH   7   8
ENDBRANCH   1   7
TORSDOF 2
ENDMDL
MODEL 12
REMARK VINA RESULT:      -4.9      2.205      2.791
REMARK  2 active torsions:
REMARK  status: ('A' for Active; 'I' for Inactive)
REMARK    1  A    between atoms: C_2  and  O_3 
REMARK    2  A    between atoms: O_3  and  C_4 
ROOT
HETATM    1  C   LIG     1      17.245  36.582  22.161  1.00  0.00     0.068 A 
HETATM    2  C   LIG     1      17.193  35.282  22.703  1.00  0.00     0.037 A 
HETATM    3  C   LIG     1      17.157  35.099  24.088  1.00  0.00     0.003 A 
HETATM    4  C   LIG     1      17.173  36.204  24.943  1.00  0.00     0.000 A 
HETATM    5  C   LIG     1      17.225  37.496  24.412  1.00  0.00     0.003 A 
HETATM    6  C   LIG     1      17.260  37.683  23.027  1.00  0.00     0.037 A 
ENDROOT
BRANCH   1   7
HETATM    7  O   LIG     1      17.283  36.821  20.779  1.00  0.00    -0.352 OA
BRANCH   7   8
HETATM    8  C   LIG     1      18.443  36.664  19.966  1.00  0.00     0.171 C 
HETATM    9  C   LIG     1      19.035  38.030  19.658  1.00  0.00     0.034 C 
ENDBRANCH   7   8
ENDBRANCH   1   7
TORSDOF 2
ENDMDL
MODEL 13
REMARK VINA RESULT:      -4.8     11.092     12.105
REMARK  2 active torsions:
REMARK  status: ('A' for Active; 'I' for Inactive)
REMARK    1  A    between atoms: C_2  and  O_3 
REMARK    2  A    between atoms: O_3  and  C_4 
ROOT
HETATM    1  C   LIG     1      14.301  30.619  15.161  1.00  0.00     0.068 A 
HETATM    2  C   LIG     1      13.310  30.830  16.139  1.00  0.00     0.037 A 
HETATM    3  C   LIG     1      13.414  31.906  17.025  1.00  0.00     0.003 A 
HETATM    4  C   LIG     1      14.502  32.778  16.945  1.00  0.00     0.000 A 
HETATM    5  C   LIG     1      15.490  32.575  15.978  1.00  0.00     0.003 A 
HETATM    6  C   LIG     1      15.389  31.500  15.089  1.00  0.00     0.037 A 
ENDROOT
BRANCH   1   7
HETATM    7  O   LIG     1      14.245  29.555  14.248  1.00  0.00    -0.352 OA
BRANCH   7   8
HETATM    8  C   LIG     1      15.373  29.029  13.554  1.00  0.00     0.171 C 
HETATM    9  C   LIG     1      15.336  27.510  13.603  1.00  0.00     0.034 C 
ENDBRANCH   7   8
ENDBRANCH   1   7
TORSDOF 2
ENDMDL
MODEL 14
REMARK VINA RESULT:      -4.6     10.296     11.266
REMARK  2 active torsions:
REMARK  status: ('A' for Active; 'I' for Inactive)
REMARK    1  A    between atoms: C_2  and  O_3 
REMARK    2  A    between atoms: O_3  and  C_4 
ROOT
HETATM    1  C   LIG     1      15.767  32.112  15.273  1.00  0.00     0.068 A 
HETATM    2  C   LIG     1      15.068  32.533  16.421  1.00  0.00     0.037 A 
HETATM    3  C   LIG     1      13.910  31.861  16.826  1.00  0.00     0.003 A 
HETATM    4  C   LIG     1      13.441  30.768  16.093  1.00  0.00     0.000 A 
HETATM    5  C   LIG     1      14.129  30.345  14.953  1.00  0.00     0.003 A 
HETATM    6  C   LIG     1      15.287  31.015  14.545  1.00  0.00     0.037 A 
ENDROOT
BRANCH   1   7
HETATM    7  O   LIG     1      16.932  32.751  14.823  1.00  0.00    -0.352 OA
BRANCH   7   8
HETATM    8  C   LIG     1      17.194  33.085  13.463  1.00  0.00     0.171 C 
HETATM    9  C   LIG     1      18.592  33.669  13.344  1.00  0.00     0.034 C 
ENDBRANCH   7   8
ENDBRANCH   1   7
TORSDOF 2
ENDMDL
MODEL 15
REMARK VINA RESULT:      -4.1     11.722     13.520
REMARK  2 active torsions:
REMARK  status: ('A' for Active; 'I' for Inactive)
REMARK    1  A    between atoms: C_2  and  O_3 
REMARK    2  A    between atoms: O_3  and  C_4 
ROOT
HETATM    1  C   LIG     1      19.260  33.598  11.968  1.00  0.00     0.068 A 
HETATM    2  C   LIG     1      19.099  34.211  10.710  1.00  0.00     0.037 A 
HETATM    3  C   LIG     1      20.121  35.002  10.176  1.00  0.00     0.003 A 
HETATM    4  C   LIG     1      21.309  35.188  10.889  1.00  0.00     0.000 A 
HETATM    5  C   LIG     1      21.475  34.584  12.138  1.00  0.00     0.003 A 
HETATM    6  C   LIG     1      20.455  33.791  12.674  1.00  0.00     0.037 A 
ENDROOT
BRANCH   1   7
HETATM    7  O   LIG     1      18.266  32.796  12.548  1.00  0.00    -0.352 OA
BRANCH   7   8
HETATM    8  C   LIG     1      17.207  33.290  13.363  1.00  0.00     0.171 C 
HETATM    9  C   LIG     1      17.523  33.018  14.825  1.00  0.00     0.034 C 
ENDBRANCH   7   8
ENDBRANCH   1   7
TORSDOF 2
ENDMDL
MODEL 16
REMARK VINA RESULT:      -4.0      7.804      8.670
REMARK  2 active torsions:
REMARK  status: ('A' for Active; 'I' for Inactive)
REMARK    1  A    between atoms: C_2  and  O_3 
REMARK    2  A    between atoms: O_3  and  C_4 
ROOT
HETATM    1  C   LIG     1      14.972  33.062  17.672  1.00  0.00     0.068 A 
HETATM    2  C   LIG     1      15.006  32.091  18.692  1.00  0.00     0.037 A 
HETATM    3  C   LIG     1      15.332  32.456  20.001  1.00  0.00     0.003 A 
HETATM    4  C   LIG     1      15.626  33.788  20.305  1.00  0.00     0.000 A 
HETATM    5  C   LIG     1      15.594  34.757  19.298  1.00  0.00     0.003 A 
HETATM    6  C   LIG     1      15.267  34.395  17.987  1.00  0.00     0.037 A 
ENDROOT
BRANCH   1   7
HETATM    7  O   LIG     1      14.651  32.748  16.342  1.00  0.00    -0.352 OA
BRANCH   7   8
HETATM    8  C   LIG     1      15.473  31.968  15.479  1.00  0.00     0.171 C 
HETATM    9  C   LIG     1      14.693  30.758  14.991  1.00  0.00     0.034 C 
ENDBRANCH   7   8
ENDBRANCH   1   7
TORSDOF 2
ENDMDL
MODEL 17
REMARK VINA RESULT:      -3.9     11.211     12.399
REMARK  2 active torsions:
REMARK  status: ('A' for Active; 'I' for Inactive)
REMARK    1  A    between atoms: C_2  and  O_3 
REMARK    2  A    between atoms: O_3  and  C_4 
ROOT
HETATM    1  C   LIG     1      15.740  31.594  13.959  1.00  0.00     0.068 A 
HETATM    2  C   LIG     1      15.545  31.997  15.295  1.00  0.00     0.037 A 
HETATM    3  C   LIG     1      16.273  33.069  15.820  1.00  0.00     0.003 A 
HETATM    4  C   LIG     1      17.199  33.747  15.022  1.00  0.00     0.000 A 
HETATM    5  C   LIG     1      17.397  33.352  13.697  1.00  0.00     0.003 A 
HETATM    6  C   LIG     1      16.670  32.281  13.168  1.00  0.00     0.037 A 
ENDROOT
BRANCH   1   7
HETATM    7  O   LIG     1      15.036  30.526  13.384  1.00  0.00    -0.352 OA
BRANCH   7   8
HETATM    8  C   LIG     1      14.524  29.414  14.113  1.00  0.00     0.171 C 
HETATM    9  C   LIG     1      15.275  28.155  13.712  1.00  0.00     0.034 C 
ENDBRANCH   7   8
ENDBRANCH   1   7
TORSDOF 2
ENDMDL
MODEL 18
REMARK VINA RESULT:      -3.9     10.387     11.629
REMARK  2 active torsions:
REMARK  status: ('A' for Active; 'I' for Inactive)
REMARK    1  A    between atoms: C_2  and  O_3 
REMARK    2  A    between atoms: O_3  and  C_4 
ROOT
HETATM    1  C   LIG     1      15.425  31.648  15.005  1.00  0.00     0.068 A 
HETATM    2  C   LIG     1      16.129  32.574  15.800  1.00  0.00     0.037 A 
HETATM    3  C   LIG     1      17.106  33.393  15.227  1.00  0.00     0.003 A 
HETATM    4  C   LIG     1      17.390  33.298  13.862  1.00  0.00     0.000 A 
HETATM    5  C   LIG     1      16.696  32.382  13.068  1.00  0.00     0.003 A 
HETATM    6  C   LIG     1      15.717  31.561  13.637  1.00  0.00     0.037 A 
ENDROOT
BRANCH   1   7
HETATM    7  O   LIG     1      14.436  30.802  15.530  1.00  0.00    -0.352 OA
BRANCH   7   8
HETATM    8  C   LIG     1      13.837  30.965  16.813  1.00  0.00     0.171 C 
HETATM    9  C   LIG     1      12.655  31.915  16.704  1.00  0.00     0.034 C 
ENDBRANCH   7   8
ENDBRANCH   1   7
TORSDOF 2
ENDMDL
MODEL 19
REMARK VINA RESULT:      -3.6     20.105     20.794
REMARK  2 active torsions:
REMARK  status: ('A' for Active; 'I' for Inactive)
REMARK    1  A    between atoms: C_2  and  O_3 
REMARK    2  A    between atoms: O_3  and  C_4 
ROOT
HETATM    1  C   LIG     1      15.730  19.513  14.006  1.00  0.00     0.068 A 
HETATM    2  C   LIG     1      16.270  19.449  15.306  1.00  0.00     0.037 A 
HETATM    3  C   LIG     1      15.528  18.887  16.349  1.00  0.00     0.003 A 
HETATM    4  C   LIG     1      14.247  18.383  16.108  1.00  0.00     0.000 A 
HETATM    5  C   LIG     1      13.706  18.443  14.821  1.00  0.00     0.003 A 
HETATM    6  C   LIG     1      14.444  19.005  13.775  1.00  0.00     0.037 A 
ENDROOT
BRANCH   1   7
HETATM    7  O   LIG     1      16.431  20.067  12.925  1.00  0.00    -0.352 OA
BRANCH   7   8
HETATM    8  C   LIG     1      16.099  19.854  11.556  1.00  0.00     0.171 C 
HETATM    9  C   LIG     1      15.643  21.163  10.934  1.00  0.00     0.034 C 
ENDBRANCH   7   8
ENDBRANCH   1   7
TORSDOF 2
ENDMDL
