REMARK  3 active torsions:
REMARK  status: ('A' for Active; 'I' for Inactive)
REMARK    1  A    between atoms: N_1  and  C_2 
REMARK    2  A    between atoms: C_2  and  N_3 
REMARK    3  A    between atoms: N_3  and  C_4 
ROOT
HETATM    1  N   LIG     1       1.306  -1.050   0.218  1.00  0.00    -0.334 N 
HETATM    2  H   LIG     1       1.386  -2.037   0.554  1.00  0.00     0.168 HD
ENDROOT
BRANCH   1   3
HETATM    3  C   LIG     1       2.515  -0.357  -0.125  1.00  0.00     0.169 C 
HETATM    4  S   LIG     1       3.935  -0.851   0.522  1.00  0.00    -0.041 SA
BRANCH   3   5
HETATM    5  N   LIG     1       2.521   0.652  -1.139  1.00  0.00    -0.376 N 
HETATM    6  H   LIG     1       1.663   0.859  -1.697  1.00  0.00     0.158 HD
HETATM    7  H   LIG     1       3.403   1.155  -1.382  1.00  0.00     0.158 HD
ENDBRANCH   3   5
ENDBRANCH   1   3
BRANCH   1   8
HETATM    8  C   LIG     1      -0.007  -0.475   0.119  1.00  0.00     0.034 A 
HETATM    9  C   LIG     1      -0.222   0.900   0.326  1.00  0.00     0.029 A 
HETATM   10  C   LIG     1      -1.513   1.432   0.252  1.00  0.00     0.002 A 
HETATM   11  C   LIG     1      -2.601   0.596  -0.014  1.00  0.00     0.000 A 
HETATM   12  C   LIG     1      -2.399  -0.775  -0.198  1.00  0.00     0.002 A 
HETATM   13  C   LIG     1      -1.109  -1.310  -0.125  1.00  0.00     0.029 A 
ENDBRANCH   1   8
TORSDOF 3
