REMARK  3 active torsions:
REMARK  status: ('A' for Active; 'I' for Inactive)
REMARK    1  A    between atoms: C_1  and  C_2 
REMARK    2  A    between atoms: C_2  and  C_3 
REMARK    3  A    between atoms: C_3  and  C_4 
ROOT
HETATM    1  C   LIG     1      -0.480  -0.149   0.571  1.00  0.00     0.043 C 
ENDROOT
BRANCH   1   2
HETATM    2  C   LIG     1      -1.910  -0.209   0.105  1.00  0.00    -0.058 A 
HETATM    3  C   LIG     1      -2.457  -1.420  -0.352  1.00  0.00     0.007 A 
HETATM    4  C   LIG     1      -3.776  -1.467  -0.814  1.00  0.00     0.001 A 
HETATM    5  C   LIG     1      -4.553  -0.305  -0.833  1.00  0.00     0.000 A 
HETATM    6  C   LIG     1      -4.012   0.905  -0.393  1.00  0.00     0.001 A 
HETATM    7  C   LIG     1      -2.693   0.957   0.070  1.00  0.00     0.007 A 
ENDBRANCH   1   2
BRANCH   1   8
HETATM    8  C   LIG     1       0.455   0.165  -0.602  1.00  0.00     0.043 C 
BRANCH   8   9
HETATM    9  C   LIG     1       1.893   0.206  -0.152  1.00  0.00    -0.058 A 
HETATM   10  C   LIG     1       2.353   1.264   0.651  1.00  0.00     0.007 A 
HETATM   11  C   LIG     1       3.687   1.305   1.067  1.00  0.00     0.001 A 
HETATM   12  C   LIG     1       4.572   0.294   0.682  1.00  0.00     0.000 A 
HETATM   13  C   LIG     1       4.125  -0.759  -0.120  1.00  0.00     0.001 A 
HETATM   14  C   LIG     1       2.791  -0.804  -0.538  1.00  0.00     0.007 A 
ENDBRANCH   8   9
ENDBRANCH   1   8
TORSDOF 3
