MODEL 1
REMARK VINA RESULT:      -9.0      0.000      0.000
REMARK  2 active torsions:
REMARK  status: ('A' for Active; 'I' for Inactive)
REMARK    1  A    between atoms: C_1  and  N_2 
REMARK    2  A    between atoms: N_3  and  C_4 
ROOT
HETATM    1  N   LIG     1      16.004  38.079  24.105  1.00  0.00    -0.150 NA
HETATM    2  N   LIG     1      16.079  38.452  22.884  1.00  0.00    -0.150 NA
ENDROOT
BRANCH   1   3
HETATM    3  C   LIG     1      16.881  37.146  24.757  1.00  0.00     0.079 A 
HETATM    4  C   LIG     1      17.780  37.617  25.723  1.00  0.00     0.033 A 
HETATM    5  C   LIG     1      18.620  36.725  26.398  1.00  0.00     0.002 A 
HETATM    6  C   LIG     1      18.550  35.355  26.129  1.00  0.00     0.000 A 
HETATM    7  C   LIG     1      17.631  34.874  25.190  1.00  0.00     0.002 A 
HETATM    8  C   LIG     1      16.790  35.763  24.514  1.00  0.00     0.033 A 
ENDBRANCH   1   3
BRANCH   2   9
HETATM    9  C   LIG     1      17.146  38.142  21.974  1.00  0.00     0.079 A 
HETATM   10  C   LIG     1      18.144  39.085  21.666  1.00  0.00     0.033 A 
HETATM   11  C   LIG     1      19.149  38.770  20.747  1.00  0.00     0.002 A 
HETATM   12  C   LIG     1      19.152  37.524  20.113  1.00  0.00     0.000 A 
HETATM   13  C   LIG     1      18.144  36.597  20.388  1.00  0.00     0.002 A 
HETATM   14  C   LIG     1      17.137  36.910  21.308  1.00  0.00     0.033 A 
ENDBRANCH   2   9
TORSDOF 2
ENDMDL
MODEL 2
REMARK VINA RESULT:      -9.0      0.036      4.879
REMARK  2 active torsions:
REMARK  status: ('A' for Active; 'I' for Inactive)
REMARK    1  A    between atoms: C_1  and  N_2 
REMARK    2  A    between atoms: N_3  and  C_4 
ROOT
HETATM    1  N   LIG     1      16.105  38.473  22.879  1.00  0.00    -0.150 NA
HETATM    2  N   LIG     1      16.031  38.103  24.101  1.00  0.00    -0.150 NA
ENDROOT
BRANCH   1   3
HETATM    3  C   LIG     1      17.162  38.144  21.962  1.00  0.00     0.079 A 
HETATM    4  C   LIG     1      17.140  36.900  21.317  1.00  0.00     0.033 A 
HETATM    5  C   LIG     1      18.136  36.569  20.392  1.00  0.00     0.002 A 
HETATM    6  C   LIG     1      19.146  37.487  20.090  1.00  0.00     0.000 A 
HETATM    7  C   LIG     1      19.154  38.743  20.705  1.00  0.00     0.002 A 
HETATM    8  C   LIG     1      18.160  39.077  21.629  1.00  0.00     0.033 A 
ENDBRANCH   1   3
BRANCH   2   9
HETATM    9  C   LIG     1      16.898  37.158  24.749  1.00  0.00     0.079 A 
HETATM   10  C   LIG     1      16.769  35.775  24.525  1.00  0.00     0.033 A 
HETATM   11  C   LIG     1      17.600  34.874  25.199  1.00  0.00     0.002 A 
HETATM   12  C   LIG     1      18.546  35.345  26.114  1.00  0.00     0.000 A 
HETATM   13  C   LIG     1      18.654  36.715  26.365  1.00  0.00     0.002 A 
HETATM   14  C   LIG     1      17.824  37.618  25.693  1.00  0.00     0.033 A 
ENDBRANCH   2   9
TORSDOF 2
ENDMDL
MODEL 3
REMARK VINA RESULT:      -8.3      1.164      1.768
REMARK  2 active torsions:
REMARK  status: ('A' for Active; 'I' for Inactive)
REMARK    1  A    between atoms: C_1  and  N_2 
REMARK    2  A    between atoms: N_3  and  C_4 
ROOT
HETATM    1  N   LIG     1      16.531  38.264  24.521  1.00  0.00    -0.150 NA
HETATM    2  N   LIG     1      16.050  38.311  23.337  1.00  0.00    -0.150 NA
ENDROOT
BRANCH   1   3
HETATM    3  C   LIG     1      17.181  37.133  25.123  1.00  0.00     0.079 A 
HETATM    4  C   LIG     1      18.075  37.345  26.181  1.00  0.00     0.033 A 
HETATM    5  C   LIG     1      18.694  36.259  26.808  1.00  0.00     0.002 A 
HETATM    6  C   LIG     1      18.406  34.954  26.397  1.00  0.00     0.000 A 
HETATM    7  C   LIG     1      17.489  34.734  25.365  1.00  0.00     0.002 A 
HETATM    8  C   LIG     1      16.869  35.818  24.736  1.00  0.00     0.033 A 
ENDBRANCH   1   3
BRANCH   2   9
HETATM    9  C   LIG     1      16.209  37.304  22.324  1.00  0.00     0.079 A 
HETATM   10  C   LIG     1      17.400  37.192  21.584  1.00  0.00     0.033 A 
HETATM   11  C   LIG     1      17.514  36.229  20.577  1.00  0.00     0.002 A 
HETATM   12  C   LIG     1      16.435  35.388  20.288  1.00  0.00     0.000 A 
HETATM   13  C   LIG     1      15.238  35.519  20.996  1.00  0.00     0.002 A 
HETATM   14  C   LIG     1      15.122  36.482  22.003  1.00  0.00     0.033 A 
ENDBRANCH   2   9
TORSDOF 2
ENDMDL
MODEL 4
REMARK VINA RESULT:      -8.1      1.181      4.681
REMARK  2 active torsions:
REMARK  status: ('A' for Active; 'I' for Inactive)
REMARK    1  A    between atoms: C_1  and  N_2 
REMARK    2  A    between atoms: N_3  and  C_4 
ROOT
HETATM    1  N   LIG     1      16.298  38.461  23.324  1.00  0.00    -0.150 NA
HETATM    2  N   LIG     1      16.762  38.407  24.515  1.00  0.00    -0.150 NA
ENDROOT
BRANCH   1   3
HETATM    3  C   LIG     1      16.358  37.408  22.348  1.00  0.00     0.079 A 
HETATM    4  C   LIG     1      15.206  36.654  22.088  1.00  0.00     0.033 A 
HETATM    5  C   LIG     1      15.227  35.648  21.117  1.00  0.00     0.002 A 
HETATM    6  C   LIG     1      16.392  35.405  20.384  1.00  0.00     0.000 A 
HETATM    7  C   LIG     1      17.536  36.176  20.615  1.00  0.00     0.002 A 
HETATM    8  C   LIG     1      17.517  37.183  21.585  1.00  0.00     0.033 A 
ENDBRANCH   1   3
BRANCH   2   9
HETATM    9  C   LIG     1      17.284  37.235  25.163  1.00  0.00     0.079 A 
HETATM   10  C   LIG     1      18.260  37.329  26.171  1.00  0.00     0.033 A 
HETATM   11  C   LIG     1      18.779  36.171  26.757  1.00  0.00     0.002 A 
HETATM   12  C   LIG     1      18.346  34.914  26.326  1.00  0.00     0.000 A 
HETATM   13  C   LIG     1      17.403  34.814  25.300  1.00  0.00     0.002 A 
HETATM   14  C   LIG     1      16.882  35.971  24.712  1.00  0.00     0.033 A 
ENDBRANCH   2   9
TORSDOF 2
ENDMDL
MODEL 5
REMARK VINA RESULT:      -7.8      1.157      1.656
REMARK  2 active torsions:
REMARK  status: ('A' for Active; 'I' for Inactive)
REMARK    1  A    between atoms: C_1  and  N_2 
REMARK    2  A    between atoms: N_3  and  C_4 
ROOT
HETATM    1  N   LIG     1      16.129  35.936  22.542  1.00  0.00    -0.150 NA
HETATM    2  N   LIG     1      16.481  36.288  21.364  1.00  0.00    -0.150 NA
ENDROOT
BRANCH   1   3
HETATM    3  C   LIG     1      16.851  36.208  23.754  1.00  0.00     0.079 A 
HETATM    4  C   LIG     1      16.891  37.520  24.243  1.00  0.00     0.033 A 
HETATM    5  C   LIG     1      17.556  37.806  25.440  1.00  0.00     0.002 A 
HETATM    6  C   LIG     1      18.165  36.779  26.166  1.00  0.00     0.000 A 
HETATM    7  C   LIG     1      18.100  35.461  25.702  1.00  0.00     0.002 A 
HETATM    8  C   LIG     1      17.435  35.173  24.506  1.00  0.00     0.033 A 
ENDBRANCH   1   3
BRANCH   2   9
HETATM    9  C   LIG     1      17.576  37.161  21.038  1.00  0.00     0.079 A 
HETATM   10  C   LIG     1      17.646  38.469  21.551  1.00  0.00     0.033 A 
HETATM   11  C   LIG     1      18.702  39.310  21.187  1.00  0.00     0.002 A 
HETATM   12  C   LIG     1      19.679  38.861  20.294  1.00  0.00     0.000 A 
HETATM   13  C   LIG     1      19.594  37.575  19.754  1.00  0.00     0.002 A 
HETATM   14  C   LIG     1      18.539  36.732  20.117  1.00  0.00     0.033 A 
ENDBRANCH   2   9
TORSDOF 2
ENDMDL
MODEL 6
REMARK VINA RESULT:      -6.5      1.651      2.644
REMARK  2 active torsions:
REMARK  status: ('A' for Active; 'I' for Inactive)
REMARK    1  A    between atoms: C_1  and  N_2 
REMARK    2  A    between atoms: N_3  and  C_4 
ROOT
HETATM    1  N   LIG     1      16.350  35.561  21.408  1.00  0.00    -0.150 NA
HETATM    2  N   LIG     1      16.970  35.922  20.349  1.00  0.00    -0.150 NA
ENDROOT
BRANCH   1   3
HETATM    3  C   LIG     1      16.655  35.983  22.747  1.00  0.00     0.079 A 
HETATM    4  C   LIG     1      17.242  35.068  23.632  1.00  0.00     0.033 A 
HETATM    5  C   LIG     1      17.582  35.462  24.930  1.00  0.00     0.002 A 
HETATM    6  C   LIG     1      17.359  36.779  25.344  1.00  0.00     0.000 A 
HETATM    7  C   LIG     1      16.805  37.706  24.456  1.00  0.00     0.002 A 
HETATM    8  C   LIG     1      16.464  37.314  23.157  1.00  0.00     0.033 A 
ENDBRANCH   1   3
BRANCH   2   9
HETATM    9  C   LIG     1      17.982  36.939  20.271  1.00  0.00     0.079 A 
HETATM   10  C   LIG     1      19.211  36.702  19.629  1.00  0.00     0.033 A 
HETATM   11  C   LIG     1      20.193  37.696  19.603  1.00  0.00     0.002 A 
HETATM   12  C   LIG     1      19.965  38.922  20.234  1.00  0.00     0.000 A 
HETATM   13  C   LIG     1      18.760  39.150  20.903  1.00  0.00     0.002 A 
HETATM   14  C   LIG     1      17.776  38.157  20.931  1.00  0.00     0.033 A 
ENDBRANCH   2   9
TORSDOF 2
ENDMDL
