MODEL 1
REMARK VINA RESULT:      -6.4      0.000      0.000
REMARK  1 active torsions:
REMARK  status: ('A' for Active; 'I' for Inactive)
REMARK       I    between atoms: C_2  and  N_3 
REMARK    1  A    between atoms: N_3  and  C_4 
ROOT
HETATM    1  C   LIG     1      17.086  35.832  24.157  1.00  0.00     0.034 A 
HETATM    2  C   LIG     1      17.565  34.849  25.043  1.00  0.00     0.029 A 
HETATM    3  C   LIG     1      18.167  35.220  26.250  1.00  0.00     0.002 A 
HETATM    4  C   LIG     1      18.284  36.570  26.589  1.00  0.00     0.000 A 
HETATM    5  C   LIG     1      17.791  37.551  25.726  1.00  0.00     0.002 A 
HETATM    6  C   LIG     1      17.189  37.185  24.519  1.00  0.00     0.029 A 
ENDROOT
BRANCH   1   7
HETATM    7  N   LIG     1      16.441  35.479  22.921  1.00  0.00    -0.328 N 
HETATM    8  C   LIG     1      16.851  35.963  21.632  1.00  0.00     0.218 C 
HETATM    9  C   LIG     1      16.282  35.368  20.385  1.00  0.00     0.117 C 
HETATM   10  O   LIG     1      17.667  36.919  21.534  1.00  0.00    -0.274 OA
HETATM   11  H   LIG     1      15.569  34.906  22.973  1.00  0.00     0.169 HD
ENDBRANCH   1   7
TORSDOF 1
ENDMDL
MODEL 2
REMARK VINA RESULT:      -6.2      3.759      4.528
REMARK  1 active torsions:
REMARK  status: ('A' for Active; 'I' for Inactive)
REMARK       I    between atoms: C_2  and  N_3 
REMARK    1  A    between atoms: N_3  and  C_4 
ROOT
HETATM    1  C   LIG     1      17.780  37.086  20.883  1.00  0.00     0.034 A 
HETATM    2  C   LIG     1      18.725  36.771  19.888  1.00  0.00     0.029 A 
HETATM    3  C   LIG     1      19.653  37.729  19.468  1.00  0.00     0.002 A 
HETATM    4  C   LIG     1      19.656  39.003  20.044  1.00  0.00     0.000 A 
HETATM    5  C   LIG     1      18.737  39.316  21.048  1.00  0.00     0.002 A 
HETATM    6  C   LIG     1      17.808  38.361  21.471  1.00  0.00     0.029 A 
ENDROOT
BRANCH   1   7
HETATM    7  N   LIG     1      16.831  36.113  21.352  1.00  0.00    -0.328 N 
HETATM    8  C   LIG     1      16.145  35.182  20.500  1.00  0.00     0.218 C 
HETATM    9  C   LIG     1      15.358  34.056  21.089  1.00  0.00     0.117 C 
HETATM   10  O   LIG     1      16.165  35.322  19.247  1.00  0.00    -0.274 OA
HETATM   11  H   LIG     1      16.558  36.144  22.360  1.00  0.00     0.169 HD
ENDBRANCH   1   7
TORSDOF 1
ENDMDL
MODEL 3
REMARK VINA RESULT:      -6.1      5.648      9.250
REMARK  1 active torsions:
REMARK  status: ('A' for Active; 'I' for Inactive)
REMARK       I    between atoms: C_2  and  N_3 
REMARK    1  A    between atoms: N_3  and  C_4 
ROOT
HETATM    1  C   LIG     1      14.655  32.318  17.032  1.00  0.00     0.034 A 
HETATM    2  C   LIG     1      15.622  32.321  16.008  1.00  0.00     0.029 A 
HETATM    3  C   LIG     1      15.485  31.469  14.908  1.00  0.00     0.002 A 
HETATM    4  C   LIG     1      14.381  30.619  14.811  1.00  0.00     0.000 A 
HETATM    5  C   LIG     1      13.406  30.626  15.812  1.00  0.00     0.002 A 
HETATM    6  C   LIG     1      13.538  31.475  16.913  1.00  0.00     0.029 A 
ENDROOT
BRANCH   1   7
HETATM    7  N   LIG     1      14.757  33.200  18.163  1.00  0.00    -0.328 N 
HETATM    8  C   LIG     1      15.335  32.828  19.425  1.00  0.00     0.218 C 
HETATM    9  C   LIG     1      15.614  33.866  20.463  1.00  0.00     0.117 C 
HETATM   10  O   LIG     1      15.579  31.620  19.689  1.00  0.00    -0.274 OA
HETATM   11  H   LIG     1      14.304  34.139  18.091  1.00  0.00     0.169 HD
ENDBRANCH   1   7
TORSDOF 1
ENDMDL
MODEL 4
REMARK VINA RESULT:      -6.0      2.931      5.319
REMARK  1 active torsions:
REMARK  status: ('A' for Active; 'I' for Inactive)
REMARK       I    between atoms: C_2  and  N_3 
REMARK    1  A    between atoms: N_3  and  C_4 
ROOT
HETATM    1  C   LIG     1      17.946  37.922  21.564  1.00  0.00     0.034 A 
HETATM    2  C   LIG     1      18.355  39.195  21.124  1.00  0.00     0.029 A 
HETATM    3  C   LIG     1      18.952  39.349  19.869  1.00  0.00     0.002 A 
HETATM    4  C   LIG     1      19.134  38.241  19.037  1.00  0.00     0.000 A 
HETATM    5  C   LIG     1      18.711  36.978  19.457  1.00  0.00     0.002 A 
HETATM    6  C   LIG     1      18.113  36.819  20.710  1.00  0.00     0.029 A 
ENDROOT
BRANCH   1   7
HETATM    7  N   LIG     1      17.307  37.738  22.838  1.00  0.00    -0.328 N 
HETATM    8  C   LIG     1      17.909  38.078  24.098  1.00  0.00     0.218 C 
HETATM    9  C   LIG     1      17.094  38.074  25.351  1.00  0.00     0.117 C 
HETATM   10  O   LIG     1      19.139  38.345  24.170  1.00  0.00    -0.274 OA
HETATM   11  H   LIG     1      16.385  37.246  22.855  1.00  0.00     0.169 HD
ENDBRANCH   1   7
TORSDOF 1
ENDMDL
MODEL 5
REMARK VINA RESULT:      -5.9      2.057      2.701
REMARK  1 active torsions:
REMARK  status: ('A' for Active; 'I' for Inactive)
REMARK       I    between atoms: C_2  and  N_3 
REMARK    1  A    between atoms: N_3  and  C_4 
ROOT
HETATM    1  C   LIG     1      17.414  37.168  23.901  1.00  0.00     0.034 A 
HETATM    2  C   LIG     1      17.707  37.722  25.162  1.00  0.00     0.029 A 
HETATM    3  C   LIG     1      17.813  36.898  26.286  1.00  0.00     0.002 A 
HETATM    4  C   LIG     1      17.644  35.516  26.162  1.00  0.00     0.000 A 
HETATM    5  C   LIG     1      17.375  34.957  24.910  1.00  0.00     0.002 A 
HETATM    6  C   LIG     1      17.268  35.776  23.784  1.00  0.00     0.029 A 
ENDROOT
BRANCH   1   7
HETATM    7  N   LIG     1      17.323  37.989  22.723  1.00  0.00    -0.328 N 
HETATM    8  C   LIG     1      18.402  38.790  22.214  1.00  0.00     0.218 C 
HETATM    9  C   LIG     1      18.300  39.424  20.865  1.00  0.00     0.117 C 
HETATM   10  O   LIG     1      19.430  39.000  22.911  1.00  0.00    -0.274 OA
HETATM   11  H   LIG     1      16.389  38.076  22.261  1.00  0.00     0.169 HD
ENDBRANCH   1   7
TORSDOF 1
ENDMDL
MODEL 6
REMARK VINA RESULT:      -5.9      2.006      2.615
REMARK  1 active torsions:
REMARK  status: ('A' for Active; 'I' for Inactive)
REMARK       I    between atoms: C_2  and  N_3 
REMARK    1  A    between atoms: N_3  and  C_4 
ROOT
HETATM    1  C   LIG     1      16.897  35.553  22.332  1.00  0.00     0.034 A 
HETATM    2  C   LIG     1      17.171  35.243  23.678  1.00  0.00     0.029 A 
HETATM    3  C   LIG     1      17.270  36.262  24.630  1.00  0.00     0.002 A 
HETATM    4  C   LIG     1      17.084  37.595  24.253  1.00  0.00     0.000 A 
HETATM    5  C   LIG     1      16.790  37.909  22.924  1.00  0.00     0.002 A 
HETATM    6  C   LIG     1      16.689  36.893  21.969  1.00  0.00     0.029 A 
ENDROOT
BRANCH   1   7
HETATM    7  N   LIG     1      16.765  34.524  21.336  1.00  0.00    -0.328 N 
HETATM    8  C   LIG     1      15.514  33.928  20.954  1.00  0.00     0.218 C 
HETATM    9  C   LIG     1      15.435  33.040  19.754  1.00  0.00     0.117 C 
HETATM   10  O   LIG     1      14.477  34.114  21.645  1.00  0.00    -0.274 OA
HETATM   11  H   LIG     1      17.641  34.123  20.929  1.00  0.00     0.169 HD
ENDBRANCH   1   7
TORSDOF 1
ENDMDL
MODEL 7
REMARK VINA RESULT:      -5.7      9.208     10.365
REMARK  1 active torsions:
REMARK  status: ('A' for Active; 'I' for Inactive)
REMARK       I    between atoms: C_2  and  N_3 
REMARK    1  A    between atoms: N_3  and  C_4 
ROOT
HETATM    1  C   LIG     1      15.493  31.748  15.459  1.00  0.00     0.034 A 
HETATM    2  C   LIG     1      14.812  32.333  16.543  1.00  0.00     0.029 A 
HETATM    3  C   LIG     1      13.538  31.882  16.901  1.00  0.00     0.002 A 
HETATM    4  C   LIG     1      12.938  30.838  16.192  1.00  0.00     0.000 A 
HETATM    5  C   LIG     1      13.616  30.238  15.129  1.00  0.00     0.002 A 
HETATM    6  C   LIG     1      14.890  30.684  14.768  1.00  0.00     0.029 A 
ENDROOT
BRANCH   1   7
HETATM    7  N   LIG     1      16.814  32.175  15.083  1.00  0.00    -0.328 N 
HETATM    8  C   LIG     1      17.097  33.030  13.964  1.00  0.00     0.218 C 
HETATM    9  C   LIG     1      18.461  33.613  13.784  1.00  0.00     0.117 C 
HETATM   10  O   LIG     1      16.211  33.270  13.100  1.00  0.00    -0.274 OA
HETATM   11  H   LIG     1      17.624  31.767  15.603  1.00  0.00     0.169 HD
ENDBRANCH   1   7
TORSDOF 1
ENDMDL
MODEL 8
REMARK VINA RESULT:      -5.6     10.445     12.105
REMARK  1 active torsions:
REMARK  status: ('A' for Active; 'I' for Inactive)
REMARK       I    between atoms: C_2  and  N_3 
REMARK    1  A    between atoms: N_3  and  C_4 
ROOT
HETATM    1  C   LIG     1      13.429  29.942  14.598  1.00  0.00     0.034 A 
HETATM    2  C   LIG     1      14.675  30.334  14.073  1.00  0.00     0.029 A 
HETATM    3  C   LIG     1      15.472  31.254  14.760  1.00  0.00     0.002 A 
HETATM    4  C   LIG     1      15.042  31.781  15.981  1.00  0.00     0.000 A 
HETATM    5  C   LIG     1      13.817  31.381  16.520  1.00  0.00     0.002 A 
HETATM    6  C   LIG     1      13.017  30.461  15.837  1.00  0.00     0.029 A 
ENDROOT
BRANCH   1   7
HETATM    7  N   LIG     1      12.599  28.979  13.926  1.00  0.00    -0.328 N 
HETATM    8  C   LIG     1      13.016  27.642  13.604  1.00  0.00     0.218 C 
HETATM    9  C   LIG     1      12.022  26.636  13.120  1.00  0.00     0.117 C 
HETATM   10  O   LIG     1      14.229  27.309  13.690  1.00  0.00    -0.274 OA
HETATM   11  H   LIG     1      11.669  29.299  13.571  1.00  0.00     0.169 HD
ENDBRANCH   1   7
TORSDOF 1
ENDMDL
MODEL 9
REMARK VINA RESULT:      -5.5      2.016      4.737
REMARK  1 active torsions:
REMARK  status: ('A' for Active; 'I' for Inactive)
REMARK       I    between atoms: C_2  and  N_3 
REMARK    1  A    between atoms: N_3  and  C_4 
ROOT
HETATM    1  C   LIG     1      16.320  36.890  22.307  1.00  0.00     0.034 A 
HETATM    2  C   LIG     1      17.365  36.716  21.379  1.00  0.00     0.029 A 
HETATM    3  C   LIG     1      17.177  35.914  20.249  1.00  0.00     0.002 A 
HETATM    4  C   LIG     1      15.945  35.292  20.026  1.00  0.00     0.000 A 
HETATM    5  C   LIG     1      14.897  35.478  20.931  1.00  0.00     0.002 A 
HETATM    6  C   LIG     1      15.080  36.279  22.061  1.00  0.00     0.029 A 
ENDROOT
BRANCH   1   7
HETATM    7  N   LIG     1      16.477  37.728  23.465  1.00  0.00    -0.328 N 
HETATM    8  C   LIG     1      17.067  37.293  24.701  1.00  0.00     0.218 C 
HETATM    9  C   LIG     1      17.404  38.283  25.767  1.00  0.00     0.117 C 
HETATM   10  O   LIG     1      17.272  36.068  24.918  1.00  0.00    -0.274 OA
HETATM   11  H   LIG     1      16.058  38.686  23.435  1.00  0.00     0.169 HD
ENDBRANCH   1   7
TORSDOF 1
ENDMDL
MODEL 10
REMARK VINA RESULT:      -5.5      2.955      3.638
REMARK  1 active torsions:
REMARK  status: ('A' for Active; 'I' for Inactive)
REMARK       I    between atoms: C_2  and  N_3 
REMARK    1  A    between atoms: N_3  and  C_4 
ROOT
HETATM    1  C   LIG     1      17.851  38.205  21.660  1.00  0.00     0.034 A 
HETATM    2  C   LIG     1      17.190  36.963  21.595  1.00  0.00     0.029 A 
HETATM    3  C   LIG     1      16.812  36.304  22.768  1.00  0.00     0.002 A 
HETATM    4  C   LIG     1      17.077  36.879  24.014  1.00  0.00     0.000 A 
HETATM    5  C   LIG     1      17.712  38.121  24.087  1.00  0.00     0.002 A 
HETATM    6  C   LIG     1      18.091  38.785  22.917  1.00  0.00     0.029 A 
ENDROOT
BRANCH   1   7
HETATM    7  N   LIG     1      18.229  38.918  20.470  1.00  0.00    -0.328 N 
HETATM    8  C   LIG     1      18.992  38.344  19.396  1.00  0.00     0.218 C 
HETATM    9  C   LIG     1      19.140  39.074  18.100  1.00  0.00     0.117 C 
HETATM   10  O   LIG     1      19.577  37.238  19.543  1.00  0.00    -0.274 OA
HETATM   11  H   LIG     1      18.012  39.939  20.423  1.00  0.00     0.169 HD
ENDBRANCH   1   7
TORSDOF 1
ENDMDL
MODEL 11
REMARK VINA RESULT:      -5.5      3.173      3.824
REMARK  1 active torsions:
REMARK  status: ('A' for Active; 'I' for Inactive)
REMARK       I    between atoms: C_2  and  N_3 
REMARK    1  A    between atoms: N_3  and  C_4 
ROOT
HETATM    1  C   LIG     1      17.284  36.535  20.981  1.00  0.00     0.034 A 
HETATM    2  C   LIG     1      16.576  37.063  22.077  1.00  0.00     0.029 A 
HETATM    3  C   LIG     1      16.920  38.311  22.603  1.00  0.00     0.002 A 
HETATM    4  C   LIG     1      17.961  39.050  22.035  1.00  0.00     0.000 A 
HETATM    5  C   LIG     1      18.653  38.544  20.933  1.00  0.00     0.002 A 
HETATM    6  C   LIG     1      18.313  37.296  20.403  1.00  0.00     0.029 A 
ENDROOT
BRANCH   1   7
HETATM    7  N   LIG     1      16.937  35.265  20.404  1.00  0.00    -0.328 N 
HETATM    8  C   LIG     1      15.901  34.406  20.910  1.00  0.00     0.218 C 
HETATM    9  C   LIG     1      15.448  33.222  20.119  1.00  0.00     0.117 C 
HETATM   10  O   LIG     1      15.389  34.616  22.042  1.00  0.00    -0.274 OA
HETATM   11  H   LIG     1      17.531  34.904  19.623  1.00  0.00     0.169 HD
ENDBRANCH   1   7
TORSDOF 1
ENDMDL
MODEL 12
REMARK VINA RESULT:      -5.4     10.508     12.076
REMARK  1 active torsions:
REMARK  status: ('A' for Active; 'I' for Inactive)
REMARK       I    between atoms: C_2  and  N_3 
REMARK    1  A    between atoms: N_3  and  C_4 
ROOT
HETATM    1  C   LIG     1      14.797  30.023  14.090  1.00  0.00     0.034 A 
HETATM    2  C   LIG     1      15.594  31.035  14.658  1.00  0.00     0.029 A 
HETATM    3  C   LIG     1      15.127  31.767  15.754  1.00  0.00     0.002 A 
HETATM    4  C   LIG     1      13.872  31.490  16.301  1.00  0.00     0.000 A 
HETATM    5  C   LIG     1      13.084  30.473  15.757  1.00  0.00     0.002 A 
HETATM    6  C   LIG     1      13.546  29.737  14.662  1.00  0.00     0.029 A 
ENDROOT
BRANCH   1   7
HETATM    7  N   LIG     1      15.260  29.237  12.978  1.00  0.00    -0.328 N 
HETATM    8  C   LIG     1      15.640  27.854  13.072  1.00  0.00     0.218 C 
HETATM    9  C   LIG     1      15.884  27.052  11.836  1.00  0.00     0.117 C 
HETATM   10  O   LIG     1      15.810  27.310  14.196  1.00  0.00    -0.274 OA
HETATM   11  H   LIG     1      15.413  29.724  12.066  1.00  0.00     0.169 HD
ENDBRANCH   1   7
TORSDOF 1
ENDMDL
MODEL 13
REMARK VINA RESULT:      -5.4      6.274      9.769
REMARK  1 active torsions:
REMARK  status: ('A' for Active; 'I' for Inactive)
REMARK       I    between atoms: C_2  and  N_3 
REMARK    1  A    between atoms: N_3  and  C_4 
ROOT
HETATM    1  C   LIG     1      14.939  31.826  16.452  1.00  0.00     0.034 A 
HETATM    2  C   LIG     1      13.717  31.129  16.513  1.00  0.00     0.029 A 
HETATM    3  C   LIG     1      13.309  30.327  15.443  1.00  0.00     0.002 A 
HETATM    4  C   LIG     1      14.118  30.202  14.311  1.00  0.00     0.000 A 
HETATM    5  C   LIG     1      15.342  30.872  14.252  1.00  0.00     0.002 A 
HETATM    6  C   LIG     1      15.755  31.674  15.319  1.00  0.00     0.029 A 
ENDROOT
BRANCH   1   7
HETATM    7  N   LIG     1      15.395  32.638  17.547  1.00  0.00    -0.328 N 
HETATM    8  C   LIG     1      15.240  34.065  17.612  1.00  0.00     0.218 C 
HETATM    9  C   LIG     1      15.528  34.800  18.881  1.00  0.00     0.117 C 
HETATM   10  O   LIG     1      14.895  34.720  16.592  1.00  0.00    -0.274 OA
HETATM   11  H   LIG     1      15.952  32.173  18.301  1.00  0.00     0.169 HD
ENDBRANCH   1   7
TORSDOF 1
ENDMDL
MODEL 14
REMARK VINA RESULT:      -5.3      9.924     10.885
REMARK  1 active torsions:
REMARK  status: ('A' for Active; 'I' for Inactive)
REMARK       I    between atoms: C_2  and  N_3 
REMARK    1  A    between atoms: N_3  and  C_4 
ROOT
HETATM    1  C   LIG     1      15.721  31.869  14.153  1.00  0.00     0.034 A 
HETATM    2  C   LIG     1      15.330  30.660  13.548  1.00  0.00     0.029 A 
HETATM    3  C   LIG     1      14.437  29.802  14.198  1.00  0.00     0.002 A 
HETATM    4  C   LIG     1      13.917  30.147  15.448  1.00  0.00     0.000 A 
HETATM    5  C   LIG     1      14.282  31.355  16.046  1.00  0.00     0.002 A 
HETATM    6  C   LIG     1      15.174  32.216  15.399  1.00  0.00     0.029 A 
ENDROOT
BRANCH   1   7
HETATM    7  N   LIG     1      16.618  32.781  13.497  1.00  0.00    -0.328 N 
HETATM    8  C   LIG     1      17.925  33.120  13.990  1.00  0.00     0.218 C 
HETATM    9  C   LIG     1      18.880  33.887  13.134  1.00  0.00     0.117 C 
HETATM   10  O   LIG     1      18.270  32.809  15.161  1.00  0.00    -0.274 OA
HETATM   11  H   LIG     1      16.264  33.296  12.659  1.00  0.00     0.169 HD
ENDBRANCH   1   7
TORSDOF 1
ENDMDL
MODEL 15
REMARK VINA RESULT:      -5.2      2.188      4.112
REMARK  1 active torsions:
REMARK  status: ('A' for Active; 'I' for Inactive)
REMARK       I    between atoms: C_2  and  N_3 
REMARK    1  A    between atoms: N_3  and  C_4 
ROOT
HETATM    1  C   LIG     1      17.281  36.752  23.084  1.00  0.00     0.034 A 
HETATM    2  C   LIG     1      17.659  36.478  21.756  1.00  0.00     0.029 A 
HETATM    3  C   LIG     1      17.896  37.525  20.861  1.00  0.00     0.002 A 
HETATM    4  C   LIG     1      17.773  38.852  21.283  1.00  0.00     0.000 A 
HETATM    5  C   LIG     1      17.420  39.132  22.605  1.00  0.00     0.002 A 
HETATM    6  C   LIG     1      17.182  38.088  23.504  1.00  0.00     0.029 A 
ENDROOT
BRANCH   1   7
HETATM    7  N   LIG     1      17.054  35.695  24.033  1.00  0.00    -0.328 N 
HETATM    8  C   LIG     1      17.594  35.679  25.365  1.00  0.00     0.218 C 
HETATM    9  C   LIG     1      17.122  34.668  26.359  1.00  0.00     0.117 C 
HETATM   10  O   LIG     1      18.498  36.490  25.701  1.00  0.00    -0.274 OA
HETATM   11  H   LIG     1      16.539  34.847  23.705  1.00  0.00     0.169 HD
ENDBRANCH   1   7
TORSDOF 1
ENDMDL
MODEL 16
REMARK VINA RESULT:      -5.2      3.136      4.539
REMARK  1 active torsions:
REMARK  status: ('A' for Active; 'I' for Inactive)
REMARK       I    between atoms: C_2  and  N_3 
REMARK    1  A    between atoms: N_3  and  C_4 
ROOT
HETATM    1  C   LIG     1      17.562  36.153  20.501  1.00  0.00     0.034 A 
HETATM    2  C   LIG     1      17.558  35.923  21.890  1.00  0.00     0.029 A 
HETATM    3  C   LIG     1      16.532  35.176  22.477  1.00  0.00     0.002 A 
HETATM    4  C   LIG     1      15.512  34.641  21.686  1.00  0.00     0.000 A 
HETATM    5  C   LIG     1      15.521  34.846  20.304  1.00  0.00     0.002 A 
HETATM    6  C   LIG     1      16.545  35.591  19.712  1.00  0.00     0.029 A 
ENDROOT
BRANCH   1   7
HETATM    7  N   LIG     1      18.617  36.896  19.866  1.00  0.00    -0.328 N 
HETATM    8  C   LIG     1      18.923  38.270  20.158  1.00  0.00     0.218 C 
HETATM    9  C   LIG     1      20.174  38.894  19.631  1.00  0.00     0.117 C 
HETATM   10  O   LIG     1      18.124  38.977  20.829  1.00  0.00    -0.274 OA
HETATM   11  H   LIG     1      19.136  36.437  19.083  1.00  0.00     0.169 HD
ENDBRANCH   1   7
TORSDOF 1
ENDMDL
MODEL 17
REMARK VINA RESULT:      -5.2      2.082      2.996
REMARK  1 active torsions:
REMARK  status: ('A' for Active; 'I' for Inactive)
REMARK       I    between atoms: C_2  and  N_3 
REMARK    1  A    between atoms: N_3  and  C_4 
ROOT
HETATM    1  C   LIG     1      16.703  37.311  22.475  1.00  0.00     0.034 A 
HETATM    2  C   LIG     1      17.500  38.121  21.644  1.00  0.00     0.029 A 
HETATM    3  C   LIG     1      18.486  38.944  22.198  1.00  0.00     0.002 A 
HETATM    4  C   LIG     1      18.695  38.957  23.579  1.00  0.00     0.000 A 
HETATM    5  C   LIG     1      17.924  38.140  24.408  1.00  0.00     0.002 A 
HETATM    6  C   LIG     1      16.938  37.315  23.860  1.00  0.00     0.029 A 
ENDROOT
BRANCH   1   7
HETATM    7  N   LIG     1      15.699  36.437  21.932  1.00  0.00    -0.328 N 
HETATM    8  C   LIG     1      15.924  35.055  21.607  1.00  0.00     0.218 C 
HETATM    9  C   LIG     1      14.775  34.161  21.271  1.00  0.00     0.117 C 
HETATM   10  O   LIG     1      17.094  34.589  21.563  1.00  0.00    -0.274 OA
HETATM   11  H   LIG     1      14.775  36.854  21.677  1.00  0.00     0.169 HD
ENDBRANCH   1   7
TORSDOF 1
ENDMDL
MODEL 18
REMARK VINA RESULT:      -5.0      8.651     11.978
REMARK  1 active torsions:
REMARK  status: ('A' for Active; 'I' for Inactive)
REMARK       I    between atoms: C_2  and  N_3 
REMARK    1  A    between atoms: N_3  and  C_4 
ROOT
HETATM    1  C   LIG     1      14.343  30.008  14.587  1.00  0.00     0.034 A 
HETATM    2  C   LIG     1      13.073  29.420  14.441  1.00  0.00     0.029 A 
HETATM    3  C   LIG     1      12.948  28.137  13.899  1.00  0.00     0.002 A 
HETATM    4  C   LIG     1      14.087  27.426  13.510  1.00  0.00     0.000 A 
HETATM    5  C   LIG     1      15.352  27.994  13.672  1.00  0.00     0.002 A 
HETATM    6  C   LIG     1      15.482  29.275  14.214  1.00  0.00     0.029 A 
ENDROOT
BRANCH   1   7
HETATM    7  N   LIG     1      14.504  31.316  15.164  1.00  0.00    -0.328 N 
HETATM    8  C   LIG     1      14.274  31.618  16.550  1.00  0.00     0.218 C 
HETATM    9  C   LIG     1      14.688  32.938  17.114  1.00  0.00     0.117 C 
HETATM   10  O   LIG     1      13.689  30.790  17.299  1.00  0.00    -0.274 OA
HETATM   11  H   LIG     1      14.714  32.111  14.520  1.00  0.00     0.169 HD
ENDBRANCH   1   7
TORSDOF 1
ENDMDL
MODEL 19
REMARK VINA RESULT:      -5.0      9.504     11.015
REMARK  1 active torsions:
REMARK  status: ('A' for Active; 'I' for Inactive)
REMARK       I    between atoms: C_2  and  N_3 
REMARK    1  A    between atoms: N_3  and  C_4 
ROOT
HETATM    1  C   LIG     1      17.058  32.763  13.510  1.00  0.00     0.034 A 
HETATM    2  C   LIG     1      16.052  31.788  13.370  1.00  0.00     0.029 A 
HETATM    3  C   LIG     1      15.246  31.445  14.461  1.00  0.00     0.002 A 
HETATM    4  C   LIG     1      15.427  32.078  15.693  1.00  0.00     0.000 A 
HETATM    5  C   LIG     1      16.408  33.062  15.834  1.00  0.00     0.002 A 
HETATM    6  C   LIG     1      17.215  33.409  14.747  1.00  0.00     0.029 A 
ENDROOT
BRANCH   1   7
HETATM    7  N   LIG     1      17.884  33.154  12.400  1.00  0.00    -0.328 N 
HETATM    8  C   LIG     1      17.955  34.491  11.879  1.00  0.00     0.218 C 
HETATM    9  C   LIG     1      19.006  34.860  10.884  1.00  0.00     0.117 C 
HETATM   10  O   LIG     1      17.110  35.360  12.225  1.00  0.00    -0.274 OA
HETATM   11  H   LIG     1      18.397  32.402  11.885  1.00  0.00     0.169 HD
ENDBRANCH   1   7
TORSDOF 1
ENDMDL
MODEL 20
REMARK VINA RESULT:      -4.8      9.786     11.402
REMARK  1 active torsions:
REMARK  status: ('A' for Active; 'I' for Inactive)
REMARK       I    between atoms: C_2  and  N_3 
REMARK    1  A    between atoms: N_3  and  C_4 
ROOT
HETATM    1  C   LIG     1      15.213  31.052  14.202  1.00  0.00     0.034 A 
HETATM    2  C   LIG     1      16.122  31.767  13.399  1.00  0.00     0.029 A 
HETATM    3  C   LIG     1      16.806  32.869  13.920  1.00  0.00     0.002 A 
HETATM    4  C   LIG     1      16.602  33.260  15.246  1.00  0.00     0.000 A 
HETATM    5  C   LIG     1      15.718  32.543  16.055  1.00  0.00     0.002 A 
HETATM    6  C   LIG     1      15.032  31.440  15.540  1.00  0.00     0.029 A 
ENDROOT
BRANCH   1   7
HETATM    7  N   LIG     1      14.513  29.900  13.701  1.00  0.00    -0.328 N 
HETATM    8  C   LIG     1      14.980  28.548  13.844  1.00  0.00     0.218 C 
HETATM    9  C   LIG     1      14.086  27.400  13.506  1.00  0.00     0.117 C 
HETATM   10  O   LIG     1      16.160  28.313  14.220  1.00  0.00    -0.274 OA
HETATM   11  H   LIG     1      13.659  30.062  13.121  1.00  0.00     0.169 HD
ENDBRANCH   1   7
TORSDOF 1
ENDMDL
