REMARK  2 active torsions:
REMARK  status: ('A' for Active; 'I' for Inactive)
REMARK       I    between atoms: C_2  and  N_3 
REMARK    1  A    between atoms: N_3  and  C_4 
REMARK    2  A    between atoms: C_9  and  O_10 
ROOT
HETATM    1  C   LIG     1       0.003   0.253  -0.429  1.00  0.00     0.034 A 
HETATM    2  C   LIG     1      -0.187  -1.004   0.172  1.00  0.00     0.032 A 
HETATM    3  C   LIG     1      -1.375  -1.289   0.852  1.00  0.00     0.039 A 
HETATM    4  C   LIG     1      -1.030   1.200  -0.374  1.00  0.00     0.032 A 
HETATM    5  C   LIG     1      -2.217   0.915   0.307  1.00  0.00     0.039 A 
HETATM    6  C   LIG     1      -2.391  -0.331   0.925  1.00  0.00     0.065 A 
ENDROOT
BRANCH   1   7
HETATM    7  N   LIG     1       1.203   0.557  -1.157  1.00  0.00    -0.328 N 
HETATM    8  C   LIG     1       2.526   0.179  -0.742  1.00  0.00     0.218 C 
HETATM    9  O   LIG     1       3.457   0.177  -1.590  1.00  0.00    -0.274 OA
HETATM   10  C   LIG     1       2.842  -0.185   0.677  1.00  0.00     0.117 C 
HETATM   11  H   LIG     1       1.118   1.143  -2.018  1.00  0.00     0.169 HD
ENDBRANCH   1   7
BRANCH   6  12
HETATM   12  O   LIG     1      -3.569  -0.627   1.607  1.00  0.00    -0.361 OA
HETATM   13  H   LIG     1      -4.324   0.045   1.677  1.00  0.00     0.217 HD
ENDBRANCH   6  12
TORSDOF 2
