REMARK  2 active torsions:
REMARK  status: ('A' for Active; 'I' for Inactive)
REMARK    1  A    between atoms: C_2  and  N_3 
REMARK    2  A    between atoms: N_3  and  C_4 
ROOT
HETATM    1  C   LIG     1      -0.297   0.101  -0.519  1.00  0.00     0.027 A 
HETATM    2  C   LIG     1      -1.125   1.064  -1.120  1.00  0.00     0.029 A 
HETATM    3  C   LIG     1      -2.400   1.326  -0.607  1.00  0.00     0.002 A 
HETATM    4  C   LIG     1      -2.863   0.625   0.508  1.00  0.00     0.000 A 
HETATM    5  C   LIG     1      -2.054  -0.341   1.110  1.00  0.00     0.002 A 
HETATM    6  C   LIG     1      -0.778  -0.606   0.602  1.00  0.00     0.029 A 
ENDROOT
BRANCH   1   7
HETATM    7  N   LIG     1       1.008  -0.148  -1.078  1.00  0.00    -0.390 N 
HETATM    8  H   LIG     1       1.246   0.290  -1.997  1.00  0.00     0.159 HD
BRANCH   7   9
HETATM    9  C   LIG     1       2.043  -0.968  -0.446  1.00  0.00     0.115 C 
HETATM   10  C   LIG     1       2.630  -0.258   0.770  1.00  0.00     0.026 C 
ENDBRANCH   7   9
ENDBRANCH   1   7
TORSDOF 2
