MODEL 1
REMARK VINA RESULT:      -6.6      0.000      0.000
REMARK  2 active torsions:
REMARK  status: ('A' for Active; 'I' for Inactive)
REMARK       I    between atoms: C_2  and  N_3 
REMARK    1  A    between atoms: N_3  and  C_4 
REMARK    2  A    between atoms: C_9  and  O_10 
ROOT
HETATM    1  C   LIG     1      17.140  37.787  22.633  1.00  0.00     0.034 A 
HETATM    2  C   LIG     1      16.866  36.497  22.144  1.00  0.00     0.032 A 
HETATM    3  C   LIG     1      17.419  36.069  20.933  1.00  0.00     0.039 A 
HETATM    4  C   LIG     1      18.006  38.621  21.912  1.00  0.00     0.032 A 
HETATM    5  C   LIG     1      18.557  38.194  20.700  1.00  0.00     0.039 A 
HETATM    6  C   LIG     1      18.261  36.916  20.206  1.00  0.00     0.065 A 
ENDROOT
BRANCH   1   7
HETATM    7  N   LIG     1      16.607  38.236  23.889  1.00  0.00    -0.328 N 
HETATM    8  C   LIG     1      17.274  38.096  25.154  1.00  0.00     0.218 C 
HETATM    9  O   LIG     1      16.906  38.812  26.123  1.00  0.00    -0.274 OA
HETATM   10  C   LIG     1      18.376  37.103  25.368  1.00  0.00     0.117 C 
HETATM   11  H   LIG     1      15.644  38.641  23.895  1.00  0.00     0.169 HD
ENDBRANCH   1   7
BRANCH   6  12
HETATM   12  O   LIG     1      18.803  36.478  19.000  1.00  0.00    -0.361 OA
HETATM   13  H   LIG     1      19.182  35.544  18.897  1.00  0.00     0.217 HD
ENDBRANCH   6  12
TORSDOF 2
ENDMDL
MODEL 2
REMARK VINA RESULT:      -6.3      2.959      3.638
REMARK  2 active torsions:
REMARK  status: ('A' for Active; 'I' for Inactive)
REMARK       I    between atoms: C_2  and  N_3 
REMARK    1  A    between atoms: N_3  and  C_4 
REMARK    2  A    between atoms: C_9  and  O_10 
ROOT
HETATM    1  C   LIG     1      17.725  37.265  21.126  1.00  0.00     0.034 A 
HETATM    2  C   LIG     1      18.524  36.680  20.128  1.00  0.00     0.032 A 
HETATM    3  C   LIG     1      19.465  37.448  19.436  1.00  0.00     0.039 A 
HETATM    4  C   LIG     1      17.915  38.617  21.448  1.00  0.00     0.032 A 
HETATM    5  C   LIG     1      18.856  39.385  20.756  1.00  0.00     0.039 A 
HETATM    6  C   LIG     1      19.632  38.802  19.744  1.00  0.00     0.065 A 
ENDROOT
BRANCH   1   7
HETATM    7  N   LIG     1      16.773  36.489  21.869  1.00  0.00    -0.328 N 
HETATM    8  C   LIG     1      15.994  35.412  21.321  1.00  0.00     0.218 C 
HETATM    9  O   LIG     1      15.461  34.582  22.103  1.00  0.00    -0.274 OA
HETATM   10  C   LIG     1      15.770  35.262  19.847  1.00  0.00     0.117 C 
HETATM   11  H   LIG     1      16.588  36.760  22.861  1.00  0.00     0.169 HD
ENDBRANCH   1   7
BRANCH   6  12
HETATM   12  O   LIG     1      20.572  39.556  19.047  1.00  0.00    -0.361 OA
HETATM   13  H   LIG     1      21.565  39.460  19.223  1.00  0.00     0.217 HD
ENDBRANCH   6  12
TORSDOF 2
ENDMDL
MODEL 3
REMARK VINA RESULT:      -6.3      1.708      2.469
REMARK  2 active torsions:
REMARK  status: ('A' for Active; 'I' for Inactive)
REMARK       I    between atoms: C_2  and  N_3 
REMARK    1  A    between atoms: N_3  and  C_4 
REMARK    2  A    between atoms: C_9  and  O_10 
ROOT
HETATM    1  C   LIG     1      17.804  37.886  21.359  1.00  0.00     0.034 A 
HETATM    2  C   LIG     1      18.263  39.216  21.361  1.00  0.00     0.032 A 
HETATM    3  C   LIG     1      19.251  39.623  20.461  1.00  0.00     0.039 A 
HETATM    4  C   LIG     1      18.319  36.987  20.414  1.00  0.00     0.032 A 
HETATM    5  C   LIG     1      19.309  37.395  19.515  1.00  0.00     0.039 A 
HETATM    6  C   LIG     1      19.780  38.715  19.538  1.00  0.00     0.065 A 
ENDROOT
BRANCH   1   7
HETATM    7  N   LIG     1      16.769  37.454  22.256  1.00  0.00    -0.328 N 
HETATM    8  C   LIG     1      16.755  37.711  23.670  1.00  0.00     0.218 C 
HETATM    9  O   LIG     1      15.671  37.606  24.301  1.00  0.00    -0.274 OA
HETATM   10  C   LIG     1      17.998  38.071  24.425  1.00  0.00     0.117 C 
HETATM   11  H   LIG     1      16.001  36.862  21.867  1.00  0.00     0.169 HD
ENDBRANCH   1   7
BRANCH   6  12
HETATM   12  O   LIG     1      20.765  39.133  18.647  1.00  0.00    -0.361 OA
HETATM   13  H   LIG     1      21.510  38.513  18.351  1.00  0.00     0.217 HD
ENDBRANCH   6  12
TORSDOF 2
ENDMDL
MODEL 4
REMARK VINA RESULT:      -6.3      1.870      4.842
REMARK  2 active torsions:
REMARK  status: ('A' for Active; 'I' for Inactive)
REMARK       I    between atoms: C_2  and  N_3 
REMARK    1  A    between atoms: N_3  and  C_4 
REMARK    2  A    between atoms: C_9  and  O_10 
ROOT
HETATM    1  C   LIG     1      16.803  36.108  23.196  1.00  0.00     0.034 A 
HETATM    2  C   LIG     1      17.137  35.088  24.104  1.00  0.00     0.032 A 
HETATM    3  C   LIG     1      17.760  35.397  25.317  1.00  0.00     0.039 A 
HETATM    4  C   LIG     1      17.064  37.442  23.542  1.00  0.00     0.032 A 
HETATM    5  C   LIG     1      17.688  37.751  24.754  1.00  0.00     0.039 A 
HETATM    6  C   LIG     1      18.040  36.728  25.644  1.00  0.00     0.065 A 
ENDROOT
BRANCH   1   7
HETATM    7  N   LIG     1      16.137  35.816  21.958  1.00  0.00    -0.328 N 
HETATM    8  C   LIG     1      16.780  35.792  20.673  1.00  0.00     0.218 C 
HETATM    9  O   LIG     1      16.215  35.199  19.716  1.00  0.00    -0.274 OA
HETATM   10  C   LIG     1      18.089  36.478  20.424  1.00  0.00     0.117 C 
HETATM   11  H   LIG     1      15.103  35.666  21.982  1.00  0.00     0.169 HD
ENDBRANCH   1   7
BRANCH   6  12
HETATM   12  O   LIG     1      18.663  37.022  26.855  1.00  0.00    -0.361 OA
HETATM   13  H   LIG     1      19.594  36.684  27.069  1.00  0.00     0.217 HD
ENDBRANCH   6  12
TORSDOF 2
ENDMDL
MODEL 5
REMARK VINA RESULT:      -6.2      7.304      8.871
REMARK  2 active torsions:
REMARK  status: ('A' for Active; 'I' for Inactive)
REMARK       I    between atoms: C_2  and  N_3 
REMARK    1  A    between atoms: N_3  and  C_4 
REMARK    2  A    between atoms: C_9  and  O_10 
ROOT
HETATM    1  C   LIG     1      14.516  32.282  16.825  1.00  0.00     0.034 A 
HETATM    2  C   LIG     1      15.456  32.059  15.803  1.00  0.00     0.032 A 
HETATM    3  C   LIG     1      15.220  31.086  14.827  1.00  0.00     0.039 A 
HETATM    4  C   LIG     1      13.321  31.548  16.827  1.00  0.00     0.032 A 
HETATM    5  C   LIG     1      13.086  30.574  15.851  1.00  0.00     0.039 A 
HETATM    6  C   LIG     1      14.038  30.339  14.849  1.00  0.00     0.065 A 
ENDROOT
BRANCH   1   7
HETATM    7  N   LIG     1      14.724  33.296  17.821  1.00  0.00    -0.328 N 
HETATM    8  C   LIG     1      15.311  33.062  19.111  1.00  0.00     0.218 C 
HETATM    9  O   LIG     1      15.767  34.038  19.763  1.00  0.00    -0.274 OA
HETATM   10  C   LIG     1      15.373  31.695  19.722  1.00  0.00     0.117 C 
HETATM   11  H   LIG     1      14.373  34.259  17.619  1.00  0.00     0.169 HD
ENDBRANCH   1   7
BRANCH   6  12
HETATM   12  O   LIG     1      13.816  29.372  13.872  1.00  0.00    -0.361 OA
HETATM   13  H   LIG     1      13.618  28.409  14.115  1.00  0.00     0.217 HD
ENDBRANCH   6  12
TORSDOF 2
ENDMDL
MODEL 6
REMARK VINA RESULT:      -6.1      2.023      4.942
REMARK  2 active torsions:
REMARK  status: ('A' for Active; 'I' for Inactive)
REMARK       I    between atoms: C_2  and  N_3 
REMARK    1  A    between atoms: N_3  and  C_4 
REMARK    2  A    between atoms: C_9  and  O_10 
ROOT
HETATM    1  C   LIG     1      17.092  36.591  22.067  1.00  0.00     0.034 A 
HETATM    2  C   LIG     1      17.164  37.995  22.081  1.00  0.00     0.032 A 
HETATM    3  C   LIG     1      17.216  38.687  23.295  1.00  0.00     0.039 A 
HETATM    4  C   LIG     1      17.117  35.893  23.283  1.00  0.00     0.032 A 
HETATM    5  C   LIG     1      17.168  36.585  24.497  1.00  0.00     0.039 A 
HETATM    6  C   LIG     1      17.215  37.986  24.505  1.00  0.00     0.065 A 
ENDROOT
BRANCH   1   7
HETATM    7  N   LIG     1      17.067  35.859  20.832  1.00  0.00    -0.328 N 
HETATM    8  C   LIG     1      15.950  35.082  20.367  1.00  0.00     0.218 C 
HETATM    9  O   LIG     1      15.884  34.773  19.149  1.00  0.00    -0.274 OA
HETATM   10  C   LIG     1      14.874  34.602  21.293  1.00  0.00     0.117 C 
HETATM   11  H   LIG     1      17.939  35.839  20.256  1.00  0.00     0.169 HD
ENDBRANCH   1   7
BRANCH   6  12
HETATM   12  O   LIG     1      17.265  38.688  25.707  1.00  0.00    -0.361 OA
HETATM   13  H   LIG     1      16.525  39.322  25.983  1.00  0.00     0.217 HD
ENDBRANCH   6  12
TORSDOF 2
ENDMDL
MODEL 7
REMARK VINA RESULT:      -5.9      2.127      4.865
REMARK  2 active torsions:
REMARK  status: ('A' for Active; 'I' for Inactive)
REMARK       I    between atoms: C_2  and  N_3 
REMARK    1  A    between atoms: N_3  and  C_4 
REMARK    2  A    between atoms: C_9  and  O_10 
ROOT
HETATM    1  C   LIG     1      18.361  39.104  21.989  1.00  0.00     0.034 A 
HETATM    2  C   LIG     1      19.125  38.877  23.147  1.00  0.00     0.032 A 
HETATM    3  C   LIG     1      18.540  38.297  24.276  1.00  0.00     0.039 A 
HETATM    4  C   LIG     1      17.017  38.703  21.967  1.00  0.00     0.032 A 
HETATM    5  C   LIG     1      16.432  38.125  23.097  1.00  0.00     0.039 A 
HETATM    6  C   LIG     1      17.193  37.923  24.257  1.00  0.00     0.065 A 
ENDROOT
BRANCH   1   7
HETATM    7  N   LIG     1      18.948  39.671  20.807  1.00  0.00    -0.328 N 
HETATM    8  C   LIG     1      19.224  38.939  19.602  1.00  0.00     0.218 C 
HETATM    9  O   LIG     1      19.406  39.572  18.529  1.00  0.00    -0.274 OA
HETATM   10  C   LIG     1      19.332  37.445  19.585  1.00  0.00     0.117 C 
HETATM   11  H   LIG     1      19.251  40.671  20.843  1.00  0.00     0.169 HD
ENDBRANCH   1   7
BRANCH   6  12
HETATM   12  O   LIG     1      16.621  37.348  25.390  1.00  0.00    -0.361 OA
HETATM   13  H   LIG     1      15.873  37.805  25.896  1.00  0.00     0.217 HD
ENDBRANCH   6  12
TORSDOF 2
ENDMDL
MODEL 8
REMARK VINA RESULT:      -5.8      9.781     11.975
REMARK  2 active torsions:
REMARK  status: ('A' for Active; 'I' for Inactive)
REMARK       I    between atoms: C_2  and  N_3 
REMARK    1  A    between atoms: N_3  and  C_4 
REMARK    2  A    between atoms: C_9  and  O_10 
ROOT
HETATM    1  C   LIG     1      13.562  30.065  14.850  1.00  0.00     0.034 A 
HETATM    2  C   LIG     1      13.168  30.623  16.079  1.00  0.00     0.032 A 
HETATM    3  C   LIG     1      13.957  31.598  16.697  1.00  0.00     0.039 A 
HETATM    4  C   LIG     1      14.732  30.529  14.232  1.00  0.00     0.032 A 
HETATM    5  C   LIG     1      15.521  31.503  14.850  1.00  0.00     0.039 A 
HETATM    6  C   LIG     1      15.137  32.038  16.087  1.00  0.00     0.065 A 
ENDROOT
BRANCH   1   7
HETATM    7  N   LIG     1      12.752  29.083  14.184  1.00  0.00    -0.328 N 
HETATM    8  C   LIG     1      13.207  27.775  13.802  1.00  0.00     0.218 C 
HETATM    9  O   LIG     1      12.357  26.880  13.550  1.00  0.00    -0.274 OA
HETATM   10  C   LIG     1      14.663  27.446  13.664  1.00  0.00     0.117 C 
HETATM   11  H   LIG     1      11.783  29.356  13.905  1.00  0.00     0.169 HD
ENDBRANCH   1   7
BRANCH   6  12
HETATM   12  O   LIG     1      15.915  33.009  16.714  1.00  0.00    -0.361 OA
HETATM   13  H   LIG     1      16.747  32.765  17.238  1.00  0.00     0.217 HD
ENDBRANCH   6  12
TORSDOF 2
ENDMDL
MODEL 9
REMARK VINA RESULT:      -5.7      1.708      4.936
REMARK  2 active torsions:
REMARK  status: ('A' for Active; 'I' for Inactive)
REMARK       I    between atoms: C_2  and  N_3 
REMARK    1  A    between atoms: N_3  and  C_4 
REMARK    2  A    between atoms: C_9  and  O_10 
ROOT
HETATM    1  C   LIG     1      17.088  36.401  22.108  1.00  0.00     0.034 A 
HETATM    2  C   LIG     1      17.172  37.637  22.773  1.00  0.00     0.032 A 
HETATM    3  C   LIG     1      17.259  37.684  24.167  1.00  0.00     0.039 A 
HETATM    4  C   LIG     1      17.136  35.217  22.858  1.00  0.00     0.032 A 
HETATM    5  C   LIG     1      17.221  35.265  24.252  1.00  0.00     0.039 A 
HETATM    6  C   LIG     1      17.281  36.501  24.911  1.00  0.00     0.065 A 
ENDROOT
BRANCH   1   7
HETATM    7  N   LIG     1      17.027  36.328  20.675  1.00  0.00    -0.328 N 
HETATM    8  C   LIG     1      18.028  36.855  19.789  1.00  0.00     0.218 C 
HETATM    9  O   LIG     1      18.068  36.448  18.598  1.00  0.00    -0.274 OA
HETATM   10  C   LIG     1      19.011  37.898  20.227  1.00  0.00     0.117 C 
HETATM   11  H   LIG     1      16.170  35.917  20.242  1.00  0.00     0.169 HD
ENDBRANCH   1   7
BRANCH   6  12
HETATM   12  O   LIG     1      17.366  36.561  26.300  1.00  0.00    -0.361 OA
HETATM   13  H   LIG     1      18.175  36.209  26.797  1.00  0.00     0.217 HD
ENDBRANCH   6  12
TORSDOF 2
ENDMDL
MODEL 10
REMARK VINA RESULT:      -5.4      3.024      4.316
REMARK  2 active torsions:
REMARK  status: ('A' for Active; 'I' for Inactive)
REMARK       I    between atoms: C_2  and  N_3 
REMARK    1  A    between atoms: N_3  and  C_4 
REMARK    2  A    between atoms: C_9  and  O_10 
ROOT
HETATM    1  C   LIG     1      17.377  37.262  21.405  1.00  0.00     0.034 A 
HETATM    2  C   LIG     1      16.215  37.579  22.132  1.00  0.00     0.032 A 
HETATM    3  C   LIG     1      15.149  36.676  22.188  1.00  0.00     0.039 A 
HETATM    4  C   LIG     1      17.469  36.013  20.775  1.00  0.00     0.032 A 
HETATM    5  C   LIG     1      16.402  35.111  20.830  1.00  0.00     0.039 A 
HETATM    6  C   LIG     1      15.237  35.442  21.535  1.00  0.00     0.065 A 
ENDROOT
BRANCH   1   7
HETATM    7  N   LIG     1      18.495  38.162  21.358  1.00  0.00    -0.328 N 
HETATM    8  C   LIG     1      19.097  38.651  20.148  1.00  0.00     0.218 C 
HETATM    9  O   LIG     1      19.822  39.680  20.197  1.00  0.00    -0.274 OA
HETATM   10  C   LIG     1      18.915  37.958  18.832  1.00  0.00     0.117 C 
HETATM   11  H   LIG     1      18.940  38.437  22.263  1.00  0.00     0.169 HD
ENDBRANCH   1   7
BRANCH   6  12
HETATM   12  O   LIG     1      14.168  34.552  21.598  1.00  0.00    -0.361 OA
HETATM   13  H   LIG     1      14.289  33.564  21.412  1.00  0.00     0.217 HD
ENDBRANCH   6  12
TORSDOF 2
ENDMDL
MODEL 11
REMARK VINA RESULT:      -5.3      8.563     10.492
REMARK  2 active torsions:
REMARK  status: ('A' for Active; 'I' for Inactive)
REMARK       I    between atoms: C_2  and  N_3 
REMARK    1  A    between atoms: N_3  and  C_4 
REMARK    2  A    between atoms: C_9  and  O_10 
ROOT
HETATM    1  C   LIG     1      15.214  31.737  15.503  1.00  0.00     0.034 A 
HETATM    2  C   LIG     1      15.629  30.961  14.405  1.00  0.00     0.032 A 
HETATM    3  C   LIG     1      14.824  29.920  13.933  1.00  0.00     0.039 A 
HETATM    4  C   LIG     1      13.966  31.480  16.089  1.00  0.00     0.032 A 
HETATM    5  C   LIG     1      13.163  30.438  15.616  1.00  0.00     0.039 A 
HETATM    6  C   LIG     1      13.592  29.653  14.537  1.00  0.00     0.065 A 
ENDROOT
BRANCH   1   7
HETATM    7  N   LIG     1      16.011  32.829  15.987  1.00  0.00    -0.328 N 
HETATM    8  C   LIG     1      16.814  33.683  15.155  1.00  0.00     0.218 C 
HETATM    9  O   LIG     1      17.188  34.799  15.604  1.00  0.00    -0.274 OA
HETATM   10  C   LIG     1      17.248  33.276  13.780  1.00  0.00     0.117 C 
HETATM   11  H   LIG     1      16.058  32.981  17.020  1.00  0.00     0.169 HD
ENDBRANCH   1   7
BRANCH   6  12
HETATM   12  O   LIG     1      12.801  28.612  14.058  1.00  0.00    -0.361 OA
HETATM   13  H   LIG     1      12.355  27.953  14.685  1.00  0.00     0.217 HD
ENDBRANCH   6  12
TORSDOF 2
ENDMDL
MODEL 12
REMARK VINA RESULT:      -5.3      9.656     11.893
REMARK  2 active torsions:
REMARK  status: ('A' for Active; 'I' for Inactive)
REMARK       I    between atoms: C_2  and  N_3 
REMARK    1  A    between atoms: N_3  and  C_4 
REMARK    2  A    between atoms: C_9  and  O_10 
ROOT
HETATM    1  C   LIG     1      14.207  30.256  14.449  1.00  0.00     0.034 A 
HETATM    2  C   LIG     1      15.229  30.847  13.685  1.00  0.00     0.032 A 
HETATM    3  C   LIG     1      15.988  31.895  14.213  1.00  0.00     0.039 A 
HETATM    4  C   LIG     1      13.988  30.703  15.760  1.00  0.00     0.032 A 
HETATM    5  C   LIG     1      14.747  31.753  16.287  1.00  0.00     0.039 A 
HETATM    6  C   LIG     1      15.748  32.354  15.512  1.00  0.00     0.065 A 
ENDROOT
BRANCH   1   7
HETATM    7  N   LIG     1      13.434  29.159  13.938  1.00  0.00    -0.328 N 
HETATM    8  C   LIG     1      13.932  27.823  13.762  1.00  0.00     0.218 C 
HETATM    9  O   LIG     1      13.113  26.873  13.646  1.00  0.00    -0.274 OA
HETATM   10  C   LIG     1      15.399  27.524  13.680  1.00  0.00     0.117 C 
HETATM   11  H   LIG     1      12.459  29.355  13.617  1.00  0.00     0.169 HD
ENDBRANCH   1   7
BRANCH   6  12
HETATM   12  O   LIG     1      16.511  33.400  16.025  1.00  0.00    -0.361 OA
HETATM   13  H   LIG     1      17.078  33.285  16.857  1.00  0.00     0.217 HD
ENDBRANCH   6  12
TORSDOF 2
ENDMDL
MODEL 13
REMARK VINA RESULT:      -5.2      8.026      9.614
REMARK  2 active torsions:
REMARK  status: ('A' for Active; 'I' for Inactive)
REMARK       I    between atoms: C_2  and  N_3 
REMARK    1  A    between atoms: N_3  and  C_4 
REMARK    2  A    between atoms: C_9  and  O_10 
ROOT
HETATM    1  C   LIG     1      14.730  31.886  15.795  1.00  0.00     0.034 A 
HETATM    2  C   LIG     1      13.705  30.937  15.953  1.00  0.00     0.032 A 
HETATM    3  C   LIG     1      13.634  29.826  15.107  1.00  0.00     0.039 A 
HETATM    4  C   LIG     1      15.704  31.681  14.807  1.00  0.00     0.032 A 
HETATM    5  C   LIG     1      15.632  30.571  13.960  1.00  0.00     0.039 A 
HETATM    6  C   LIG     1      14.594  29.641  14.107  1.00  0.00     0.065 A 
ENDROOT
BRANCH   1   7
HETATM    7  N   LIG     1      14.839  33.019  16.671  1.00  0.00    -0.328 N 
HETATM    8  C   LIG     1      15.091  32.936  18.083  1.00  0.00     0.218 C 
HETATM    9  O   LIG     1      15.510  33.956  18.691  1.00  0.00    -0.274 OA
HETATM   10  C   LIG     1      14.844  31.681  18.864  1.00  0.00     0.117 C 
HETATM   11  H   LIG     1      14.665  33.967  16.268  1.00  0.00     0.169 HD
ENDBRANCH   1   7
BRANCH   6  12
HETATM   12  O   LIG     1      14.511  28.531  13.270  1.00  0.00    -0.361 OA
HETATM   13  H   LIG     1      13.919  27.740  13.495  1.00  0.00     0.217 HD
ENDBRANCH   6  12
TORSDOF 2
ENDMDL
MODEL 14
REMARK VINA RESULT:      -5.2      3.513      5.850
REMARK  2 active torsions:
REMARK  status: ('A' for Active; 'I' for Inactive)
REMARK       I    between atoms: C_2  and  N_3 
REMARK    1  A    between atoms: N_3  and  C_4 
REMARK    2  A    between atoms: C_9  and  O_10 
ROOT
HETATM    1  C   LIG     1      15.774  35.305  20.003  1.00  0.00     0.034 A 
HETATM    2  C   LIG     1      17.079  35.727  20.311  1.00  0.00     0.032 A 
HETATM    3  C   LIG     1      17.329  36.453  21.480  1.00  0.00     0.039 A 
HETATM    4  C   LIG     1      14.735  35.584  20.903  1.00  0.00     0.032 A 
HETATM    5  C   LIG     1      14.985  36.311  22.071  1.00  0.00     0.039 A 
HETATM    6  C   LIG     1      16.284  36.750  22.361  1.00  0.00     0.065 A 
ENDROOT
BRANCH   1   7
HETATM    7  N   LIG     1      15.499  34.534  18.823  1.00  0.00    -0.328 N 
HETATM    8  C   LIG     1      15.229  33.123  18.817  1.00  0.00     0.218 C 
HETATM    9  O   LIG     1      14.668  32.611  17.812  1.00  0.00    -0.274 OA
HETATM   10  C   LIG     1      15.622  32.231  19.955  1.00  0.00     0.117 C 
HETATM   11  H   LIG     1      15.555  35.018  17.899  1.00  0.00     0.169 HD
ENDBRANCH   1   7
BRANCH   6  12
HETATM   12  O   LIG     1      16.547  37.475  23.521  1.00  0.00    -0.361 OA
HETATM   13  H   LIG     1      17.179  37.127  24.232  1.00  0.00     0.217 HD
ENDBRANCH   6  12
TORSDOF 2
ENDMDL
MODEL 15
REMARK VINA RESULT:      -5.2      9.443     11.701
REMARK  2 active torsions:
REMARK  status: ('A' for Active; 'I' for Inactive)
REMARK       I    between atoms: C_2  and  N_3 
REMARK    1  A    between atoms: N_3  and  C_4 
REMARK    2  A    between atoms: C_9  and  O_10 
ROOT
HETATM    1  C   LIG     1      13.458  30.229  15.281  1.00  0.00     0.034 A 
HETATM    2  C   LIG     1      14.541  30.922  14.712  1.00  0.00     0.032 A 
HETATM    3  C   LIG     1      15.263  31.848  15.470  1.00  0.00     0.039 A 
HETATM    4  C   LIG     1      13.140  30.447  16.630  1.00  0.00     0.032 A 
HETATM    5  C   LIG     1      13.861  31.375  17.387  1.00  0.00     0.039 A 
HETATM    6  C   LIG     1      14.924  32.080  16.807  1.00  0.00     0.065 A 
ENDROOT
BRANCH   1   7
HETATM    7  N   LIG     1      12.720  29.252  14.530  1.00  0.00    -0.328 N 
HETATM    8  C   LIG     1      13.283  28.045  13.990  1.00  0.00     0.218 C 
HETATM    9  O   LIG     1      12.513  27.104  13.661  1.00  0.00    -0.274 OA
HETATM   10  C   LIG     1      14.757  27.878  13.777  1.00  0.00     0.117 C 
HETATM   11  H   LIG     1      11.720  29.457  14.310  1.00  0.00     0.169 HD
ENDBRANCH   1   7
BRANCH   6  12
HETATM   12  O   LIG     1      15.651  33.007  17.550  1.00  0.00    -0.361 OA
HETATM   13  H   LIG     1      16.313  32.716  18.260  1.00  0.00     0.217 HD
ENDBRANCH   6  12
TORSDOF 2
ENDMDL
MODEL 16
REMARK VINA RESULT:      -5.1      8.540     10.066
REMARK  2 active torsions:
REMARK  status: ('A' for Active; 'I' for Inactive)
REMARK       I    between atoms: C_2  and  N_3 
REMARK    1  A    between atoms: N_3  and  C_4 
REMARK    2  A    between atoms: C_9  and  O_10 
ROOT
HETATM    1  C   LIG     1      15.736  32.524  15.766  1.00  0.00     0.034 A 
HETATM    2  C   LIG     1      14.882  32.886  16.823  1.00  0.00     0.032 A 
HETATM    3  C   LIG     1      13.741  32.128  17.100  1.00  0.00     0.039 A 
HETATM    4  C   LIG     1      15.452  31.370  15.022  1.00  0.00     0.032 A 
HETATM    5  C   LIG     1      14.310  30.612  15.299  1.00  0.00     0.039 A 
HETATM    6  C   LIG     1      13.449  30.992  16.337  1.00  0.00     0.065 A 
ENDROOT
BRANCH   1   7
HETATM    7  N   LIG     1      16.929  33.272  15.483  1.00  0.00    -0.328 N 
HETATM    8  C   LIG     1      17.391  33.599  14.162  1.00  0.00     0.218 C 
HETATM    9  O   LIG     1      18.228  34.530  14.019  1.00  0.00    -0.274 OA
HETATM   10  C   LIG     1      16.933  32.849  12.949  1.00  0.00     0.117 C 
HETATM   11  H   LIG     1      17.536  33.548  16.287  1.00  0.00     0.169 HD
ENDBRANCH   1   7
BRANCH   6  12
HETATM   12  O   LIG     1      12.307  30.246  16.622  1.00  0.00    -0.361 OA
HETATM   13  H   LIG     1      11.777  29.789  15.890  1.00  0.00     0.217 HD
ENDBRANCH   6  12
TORSDOF 2
ENDMDL
MODEL 17
REMARK VINA RESULT:      -5.1      3.084      4.286
REMARK  2 active torsions:
REMARK  status: ('A' for Active; 'I' for Inactive)
REMARK       I    between atoms: C_2  and  N_3 
REMARK    1  A    between atoms: N_3  and  C_4 
REMARK    2  A    between atoms: C_9  and  O_10 
ROOT
HETATM    1  C   LIG     1      17.414  36.189  20.527  1.00  0.00     0.034 A 
HETATM    2  C   LIG     1      17.208  35.828  21.870  1.00  0.00     0.032 A 
HETATM    3  C   LIG     1      16.148  34.986  22.220  1.00  0.00     0.039 A 
HETATM    4  C   LIG     1      16.569  35.660  19.540  1.00  0.00     0.032 A 
HETATM    5  C   LIG     1      15.508  34.820  19.891  1.00  0.00     0.039 A 
HETATM    6  C   LIG     1      15.293  34.483  21.234  1.00  0.00     0.065 A 
ENDROOT
BRANCH   1   7
HETATM    7  N   LIG     1      18.514  37.028  20.141  1.00  0.00    -0.328 N 
HETATM    8  C   LIG     1      18.803  38.310  20.721  1.00  0.00     0.218 C 
HETATM    9  O   LIG     1      19.952  38.803  20.576  1.00  0.00    -0.274 OA
HETATM   10  C   LIG     1      17.770  39.097  21.469  1.00  0.00     0.117 C 
HETATM   11  H   LIG     1      19.113  36.714  19.345  1.00  0.00     0.169 HD
ENDBRANCH   1   7
BRANCH   6  12
HETATM   12  O   LIG     1      14.239  33.648  21.597  1.00  0.00    -0.361 OA
HETATM   13  H   LIG     1      14.014  32.817  21.063  1.00  0.00     0.217 HD
ENDBRANCH   6  12
TORSDOF 2
ENDMDL
MODEL 18
REMARK VINA RESULT:      -5.0      2.417      3.030
REMARK  2 active torsions:
REMARK  status: ('A' for Active; 'I' for Inactive)
REMARK       I    between atoms: C_2  and  N_3 
REMARK    1  A    between atoms: N_3  and  C_4 
REMARK    2  A    between atoms: C_9  and  O_10 
ROOT
HETATM    1  C   LIG     1      16.576  36.647  22.044  1.00  0.00     0.034 A 
HETATM    2  C   LIG     1      15.177  36.647  21.895  1.00  0.00     0.032 A 
HETATM    3  C   LIG     1      14.523  35.525  21.377  1.00  0.00     0.039 A 
HETATM    4  C   LIG     1      17.299  35.493  21.707  1.00  0.00     0.032 A 
HETATM    5  C   LIG     1      16.644  34.373  21.188  1.00  0.00     0.039 A 
HETATM    6  C   LIG     1      15.253  34.387  21.019  1.00  0.00     0.065 A 
ENDROOT
BRANCH   1   7
HETATM    7  N   LIG     1      17.265  37.776  22.601  1.00  0.00    -0.328 N 
HETATM    8  C   LIG     1      17.756  37.848  23.950  1.00  0.00     0.218 C 
HETATM    9  O   LIG     1      18.632  38.706  24.239  1.00  0.00    -0.274 OA
HETATM   10  C   LIG     1      17.238  36.953  25.035  1.00  0.00     0.117 C 
HETATM   11  H   LIG     1      17.368  38.629  22.006  1.00  0.00     0.169 HD
ENDBRANCH   1   7
BRANCH   6  12
HETATM   12  O   LIG     1      14.589  33.277  20.502  1.00  0.00    -0.361 OA
HETATM   13  H   LIG     1      14.672  33.016  19.527  1.00  0.00     0.217 HD
ENDBRANCH   6  12
TORSDOF 2
ENDMDL
MODEL 19
REMARK VINA RESULT:      -4.8      9.840     12.171
REMARK  2 active torsions:
REMARK  status: ('A' for Active; 'I' for Inactive)
REMARK       I    between atoms: C_2  and  N_3 
REMARK    1  A    between atoms: N_3  and  C_4 
REMARK    2  A    between atoms: C_9  and  O_10 
ROOT
HETATM    1  C   LIG     1      14.796  30.181  14.227  1.00  0.00     0.034 A 
HETATM    2  C   LIG     1      13.514  29.843  14.696  1.00  0.00     0.032 A 
HETATM    3  C   LIG     1      12.976  30.493  15.810  1.00  0.00     0.039 A 
HETATM    4  C   LIG     1      15.508  31.206  14.866  1.00  0.00     0.032 A 
HETATM    5  C   LIG     1      14.970  31.855  15.981  1.00  0.00     0.039 A 
HETATM    6  C   LIG     1      13.702  31.497  16.458  1.00  0.00     0.065 A 
ENDROOT
BRANCH   1   7
HETATM    7  N   LIG     1      15.356  29.547  13.067  1.00  0.00    -0.328 N 
HETATM    8  C   LIG     1      15.636  28.141  12.962  1.00  0.00     0.218 C 
HETATM    9  O   LIG     1      15.791  27.631  11.821  1.00  0.00    -0.274 OA
HETATM   10  C   LIG     1      15.780  27.265  14.170  1.00  0.00     0.117 C 
HETATM   11  H   LIG     1      15.635  30.154  12.264  1.00  0.00     0.169 HD
ENDBRANCH   1   7
BRANCH   6  12
HETATM   12  O   LIG     1      13.155  32.136  17.568  1.00  0.00    -0.361 OA
HETATM   13  H   LIG     1      13.740  32.571  18.271  1.00  0.00     0.217 HD
ENDBRANCH   6  12
TORSDOF 2
ENDMDL
MODEL 20
REMARK VINA RESULT:      -4.7      9.327     10.717
REMARK  2 active torsions:
REMARK  status: ('A' for Active; 'I' for Inactive)
REMARK       I    between atoms: C_2  and  N_3 
REMARK    1  A    between atoms: N_3  and  C_4 
REMARK    2  A    between atoms: C_9  and  O_10 
ROOT
HETATM    1  C   LIG     1      15.754  31.770  14.144  1.00  0.00     0.034 A 
HETATM    2  C   LIG     1      14.924  30.641  14.040  1.00  0.00     0.032 A 
HETATM    3  C   LIG     1      14.095  30.273  15.104  1.00  0.00     0.039 A 
HETATM    4  C   LIG     1      15.709  32.547  15.311  1.00  0.00     0.032 A 
HETATM    5  C   LIG     1      14.881  32.179  16.375  1.00  0.00     0.039 A 
HETATM    6  C   LIG     1      14.073  31.038  16.275  1.00  0.00     0.065 A 
ENDROOT
BRANCH   1   7
HETATM    7  N   LIG     1      16.592  32.182  13.052  1.00  0.00    -0.328 N 
HETATM    8  C   LIG     1      17.696  33.095  13.171  1.00  0.00     0.218 C 
HETATM    9  O   LIG     1      18.567  33.125  12.262  1.00  0.00    -0.274 OA
HETATM   10  C   LIG     1      17.830  34.036  14.330  1.00  0.00     0.117 C 
HETATM   11  H   LIG     1      16.349  31.843  12.094  1.00  0.00     0.169 HD
ENDBRANCH   1   7
BRANCH   6  12
HETATM   12  O   LIG     1      13.244  30.660  17.329  1.00  0.00    -0.361 OA
HETATM   13  H   LIG     1      12.463  30.030  17.189  1.00  0.00     0.217 HD
ENDBRANCH   6  12
TORSDOF 2
ENDMDL
