REMARK  2 active torsions:
REMARK  status: ('A' for Active; 'I' for Inactive)
REMARK    1  A    between atoms: C_2  and  N_3 
REMARK    2  A    between atoms: N_3  and  C_4 
ROOT
HETATM    1  C   LIG     1       0.359  -0.317   0.136  1.00  0.00     0.034 A 
HETATM    2  C   LIG     1      -0.730  -1.203   0.132  1.00  0.00     0.029 A 
HETATM    3  C   LIG     1      -2.039  -0.717   0.056  1.00  0.00     0.002 A 
HETATM    4  C   LIG     1      -2.272   0.659  -0.002  1.00  0.00     0.000 A 
HETATM    5  C   LIG     1      -1.197   1.551   0.025  1.00  0.00     0.002 A 
HETATM    6  C   LIG     1       0.114   1.069   0.100  1.00  0.00     0.029 A 
ENDROOT
BRANCH   1   7
HETATM    7  N   LIG     1       1.694  -0.842   0.237  1.00  0.00    -0.334 N 
HETATM    8  H   LIG     1       1.830  -1.765   0.708  1.00  0.00     0.168 HD
BRANCH   7   9
HETATM    9  C   LIG     1       2.847  -0.246  -0.370  1.00  0.00     0.353 C 
HETATM   10  O   LIG     1       2.737   0.696  -1.199  1.00  0.00    -0.283 OA
ENDBRANCH   7   9
ENDBRANCH   1   7
TORSDOF 2
