REMARK  3 active torsions:
REMARK  status: ('A' for Active; 'I' for Inactive)
REMARK    1  A    between atoms: O_1  and  C_2 
REMARK    2  A    between atoms: C_2  and  C_3 
REMARK    3  A    between atoms: C_3  and  C_4 
ROOT
HETATM    1  C   LIG     1      -0.011  -0.399  -0.013  1.00  0.00    -0.048 A 
HETATM    2  C   LIG     1      -0.161   0.997   0.141  1.00  0.00     0.007 A 
HETATM    3  C   LIG     1      -1.433   1.578   0.114  1.00  0.00     0.001 A 
HETATM    4  C   LIG     1      -2.565   0.782  -0.066  1.00  0.00     0.000 A 
HETATM    5  C   LIG     1      -2.430  -0.599  -0.219  1.00  0.00     0.001 A 
HETATM    6  C   LIG     1      -1.162  -1.187  -0.192  1.00  0.00     0.007 A 
ENDROOT
BRANCH   1   7
HETATM    7  C   LIG     1       1.334  -1.097   0.008  1.00  0.00     0.148 C 
BRANCH   7   8
HETATM    8  C   LIG     1       2.508  -0.179   0.168  1.00  0.00     0.143 C 
HETATM    9  O   LIG     1       2.953   0.084   1.317  1.00  0.00    -0.650 OA
BRANCH   8  10
HETATM   10  O   LIG     1       3.081   0.415  -0.952  1.00  0.00    -0.776 OA
HETATM   11  H   LIG     1       3.864   1.051  -0.860  1.00  0.00     0.167 HD
ENDBRANCH   8  10
ENDBRANCH   7   8
ENDBRANCH   1   7
TORSDOF 3
