REMARK  1 active torsions:
REMARK  status: ('A' for Active; 'I' for Inactive)
REMARK       I    between atoms: C_2  and  N_3 
REMARK    1  A    between atoms: N_3  and  C_4 
ROOT
HETATM    1  C   LIG     1       0.305  -0.279   0.079  1.00  0.00     0.034 A 
HETATM    2  C   LIG     1       0.767   0.952  -0.424  1.00  0.00     0.031 A 
HETATM    3  C   LIG     1       2.138   1.225  -0.470  1.00  0.00     0.021 A 
HETATM    4  C   LIG     1       3.059   0.271  -0.029  1.00  0.00     0.011 A 
HETATM    5 BR   LIG     1       4.931   0.646  -0.095  1.00  0.00    -0.051 Br
HETATM    6  C   LIG     1       2.609  -0.963   0.452  1.00  0.00     0.021 A 
HETATM    7  C   LIG     1       1.239  -1.239   0.498  1.00  0.00     0.031 A 
ENDROOT
BRANCH   1   8
HETATM    8  N   LIG     1      -1.097  -0.597   0.115  1.00  0.00    -0.328 N 
HETATM    9  C   LIG     1      -2.134   0.365   0.369  1.00  0.00     0.218 C 
HETATM   10  C   LIG     1      -3.569   0.003   0.158  1.00  0.00     0.117 C 
HETATM   11  O   LIG     1      -1.852   1.513   0.808  1.00  0.00    -0.274 OA
HETATM   12  H   LIG     1      -1.372  -1.602   0.040  1.00  0.00     0.169 HD
ENDBRANCH   1   8
TORSDOF 1
