MODEL 1
REMARK VINA RESULT:      -7.3      0.000      0.000
REMARK  4 active torsions:
REMARK  status: ('A' for Active; 'I' for Inactive)
REMARK    1  A    between atoms: C_2  and  C_6 
REMARK    2  A    between atoms: C_2  and  O_3 
REMARK    3  A    between atoms: O_3  and  C_4 
REMARK    4  A    between atoms: C_7  and  C_8 
ROOT
HETATM    1  C   LIG     1      16.454  38.108  22.396  1.00  0.00     0.083 C 
HETATM    2  C   LIG     1      16.191  37.860  23.688  1.00  0.00     0.017 C 
ENDROOT
BRANCH   2   3
HETATM    3  C   LIG     1      17.003  37.002  24.575  1.00  0.00    -0.036 A 
HETATM    4  C   LIG     1      16.958  35.600  24.475  1.00  0.00     0.011 A 
HETATM    5  C   LIG     1      17.705  34.807  25.352  1.00  0.00     0.001 A 
HETATM    6  C   LIG     1      18.482  35.405  26.347  1.00  0.00     0.000 A 
HETATM    7  C   LIG     1      18.507  36.797  26.473  1.00  0.00     0.001 A 
HETATM    8  C   LIG     1      17.762  37.593  25.598  1.00  0.00     0.011 A 
ENDBRANCH   2   3
BRANCH   1   9
HETATM    9  C   LIG     1      17.690  37.725  21.688  1.00  0.00     0.282 C 
HETATM   10  O   LIG     1      17.743  36.600  21.121  1.00  0.00    -0.260 OA
BRANCH   9  11
HETATM   11  O   LIG     1      18.770  38.613  21.598  1.00  0.00    -0.319 OA
BRANCH  11  12
HETATM   12  C   LIG     1      19.045  39.405  20.444  1.00  0.00     0.174 C 
HETATM   13  C   LIG     1      20.159  38.777  19.616  1.00  0.00     0.034 C 
ENDBRANCH  11  12
ENDBRANCH   9  11
ENDBRANCH   1   9
TORSDOF 4
ENDMDL
MODEL 2
REMARK VINA RESULT:      -7.3      1.757      5.195
REMARK  4 active torsions:
REMARK  status: ('A' for Active; 'I' for Inactive)
REMARK    1  A    between atoms: C_2  and  C_6 
REMARK    2  A    between atoms: C_2  and  O_3 
REMARK    3  A    between atoms: O_3  and  C_4 
REMARK    4  A    between atoms: C_7  and  C_8 
ROOT
HETATM    1  C   LIG     1      16.191  37.263  23.707  1.00  0.00     0.083 C 
HETATM    2  C   LIG     1      16.320  37.065  22.387  1.00  0.00     0.017 C 
ENDROOT
BRANCH   2   3
HETATM    3  C   LIG     1      17.432  37.567  21.554  1.00  0.00    -0.036 A 
HETATM    4  C   LIG     1      17.836  38.913  21.609  1.00  0.00     0.011 A 
HETATM    5  C   LIG     1      18.865  39.374  20.783  1.00  0.00     0.001 A 
HETATM    6  C   LIG     1      19.481  38.504  19.880  1.00  0.00     0.000 A 
HETATM    7  C   LIG     1      19.064  37.173  19.797  1.00  0.00     0.001 A 
HETATM    8  C   LIG     1      18.036  36.707  20.622  1.00  0.00     0.011 A 
ENDBRANCH   2   3
BRANCH   1   9
HETATM    9  C   LIG     1      17.220  37.848  24.588  1.00  0.00     0.282 C 
HETATM   10  O   LIG     1      17.087  39.042  24.969  1.00  0.00    -0.260 OA
BRANCH   9  11
HETATM   11  O   LIG     1      18.299  37.077  25.040  1.00  0.00    -0.319 OA
BRANCH  11  12
HETATM   12  C   LIG     1      18.329  36.432  26.312  1.00  0.00     0.174 C 
HETATM   13  C   LIG     1      18.010  34.949  26.169  1.00  0.00     0.034 C 
ENDBRANCH  11  12
ENDBRANCH   9  11
ENDBRANCH   1   9
TORSDOF 4
ENDMDL
MODEL 3
REMARK VINA RESULT:      -7.0      1.306      2.390
REMARK  4 active torsions:
REMARK  status: ('A' for Active; 'I' for Inactive)
REMARK    1  A    between atoms: C_2  and  C_6 
REMARK    2  A    between atoms: C_2  and  O_3 
REMARK    3  A    between atoms: O_3  and  C_4 
REMARK    4  A    between atoms: C_7  and  C_8 
ROOT
HETATM    1  C   LIG     1      16.390  38.050  22.427  1.00  0.00     0.083 C 
HETATM    2  C   LIG     1      16.233  37.922  23.753  1.00  0.00     0.017 C 
ENDROOT
BRANCH   2   3
HETATM    3  C   LIG     1      17.019  37.024  24.623  1.00  0.00    -0.036 A 
HETATM    4  C   LIG     1      16.853  35.629  24.571  1.00  0.00     0.011 A 
HETATM    5  C   LIG     1      17.580  34.801  25.432  1.00  0.00     0.001 A 
HETATM    6  C   LIG     1      18.457  35.359  26.365  1.00  0.00     0.000 A 
HETATM    7  C   LIG     1      18.603  36.746  26.444  1.00  0.00     0.001 A 
HETATM    8  C   LIG     1      17.879  37.578  25.585  1.00  0.00     0.011 A 
ENDBRANCH   2   3
BRANCH   1   9
HETATM    9  C   LIG     1      17.490  37.464  21.637  1.00  0.00     0.282 C 
HETATM   10  O   LIG     1      18.474  38.190  21.332  1.00  0.00    -0.260 OA
BRANCH   9  11
HETATM   11  O   LIG     1      17.471  36.111  21.276  1.00  0.00    -0.319 OA
BRANCH  11  12
HETATM   12  C   LIG     1      16.463  35.529  20.452  1.00  0.00     0.174 C 
HETATM   13  C   LIG     1      15.669  34.487  21.231  1.00  0.00     0.034 C 
ENDBRANCH  11  12
ENDBRANCH   9  11
ENDBRANCH   1   9
TORSDOF 4
ENDMDL
MODEL 4
REMARK VINA RESULT:      -6.4      3.225      5.428
REMARK  4 active torsions:
REMARK  status: ('A' for Active; 'I' for Inactive)
REMARK    1  A    between atoms: C_2  and  C_6 
REMARK    2  A    between atoms: C_2  and  O_3 
REMARK    3  A    between atoms: O_3  and  C_4 
REMARK    4  A    between atoms: C_7  and  C_8 
ROOT
HETATM    1  C   LIG     1      16.320  34.999  22.068  1.00  0.00     0.083 C 
HETATM    2  C   LIG     1      17.303  35.869  22.348  1.00  0.00     0.017 C 
ENDROOT
BRANCH   2   3
HETATM    3  C   LIG     1      17.818  36.900  21.425  1.00  0.00    -0.036 A 
HETATM    4  C   LIG     1      18.407  36.550  20.197  1.00  0.00     0.011 A 
HETATM    5  C   LIG     1      18.925  37.541  19.357  1.00  0.00     0.001 A 
HETATM    6  C   LIG     1      18.880  38.882  19.746  1.00  0.00     0.000 A 
HETATM    7  C   LIG     1      18.325  39.234  20.978  1.00  0.00     0.001 A 
HETATM    8  C   LIG     1      17.806  38.247  21.821  1.00  0.00     0.011 A 
ENDBRANCH   2   3
BRANCH   1   9
HETATM    9  C   LIG     1      15.461  35.039  20.870  1.00  0.00     0.282 C 
HETATM   10  O   LIG     1      14.519  35.877  20.824  1.00  0.00    -0.260 OA
BRANCH   9  11
HETATM   11  O   LIG     1      15.715  34.201  19.776  1.00  0.00    -0.319 OA
BRANCH  11  12
HETATM   12  C   LIG     1      15.456  32.799  19.782  1.00  0.00     0.174 C 
HETATM   13  C   LIG     1      14.971  32.337  18.413  1.00  0.00     0.034 C 
ENDBRANCH  11  12
ENDBRANCH   9  11
ENDBRANCH   1   9
TORSDOF 4
ENDMDL
MODEL 5
REMARK VINA RESULT:      -6.0      2.290      5.079
REMARK  4 active torsions:
REMARK  status: ('A' for Active; 'I' for Inactive)
REMARK    1  A    between atoms: C_2  and  C_6 
REMARK    2  A    between atoms: C_2  and  O_3 
REMARK    3  A    between atoms: O_3  and  C_4 
REMARK    4  A    between atoms: C_7  and  C_8 
ROOT
HETATM    1  C   LIG     1      16.323  37.401  23.016  1.00  0.00     0.083 C 
HETATM    2  C   LIG     1      16.693  38.264  22.058  1.00  0.00     0.017 C 
ENDROOT
BRANCH   2   3
HETATM    3  C   LIG     1      17.900  38.139  21.216  1.00  0.00    -0.036 A 
HETATM    4  C   LIG     1      18.855  39.168  21.153  1.00  0.00     0.011 A 
HETATM    5  C   LIG     1      19.970  39.044  20.317  1.00  0.00     0.001 A 
HETATM    6  C   LIG     1      20.127  37.905  19.524  1.00  0.00     0.000 A 
HETATM    7  C   LIG     1      19.165  36.891  19.559  1.00  0.00     0.001 A 
HETATM    8  C   LIG     1      18.049  37.011  20.393  1.00  0.00     0.011 A 
ENDBRANCH   2   3
BRANCH   1   9
HETATM    9  C   LIG     1      16.945  36.088  23.269  1.00  0.00     0.282 C 
HETATM   10  O   LIG     1      17.646  35.936  24.306  1.00  0.00    -0.260 OA
BRANCH   9  11
HETATM   11  O   LIG     1      16.722  35.009  22.403  1.00  0.00    -0.319 OA
BRANCH  11  12
HETATM   12  C   LIG     1      15.481  34.773  21.742  1.00  0.00     0.174 C 
HETATM   13  C   LIG     1      15.715  34.228  20.339  1.00  0.00     0.034 C 
ENDBRANCH  11  12
ENDBRANCH   9  11
ENDBRANCH   1   9
TORSDOF 4
ENDMDL
MODEL 6
REMARK VINA RESULT:      -6.0      1.716      4.995
REMARK  4 active torsions:
REMARK  status: ('A' for Active; 'I' for Inactive)
REMARK    1  A    between atoms: C_2  and  C_6 
REMARK    2  A    between atoms: C_2  and  O_3 
REMARK    3  A    between atoms: O_3  and  C_4 
REMARK    4  A    between atoms: C_7  and  C_8 
ROOT
HETATM    1  C   LIG     1      17.036  39.102  23.450  1.00  0.00     0.083 C 
HETATM    2  C   LIG     1      17.754  39.510  22.393  1.00  0.00     0.017 C 
ENDROOT
BRANCH   2   3
HETATM    3  C   LIG     1      18.270  38.634  21.322  1.00  0.00    -0.036 A 
HETATM    4  C   LIG     1      17.722  37.358  21.096  1.00  0.00     0.011 A 
HETATM    5  C   LIG     1      18.253  36.530  20.103  1.00  0.00     0.001 A 
HETATM    6  C   LIG     1      19.346  36.958  19.344  1.00  0.00     0.000 A 
HETATM    7  C   LIG     1      19.915  38.211  19.584  1.00  0.00     0.001 A 
HETATM    8  C   LIG     1      19.387  39.043  20.576  1.00  0.00     0.011 A 
ENDBRANCH   2   3
BRANCH   1   9
HETATM    9  C   LIG     1      16.477  37.749  23.631  1.00  0.00     0.282 C 
HETATM   10  O   LIG     1      15.402  37.451  23.043  1.00  0.00    -0.260 OA
BRANCH   9  11
HETATM   11  O   LIG     1      17.152  36.791  24.398  1.00  0.00    -0.319 OA
BRANCH  11  12
HETATM   12  C   LIG     1      17.747  37.071  25.663  1.00  0.00     0.174 C 
HETATM   13  C   LIG     1      18.256  35.790  26.312  1.00  0.00     0.034 C 
ENDBRANCH  11  12
ENDBRANCH   9  11
ENDBRANCH   1   9
TORSDOF 4
ENDMDL
MODEL 7
REMARK VINA RESULT:      -5.9      2.592      5.186
REMARK  4 active torsions:
REMARK  status: ('A' for Active; 'I' for Inactive)
REMARK    1  A    between atoms: C_2  and  C_6 
REMARK    2  A    between atoms: C_2  and  O_3 
REMARK    3  A    between atoms: O_3  and  C_4 
REMARK    4  A    between atoms: C_7  and  C_8 
ROOT
HETATM    1  C   LIG     1      17.462  38.324  23.422  1.00  0.00     0.083 C 
HETATM    2  C   LIG     1      18.481  38.728  22.648  1.00  0.00     0.017 C 
ENDROOT
BRANCH   2   3
HETATM    3  C   LIG     1      18.576  38.524  21.188  1.00  0.00    -0.036 A 
HETATM    4  C   LIG     1      18.597  37.233  20.632  1.00  0.00     0.011 A 
HETATM    5  C   LIG     1      18.728  37.064  19.250  1.00  0.00     0.001 A 
HETATM    6  C   LIG     1      18.864  38.178  18.418  1.00  0.00     0.000 A 
HETATM    7  C   LIG     1      18.876  39.463  18.967  1.00  0.00     0.001 A 
HETATM    8  C   LIG     1      18.744  39.637  20.348  1.00  0.00     0.011 A 
ENDBRANCH   2   3
BRANCH   1   9
HETATM    9  C   LIG     1      16.182  37.778  22.932  1.00  0.00     0.282 C 
HETATM   10  O   LIG     1      15.220  38.568  22.733  1.00  0.00    -0.260 OA
BRANCH   9  11
HETATM   11  O   LIG     1      16.050  36.414  22.640  1.00  0.00    -0.319 OA
BRANCH  11  12
HETATM   12  C   LIG     1      15.303  35.914  21.533  1.00  0.00     0.174 C 
HETATM   13  C   LIG     1      15.963  34.667  20.960  1.00  0.00     0.034 C 
ENDBRANCH  11  12
ENDBRANCH   9  11
ENDBRANCH   1   9
TORSDOF 4
ENDMDL
MODEL 8
REMARK VINA RESULT:      -5.6      3.039      4.405
REMARK  4 active torsions:
REMARK  status: ('A' for Active; 'I' for Inactive)
REMARK    1  A    between atoms: C_2  and  C_6 
REMARK    2  A    between atoms: C_2  and  O_3 
REMARK    3  A    between atoms: O_3  and  C_4 
REMARK    4  A    between atoms: C_7  and  C_8 
ROOT
HETATM    1  C   LIG     1      15.028  35.845  21.583  1.00  0.00     0.083 C 
HETATM    2  C   LIG     1      15.174  37.057  22.140  1.00  0.00     0.017 C 
ENDROOT
BRANCH   2   3
HETATM    3  C   LIG     1      16.436  37.599  22.684  1.00  0.00    -0.036 A 
HETATM    4  C   LIG     1      16.747  37.492  24.051  1.00  0.00     0.011 A 
HETATM    5  C   LIG     1      17.928  38.049  24.551  1.00  0.00     0.001 A 
HETATM    6  C   LIG     1      18.795  38.734  23.696  1.00  0.00     0.000 A 
HETATM    7  C   LIG     1      18.478  38.872  22.342  1.00  0.00     0.001 A 
HETATM    8  C   LIG     1      17.297  38.316  21.838  1.00  0.00     0.011 A 
ENDBRANCH   2   3
BRANCH   1   9
HETATM    9  C   LIG     1      16.128  34.922  21.246  1.00  0.00     0.282 C 
HETATM   10  O   LIG     1      17.105  34.825  22.038  1.00  0.00    -0.260 OA
BRANCH   9  11
HETATM   11  O   LIG     1      16.069  34.125  20.096  1.00  0.00    -0.319 OA
BRANCH  11  12
HETATM   12  C   LIG     1      15.350  32.895  20.025  1.00  0.00     0.174 C 
HETATM   13  C   LIG     1      15.180  32.455  18.577  1.00  0.00     0.034 C 
ENDBRANCH  11  12
ENDBRANCH   9  11
ENDBRANCH   1   9
TORSDOF 4
ENDMDL
MODEL 9
REMARK VINA RESULT:      -5.6      7.187      8.885
REMARK  4 active torsions:
REMARK  status: ('A' for Active; 'I' for Inactive)
REMARK    1  A    between atoms: C_2  and  C_6 
REMARK    2  A    between atoms: C_2  and  O_3 
REMARK    3  A    between atoms: O_3  and  C_4 
REMARK    4  A    between atoms: C_7  and  C_8 
ROOT
HETATM    1  C   LIG     1      15.408  34.258  18.436  1.00  0.00     0.083 C 
HETATM    2  C   LIG     1      14.962  34.082  17.184  1.00  0.00     0.017 C 
ENDROOT
BRANCH   2   3
HETATM    3  C   LIG     1      14.601  32.782  16.581  1.00  0.00    -0.036 A 
HETATM    4  C   LIG     1      15.431  32.164  15.629  1.00  0.00     0.011 A 
HETATM    5  C   LIG     1      15.050  30.953  15.043  1.00  0.00     0.001 A 
HETATM    6  C   LIG     1      13.830  30.364  15.384  1.00  0.00     0.000 A 
HETATM    7  C   LIG     1      12.986  30.988  16.306  1.00  0.00     0.001 A 
HETATM    8  C   LIG     1      13.364  32.198  16.895  1.00  0.00     0.011 A 
ENDBRANCH   2   3
BRANCH   1   9
HETATM    9  C   LIG     1      15.440  33.222  19.485  1.00  0.00     0.282 C 
HETATM   10  O   LIG     1      15.939  32.096  19.213  1.00  0.00    -0.260 OA
BRANCH   9  11
HETATM   11  O   LIG     1      14.976  33.495  20.778  1.00  0.00    -0.319 OA
BRANCH  11  12
HETATM   12  C   LIG     1      15.115  34.764  21.414  1.00  0.00     0.174 C 
HETATM   13  C   LIG     1      16.541  34.960  21.915  1.00  0.00     0.034 C 
ENDBRANCH  11  12
ENDBRANCH   9  11
ENDBRANCH   1   9
TORSDOF 4
ENDMDL
MODEL 10
REMARK VINA RESULT:      -5.5      9.842     11.116
REMARK  4 active torsions:
REMARK  status: ('A' for Active; 'I' for Inactive)
REMARK    1  A    between atoms: C_2  and  C_6 
REMARK    2  A    between atoms: C_2  and  O_3 
REMARK    3  A    between atoms: O_3  and  C_4 
REMARK    4  A    between atoms: C_7  and  C_8 
ROOT
HETATM    1  C   LIG     1      17.362  33.045  14.828  1.00  0.00     0.083 C 
HETATM    2  C   LIG     1      16.674  32.251  15.664  1.00  0.00     0.017 C 
ENDROOT
BRANCH   2   3
HETATM    3  C   LIG     1      15.531  31.397  15.282  1.00  0.00    -0.036 A 
HETATM    4  C   LIG     1      14.303  31.474  15.963  1.00  0.00     0.011 A 
HETATM    5  C   LIG     1      13.248  30.627  15.610  1.00  0.00     0.001 A 
HETATM    6  C   LIG     1      13.417  29.684  14.594  1.00  0.00     0.000 A 
HETATM    7  C   LIG     1      14.644  29.581  13.933  1.00  0.00     0.001 A 
HETATM    8  C   LIG     1      15.702  30.426  14.283  1.00  0.00     0.011 A 
ENDBRANCH   2   3
BRANCH   1   9
HETATM    9  C   LIG     1      17.222  33.063  13.360  1.00  0.00     0.282 C 
HETATM   10  O   LIG     1      16.181  33.561  12.854  1.00  0.00    -0.260 OA
BRANCH   9  11
HETATM   11  O   LIG     1      18.250  32.586  12.536  1.00  0.00    -0.319 OA
BRANCH  11  12
HETATM   12  C   LIG     1      19.104  33.434  11.771  1.00  0.00     0.174 C 
HETATM   13  C   LIG     1      20.270  33.928  12.619  1.00  0.00     0.034 C 
ENDBRANCH  11  12
ENDBRANCH   9  11
ENDBRANCH   1   9
TORSDOF 4
ENDMDL
MODEL 11
REMARK VINA RESULT:      -5.4      9.216     10.836
REMARK  4 active torsions:
REMARK  status: ('A' for Active; 'I' for Inactive)
REMARK    1  A    between atoms: C_2  and  C_6 
REMARK    2  A    between atoms: C_2  and  O_3 
REMARK    3  A    between atoms: O_3  and  C_4 
REMARK    4  A    between atoms: C_7  and  C_8 
ROOT
HETATM    1  C   LIG     1      13.346  32.458  17.063  1.00  0.00     0.083 C 
HETATM    2  C   LIG     1      12.963  31.390  16.348  1.00  0.00     0.017 C 
ENDROOT
BRANCH   2   3
HETATM    3  C   LIG     1      13.815  30.654  15.392  1.00  0.00    -0.036 A 
HETATM    4  C   LIG     1      15.027  31.194  14.929  1.00  0.00     0.011 A 
HETATM    5  C   LIG     1      15.797  30.497  13.993  1.00  0.00     0.001 A 
HETATM    6  C   LIG     1      15.353  29.269  13.496  1.00  0.00     0.000 A 
HETATM    7  C   LIG     1      14.134  28.740  13.929  1.00  0.00     0.001 A 
HETATM    8  C   LIG     1      13.361  29.434  14.865  1.00  0.00     0.011 A 
ENDBRANCH   2   3
BRANCH   1   9
HETATM    9  C   LIG     1      14.726  32.969  17.163  1.00  0.00     0.282 C 
HETATM   10  O   LIG     1      15.080  33.917  16.411  1.00  0.00    -0.260 OA
BRANCH   9  11
HETATM   11  O   LIG     1      15.616  32.450  18.113  1.00  0.00    -0.319 OA
BRANCH  11  12
HETATM   12  C   LIG     1      15.404  32.535  19.521  1.00  0.00     0.174 C 
HETATM   13  C   LIG     1      14.893  31.208  20.068  1.00  0.00     0.034 C 
ENDBRANCH  11  12
ENDBRANCH   9  11
ENDBRANCH   1   9
TORSDOF 4
ENDMDL
MODEL 12
REMARK VINA RESULT:      -5.3      8.694     10.645
REMARK  4 active torsions:
REMARK  status: ('A' for Active; 'I' for Inactive)
REMARK    1  A    between atoms: C_2  and  C_6 
REMARK    2  A    between atoms: C_2  and  O_3 
REMARK    3  A    between atoms: O_3  and  C_4 
REMARK    4  A    between atoms: C_7  and  C_8 
ROOT
HETATM    1  C   LIG     1      13.562  30.483  15.791  1.00  0.00     0.083 C 
HETATM    2  C   LIG     1      14.534  30.377  14.872  1.00  0.00     0.017 C 
ENDROOT
BRANCH   2   3
HETATM    3  C   LIG     1      15.565  31.399  14.600  1.00  0.00    -0.036 A 
HETATM    4  C   LIG     1      15.786  31.885  13.299  1.00  0.00     0.011 A 
HETATM    5  C   LIG     1      16.795  32.823  13.059  1.00  0.00     0.001 A 
HETATM    6  C   LIG     1      17.605  33.264  14.109  1.00  0.00     0.000 A 
HETATM    7  C   LIG     1      17.412  32.762  15.398  1.00  0.00     0.001 A 
HETATM    8  C   LIG     1      16.404  31.825  15.643  1.00  0.00     0.011 A 
ENDBRANCH   2   3
BRANCH   1   9
HETATM    9  C   LIG     1      13.464  31.543  16.812  1.00  0.00     0.282 C 
HETATM   10  O   LIG     1      12.805  32.584  16.546  1.00  0.00    -0.260 OA
BRANCH   9  11
HETATM   11  O   LIG     1      14.044  31.376  18.076  1.00  0.00    -0.319 OA
BRANCH  11  12
HETATM   12  C   LIG     1      14.862  32.362  18.704  1.00  0.00     0.174 C 
HETATM   13  C   LIG     1      15.667  31.746  19.841  1.00  0.00     0.034 C 
ENDBRANCH  11  12
ENDBRANCH   9  11
ENDBRANCH   1   9
TORSDOF 4
ENDMDL
MODEL 13
REMARK VINA RESULT:      -5.3     11.956     13.216
REMARK  4 active torsions:
REMARK  status: ('A' for Active; 'I' for Inactive)
REMARK    1  A    between atoms: C_2  and  C_6 
REMARK    2  A    between atoms: C_2  and  O_3 
REMARK    3  A    between atoms: O_3  and  C_4 
REMARK    4  A    between atoms: C_7  and  C_8 
ROOT
HETATM    1  C   LIG     1      13.852  27.953  13.729  1.00  0.00     0.083 C 
HETATM    2  C   LIG     1      13.377  29.107  14.219  1.00  0.00     0.017 C 
ENDROOT
BRANCH   2   3
HETATM    3  C   LIG     1      14.202  30.237  14.693  1.00  0.00    -0.036 A 
HETATM    4  C   LIG     1      13.965  30.841  15.941  1.00  0.00     0.011 A 
HETATM    5  C   LIG     1      14.733  31.935  16.351  1.00  0.00     0.001 A 
HETATM    6  C   LIG     1      15.725  32.448  15.511  1.00  0.00     0.000 A 
HETATM    7  C   LIG     1      15.946  31.873  14.257  1.00  0.00     0.001 A 
HETATM    8  C   LIG     1      15.180  30.778  13.843  1.00  0.00     0.011 A 
ENDBRANCH   2   3
BRANCH   1   9
HETATM    9  C   LIG     1      15.265  27.680  13.403  1.00  0.00     0.282 C 
HETATM   10  O   LIG     1      16.053  27.358  14.333  1.00  0.00    -0.260 OA
BRANCH   9  11
HETATM   11  O   LIG     1      15.717  27.725  12.078  1.00  0.00    -0.319 OA
BRANCH  11  12
HETATM   12  C   LIG     1      16.271  26.603  11.396  1.00  0.00     0.174 C 
HETATM   13  C   LIG     1      15.295  26.071  10.354  1.00  0.00     0.034 C 
ENDBRANCH  11  12
ENDBRANCH   9  11
ENDBRANCH   1   9
TORSDOF 4
ENDMDL
MODEL 14
REMARK VINA RESULT:      -5.2      8.516      9.601
REMARK  4 active torsions:
REMARK  status: ('A' for Active; 'I' for Inactive)
REMARK    1  A    between atoms: C_2  and  C_6 
REMARK    2  A    between atoms: C_2  and  O_3 
REMARK    3  A    between atoms: O_3  and  C_4 
REMARK    4  A    between atoms: C_7  and  C_8 
ROOT
HETATM    1  C   LIG     1      13.834  30.373  15.065  1.00  0.00     0.083 C 
HETATM    2  C   LIG     1      13.331  30.932  16.176  1.00  0.00     0.017 C 
ENDROOT
BRANCH   2   3
HETATM    3  C   LIG     1      14.083  31.789  17.115  1.00  0.00    -0.036 A 
HETATM    4  C   LIG     1      14.431  31.335  18.399  1.00  0.00     0.011 A 
HETATM    5  C   LIG     1      15.107  32.179  19.286  1.00  0.00     0.001 A 
HETATM    6  C   LIG     1      15.420  33.486  18.907  1.00  0.00     0.000 A 
HETATM    7  C   LIG     1      15.050  33.955  17.644  1.00  0.00     0.001 A 
HETATM    8  C   LIG     1      14.374  33.115  16.754  1.00  0.00     0.011 A 
ENDBRANCH   2   3
BRANCH   1   9
HETATM    9  C   LIG     1      15.160  30.664  14.488  1.00  0.00     0.282 C 
HETATM   10  O   LIG     1      16.076  29.805  14.602  1.00  0.00    -0.260 OA
BRANCH   9  11
HETATM   11  O   LIG     1      15.387  31.849  13.776  1.00  0.00    -0.319 OA
BRANCH  11  12
HETATM   12  C   LIG     1      16.687  32.371  13.510  1.00  0.00     0.174 C 
HETATM   13  C   LIG     1      17.252  33.062  14.745  1.00  0.00     0.034 C 
ENDBRANCH  11  12
ENDBRANCH   9  11
ENDBRANCH   1   9
TORSDOF 4
ENDMDL
MODEL 15
REMARK VINA RESULT:      -5.0      9.578     10.956
REMARK  4 active torsions:
REMARK  status: ('A' for Active; 'I' for Inactive)
REMARK    1  A    between atoms: C_2  and  C_6 
REMARK    2  A    between atoms: C_2  and  O_3 
REMARK    3  A    between atoms: O_3  and  C_4 
REMARK    4  A    between atoms: C_7  and  C_8 
ROOT
HETATM    1  C   LIG     1      15.980  33.234  15.961  1.00  0.00     0.083 C 
HETATM    2  C   LIG     1      14.995  32.369  16.243  1.00  0.00     0.017 C 
ENDROOT
BRANCH   2   3
HETATM    3  C   LIG     1      14.672  31.159  15.460  1.00  0.00    -0.036 A 
HETATM    4  C   LIG     1      15.620  30.570  14.604  1.00  0.00     0.011 A 
HETATM    5  C   LIG     1      15.279  29.448  13.842  1.00  0.00     0.001 A 
HETATM    6  C   LIG     1      13.987  28.921  13.911  1.00  0.00     0.000 A 
HETATM    7  C   LIG     1      13.031  29.519  14.735  1.00  0.00     0.001 A 
HETATM    8  C   LIG     1      13.368  30.641  15.499  1.00  0.00     0.011 A 
ENDBRANCH   2   3
BRANCH   1   9
HETATM    9  C   LIG     1      17.026  33.034  14.940  1.00  0.00     0.282 C 
HETATM   10  O   LIG     1      18.099  32.461  15.272  1.00  0.00    -0.260 OA
BRANCH   9  11
HETATM   11  O   LIG     1      16.814  33.424  13.611  1.00  0.00    -0.319 OA
BRANCH  11  12
HETATM   12  C   LIG     1      17.727  34.233  12.872  1.00  0.00     0.174 C 
HETATM   13  C   LIG     1      18.760  33.367  12.163  1.00  0.00     0.034 C 
ENDBRANCH  11  12
ENDBRANCH   9  11
ENDBRANCH   1   9
TORSDOF 4
ENDMDL
MODEL 16
REMARK VINA RESULT:      -4.9      9.897     12.347
REMARK  4 active torsions:
REMARK  status: ('A' for Active; 'I' for Inactive)
REMARK    1  A    between atoms: C_2  and  C_6 
REMARK    2  A    between atoms: C_2  and  O_3 
REMARK    3  A    between atoms: O_3  and  C_4 
REMARK    4  A    between atoms: C_7  and  C_8 
ROOT
HETATM    1  C   LIG     1      18.982  33.262  11.663  1.00  0.00     0.083 C 
HETATM    2  C   LIG     1      20.315  33.154  11.559  1.00  0.00     0.017 C 
ENDROOT
BRANCH   2   3
HETATM    3  C   LIG     1      21.281  34.243  11.805  1.00  0.00    -0.036 A 
HETATM    4  C   LIG     1      21.631  35.151  10.790  1.00  0.00     0.011 A 
HETATM    5  C   LIG     1      22.578  36.150  11.033  1.00  0.00     0.001 A 
HETATM    6  C   LIG     1      23.200  36.236  12.282  1.00  0.00     0.000 A 
HETATM    7  C   LIG     1      22.881  35.318  13.285  1.00  0.00     0.001 A 
HETATM    8  C   LIG     1      21.934  34.317  13.046  1.00  0.00     0.011 A 
ENDBRANCH   2   3
BRANCH   1   9
HETATM    9  C   LIG     1      18.261  34.423  12.218  1.00  0.00     0.282 C 
HETATM   10  O   LIG     1      17.950  35.371  11.447  1.00  0.00    -0.260 OA
BRANCH   9  11
HETATM   11  O   LIG     1      17.877  34.453  13.565  1.00  0.00    -0.319 OA
BRANCH  11  12
HETATM   12  C   LIG     1      18.083  33.368  14.467  1.00  0.00     0.174 C 
HETATM   13  C   LIG     1      16.751  32.848  14.994  1.00  0.00     0.034 C 
ENDBRANCH  11  12
ENDBRANCH   9  11
ENDBRANCH   1   9
TORSDOF 4
ENDMDL
MODEL 17
REMARK VINA RESULT:      -4.8      8.845     10.136
REMARK  4 active torsions:
REMARK  status: ('A' for Active; 'I' for Inactive)
REMARK    1  A    between atoms: C_2  and  C_6 
REMARK    2  A    between atoms: C_2  and  O_3 
REMARK    3  A    between atoms: O_3  and  C_4 
REMARK    4  A    between atoms: C_7  and  C_8 
ROOT
HETATM    1  C   LIG     1      18.218  33.354  14.693  1.00  0.00     0.083 C 
HETATM    2  C   LIG     1      17.756  32.231  15.264  1.00  0.00     0.017 C 
ENDROOT
BRANCH   2   3
HETATM    3  C   LIG     1      16.335  31.937  15.541  1.00  0.00    -0.036 A 
HETATM    4  C   LIG     1      15.610  31.030  14.748  1.00  0.00     0.011 A 
HETATM    5  C   LIG     1      14.255  30.797  15.004  1.00  0.00     0.001 A 
HETATM    6  C   LIG     1      13.610  31.483  16.036  1.00  0.00     0.000 A 
HETATM    7  C   LIG     1      14.316  32.409  16.808  1.00  0.00     0.001 A 
HETATM    8  C   LIG     1      15.672  32.644  16.556  1.00  0.00     0.011 A 
ENDBRANCH   2   3
BRANCH   1   9
HETATM    9  C   LIG     1      17.384  34.402  14.075  1.00  0.00     0.282 C 
HETATM   10  O   LIG     1      17.060  35.407  14.764  1.00  0.00    -0.260 OA
BRANCH   9  11
HETATM   11  O   LIG     1      17.002  34.314  12.730  1.00  0.00    -0.319 OA
BRANCH  11  12
HETATM   12  C   LIG     1      17.518  35.163  11.707  1.00  0.00     0.174 C 
HETATM   13  C   LIG     1      18.829  34.610  11.162  1.00  0.00     0.034 C 
ENDBRANCH  11  12
ENDBRANCH   9  11
ENDBRANCH   1   9
TORSDOF 4
ENDMDL
MODEL 18
REMARK VINA RESULT:      -4.7      9.353     10.440
REMARK  4 active torsions:
REMARK  status: ('A' for Active; 'I' for Inactive)
REMARK    1  A    between atoms: C_2  and  C_6 
REMARK    2  A    between atoms: C_2  and  O_3 
REMARK    3  A    between atoms: O_3  and  C_4 
REMARK    4  A    between atoms: C_7  and  C_8 
ROOT
HETATM    1  C   LIG     1      13.708  30.410  15.143  1.00  0.00     0.083 C 
HETATM    2  C   LIG     1      13.218  31.088  16.192  1.00  0.00     0.017 C 
ENDROOT
BRANCH   2   3
HETATM    3  C   LIG     1      14.022  31.872  17.151  1.00  0.00    -0.036 A 
HETATM    4  C   LIG     1      14.349  31.360  18.420  1.00  0.00     0.011 A 
HETATM    5  C   LIG     1      15.077  32.136  19.327  1.00  0.00     0.001 A 
HETATM    6  C   LIG     1      15.463  33.434  18.985  1.00  0.00     0.000 A 
HETATM    7  C   LIG     1      15.115  33.961  17.738  1.00  0.00     0.001 A 
HETATM    8  C   LIG     1      14.388  33.188  16.828  1.00  0.00     0.011 A 
ENDBRANCH   2   3
BRANCH   1   9
HETATM    9  C   LIG     1      15.098  30.479  14.655  1.00  0.00     0.282 C 
HETATM   10  O   LIG     1      15.739  31.556  14.795  1.00  0.00    -0.260 OA
BRANCH   9  11
HETATM   11  O   LIG     1      15.718  29.356  14.093  1.00  0.00    -0.319 OA
BRANCH  11  12
HETATM   12  C   LIG     1      15.026  28.150  13.776  1.00  0.00     0.174 C 
HETATM   13  C   LIG     1      15.808  27.335  12.754  1.00  0.00     0.034 C 
ENDBRANCH  11  12
ENDBRANCH   9  11
ENDBRANCH   1   9
TORSDOF 4
ENDMDL
MODEL 19
REMARK VINA RESULT:      -4.6      9.286     11.986
REMARK  4 active torsions:
REMARK  status: ('A' for Active; 'I' for Inactive)
REMARK    1  A    between atoms: C_2  and  C_6 
REMARK    2  A    between atoms: C_2  and  O_3 
REMARK    3  A    between atoms: O_3  and  C_4 
REMARK    4  A    between atoms: C_7  and  C_8 
ROOT
HETATM    1  C   LIG     1      17.826  33.080  12.564  1.00  0.00     0.083 C 
HETATM    2  C   LIG     1      18.882  32.976  11.744  1.00  0.00     0.017 C 
ENDROOT
BRANCH   2   3
HETATM    3  C   LIG     1      20.114  33.787  11.831  1.00  0.00    -0.036 A 
HETATM    4  C   LIG     1      20.940  33.739  12.969  1.00  0.00     0.011 A 
HETATM    5  C   LIG     1      22.079  34.546  13.046  1.00  0.00     0.001 A 
HETATM    6  C   LIG     1      22.389  35.422  12.003  1.00  0.00     0.000 A 
HETATM    7  C   LIG     1      21.556  35.498  10.883  1.00  0.00     0.001 A 
HETATM    8  C   LIG     1      20.416  34.693  10.801  1.00  0.00     0.011 A 
ENDBRANCH   2   3
BRANCH   1   9
HETATM    9  C   LIG     1      17.782  33.881  13.802  1.00  0.00     0.282 C 
HETATM   10  O   LIG     1      17.634  35.130  13.713  1.00  0.00    -0.260 OA
BRANCH   9  11
HETATM   11  O   LIG     1      17.849  33.265  15.058  1.00  0.00    -0.319 OA
BRANCH  11  12
HETATM   12  C   LIG     1      16.967  32.224  15.473  1.00  0.00     0.174 C 
HETATM   13  C   LIG     1      15.655  32.804  15.987  1.00  0.00     0.034 C 
ENDBRANCH  11  12
ENDBRANCH   9  11
ENDBRANCH   1   9
TORSDOF 4
ENDMDL
MODEL 20
REMARK VINA RESULT:      -4.6     10.670     11.953
REMARK  4 active torsions:
REMARK  status: ('A' for Active; 'I' for Inactive)
REMARK    1  A    between atoms: C_2  and  C_6 
REMARK    2  A    between atoms: C_2  and  O_3 
REMARK    3  A    between atoms: O_3  and  C_4 
REMARK    4  A    between atoms: C_7  and  C_8 
ROOT
HETATM    1  C   LIG     1      15.360  30.177  13.297  1.00  0.00     0.083 C 
HETATM    2  C   LIG     1      15.491  31.325  13.978  1.00  0.00     0.017 C 
ENDROOT
BRANCH   2   3
HETATM    3  C   LIG     1      15.084  31.536  15.382  1.00  0.00    -0.036 A 
HETATM    4  C   LIG     1      13.913  30.952  15.897  1.00  0.00     0.011 A 
HETATM    5  C   LIG     1      13.526  31.198  17.218  1.00  0.00     0.001 A 
HETATM    6  C   LIG     1      14.290  32.044  18.025  1.00  0.00     0.000 A 
HETATM    7  C   LIG     1      15.438  32.653  17.511  1.00  0.00     0.001 A 
HETATM    8  C   LIG     1      15.829  32.409  16.190  1.00  0.00     0.011 A 
ENDBRANCH   2   3
BRANCH   1   9
HETATM    9  C   LIG     1      14.965  28.880  13.878  1.00  0.00     0.282 C 
HETATM   10  O   LIG     1      15.863  28.112  14.320  1.00  0.00    -0.260 OA
BRANCH   9  11
HETATM   11  O   LIG     1      13.615  28.525  13.989  1.00  0.00    -0.319 OA
BRANCH  11  12
HETATM   12  C   LIG     1      13.115  27.223  13.695  1.00  0.00     0.174 C 
HETATM   13  C   LIG     1      11.775  27.311  12.975  1.00  0.00     0.034 C 
ENDBRANCH  11  12
ENDBRANCH   9  11
ENDBRANCH   1   9
TORSDOF 4
ENDMDL
