MODEL 1
REMARK VINA RESULT:      -6.8      0.000      0.000
REMARK  3 active torsions:
REMARK  status: ('A' for Active; 'I' for Inactive)
REMARK    1  A    between atoms: O_1  and  C_2 
REMARK    2  A    between atoms: C_2  and  C_3 
REMARK    3  A    between atoms: C_3  and  C_4 
ROOT
HETATM    1  C   LIG     1      17.378  36.278  24.287  1.00  0.00    -0.048 A 
HETATM    2  C   LIG     1      17.320  34.990  24.863  1.00  0.00     0.007 A 
HETATM    3  C   LIG     1      17.847  34.762  26.139  1.00  0.00     0.001 A 
HETATM    4  C   LIG     1      18.434  35.807  26.853  1.00  0.00     0.000 A 
HETATM    5  C   LIG     1      18.497  37.085  26.295  1.00  0.00     0.001 A 
HETATM    6  C   LIG     1      17.972  37.321  25.021  1.00  0.00     0.007 A 
ENDROOT
BRANCH   1   7
HETATM    7  C   LIG     1      16.826  36.599  22.913  1.00  0.00     0.148 C 
BRANCH   7   8
HETATM    8  C   LIG     1      16.161  37.938  22.807  1.00  0.00     0.143 C 
HETATM    9  O   LIG     1      16.733  38.882  22.200  1.00  0.00    -0.650 OA
BRANCH   8  10
HETATM   10  O   LIG     1      14.927  38.148  23.414  1.00  0.00    -0.776 OA
HETATM   11  H   LIG     1      14.250  38.784  23.010  1.00  0.00     0.167 HD
ENDBRANCH   8  10
ENDBRANCH   7   8
ENDBRANCH   1   7
TORSDOF 3
ENDMDL
MODEL 2
REMARK VINA RESULT:      -6.7      2.820      4.808
REMARK  3 active torsions:
REMARK  status: ('A' for Active; 'I' for Inactive)
REMARK    1  A    between atoms: O_1  and  C_2 
REMARK    2  A    between atoms: C_2  and  C_3 
REMARK    3  A    between atoms: C_3  and  C_4 
ROOT
HETATM    1  C   LIG     1      17.786  37.434  21.451  1.00  0.00    -0.048 A 
HETATM    2  C   LIG     1      18.248  38.767  21.532  1.00  0.00     0.007 A 
HETATM    3  C   LIG     1      19.058  39.296  20.523  1.00  0.00     0.001 A 
HETATM    4  C   LIG     1      19.418  38.510  19.427  1.00  0.00     0.000 A 
HETATM    5  C   LIG     1      18.968  37.192  19.335  1.00  0.00     0.001 A 
HETATM    6  C   LIG     1      18.156  36.657  20.340  1.00  0.00     0.007 A 
ENDROOT
BRANCH   1   7
HETATM    7  C   LIG     1      16.903  36.796  22.505  1.00  0.00     0.148 C 
BRANCH   7   8
HETATM    8  C   LIG     1      16.200  37.771  23.400  1.00  0.00     0.143 C 
HETATM    9  O   LIG     1      16.620  37.971  24.571  1.00  0.00    -0.650 OA
BRANCH   8  10
HETATM   10  O   LIG     1      15.057  38.424  22.950  1.00  0.00    -0.776 OA
HETATM   11  H   LIG     1      14.330  38.705  23.597  1.00  0.00     0.167 HD
ENDBRANCH   8  10
ENDBRANCH   7   8
ENDBRANCH   1   7
TORSDOF 3
ENDMDL
MODEL 3
REMARK VINA RESULT:      -6.6      3.024      5.022
REMARK  3 active torsions:
REMARK  status: ('A' for Active; 'I' for Inactive)
REMARK    1  A    between atoms: O_1  and  C_2 
REMARK    2  A    between atoms: C_2  and  C_3 
REMARK    3  A    between atoms: C_3  and  C_4 
ROOT
HETATM    1  C   LIG     1      17.887  38.537  21.574  1.00  0.00    -0.048 A 
HETATM    2  C   LIG     1      18.874  39.351  20.976  1.00  0.00     0.007 A 
HETATM    3  C   LIG     1      19.654  38.858  19.925  1.00  0.00     0.001 A 
HETATM    4  C   LIG     1      19.463  37.556  19.459  1.00  0.00     0.000 A 
HETATM    5  C   LIG     1      18.490  36.742  20.042  1.00  0.00     0.001 A 
HETATM    6  C   LIG     1      17.706  37.229  21.092  1.00  0.00     0.007 A 
ENDROOT
BRANCH   1   7
HETATM    7  C   LIG     1      17.004  39.005  22.714  1.00  0.00     0.148 C 
BRANCH   7   8
HETATM    8  C   LIG     1      17.274  38.331  24.025  1.00  0.00     0.143 C 
HETATM    9  O   LIG     1      16.325  37.830  24.685  1.00  0.00    -0.650 OA
BRANCH   8  10
HETATM   10  O   LIG     1      18.568  38.295  24.533  1.00  0.00    -0.776 OA
HETATM   11  H   LIG     1      19.370  38.377  23.919  1.00  0.00     0.167 HD
ENDBRANCH   8  10
ENDBRANCH   7   8
ENDBRANCH   1   7
TORSDOF 3
ENDMDL
MODEL 4
REMARK VINA RESULT:      -6.5      3.813      4.988
REMARK  3 active torsions:
REMARK  status: ('A' for Active; 'I' for Inactive)
REMARK    1  A    between atoms: O_1  and  C_2 
REMARK    2  A    between atoms: C_2  and  C_3 
REMARK    3  A    between atoms: C_3  and  C_4 
ROOT
HETATM    1  C   LIG     1      17.692  36.795  21.041  1.00  0.00    -0.048 A 
HETATM    2  C   LIG     1      17.542  37.982  21.792  1.00  0.00     0.007 A 
HETATM    3  C   LIG     1      18.272  39.127  21.457  1.00  0.00     0.001 A 
HETATM    4  C   LIG     1      19.157  39.104  20.378  1.00  0.00     0.000 A 
HETATM    5  C   LIG     1      19.314  37.937  19.628  1.00  0.00     0.001 A 
HETATM    6  C   LIG     1      18.586  36.790  19.956  1.00  0.00     0.007 A 
ENDROOT
BRANCH   1   7
HETATM    7  C   LIG     1      16.933  35.519  21.345  1.00  0.00     0.148 C 
BRANCH   7   8
HETATM    8  C   LIG     1      15.689  35.327  20.530  1.00  0.00     0.143 C 
HETATM    9  O   LIG     1      15.763  34.845  19.368  1.00  0.00    -0.650 OA
BRANCH   8  10
HETATM   10  O   LIG     1      14.457  35.721  21.042  1.00  0.00    -0.776 OA
HETATM   11  H   LIG     1      14.310  36.666  21.375  1.00  0.00     0.167 HD
ENDBRANCH   8  10
ENDBRANCH   7   8
ENDBRANCH   1   7
TORSDOF 3
ENDMDL
MODEL 5
REMARK VINA RESULT:      -6.3      1.395      2.256
REMARK  3 active torsions:
REMARK  status: ('A' for Active; 'I' for Inactive)
REMARK    1  A    between atoms: O_1  and  C_2 
REMARK    2  A    between atoms: C_2  and  C_3 
REMARK    3  A    between atoms: C_3  and  C_4 
ROOT
HETATM    1  C   LIG     1      17.168  36.720  24.234  1.00  0.00    -0.048 A 
HETATM    2  C   LIG     1      17.848  37.547  25.155  1.00  0.00     0.007 A 
HETATM    3  C   LIG     1      18.443  36.996  26.295  1.00  0.00     0.001 A 
HETATM    4  C   LIG     1      18.369  35.622  26.531  1.00  0.00     0.000 A 
HETATM    5  C   LIG     1      17.699  34.794  25.628  1.00  0.00     0.001 A 
HETATM    6  C   LIG     1      17.103  35.338  24.487  1.00  0.00     0.007 A 
ENDROOT
BRANCH   1   7
HETATM    7  C   LIG     1      16.502  37.247  22.979  1.00  0.00     0.148 C 
BRANCH   7   8
HETATM    8  C   LIG     1      17.374  37.230  21.760  1.00  0.00     0.143 C 
HETATM    9  O   LIG     1      17.422  36.203  21.032  1.00  0.00    -0.650 OA
BRANCH   8  10
HETATM   10  O   LIG     1      18.161  38.336  21.455  1.00  0.00    -0.776 OA
HETATM   11  H   LIG     1      18.022  39.220  21.929  1.00  0.00     0.167 HD
ENDBRANCH   8  10
ENDBRANCH   7   8
ENDBRANCH   1   7
TORSDOF 3
ENDMDL
MODEL 6
REMARK VINA RESULT:      -6.2      2.701      4.382
REMARK  3 active torsions:
REMARK  status: ('A' for Active; 'I' for Inactive)
REMARK    1  A    between atoms: O_1  and  C_2 
REMARK    2  A    between atoms: C_2  and  C_3 
REMARK    3  A    between atoms: C_3  and  C_4 
ROOT
HETATM    1  C   LIG     1      17.348  37.907  22.329  1.00  0.00    -0.048 A 
HETATM    2  C   LIG     1      17.477  36.805  21.455  1.00  0.00     0.007 A 
HETATM    3  C   LIG     1      18.262  36.906  20.302  1.00  0.00     0.001 A 
HETATM    4  C   LIG     1      18.924  38.098  20.005  1.00  0.00     0.000 A 
HETATM    5  C   LIG     1      18.806  39.194  20.861  1.00  0.00     0.001 A 
HETATM    6  C   LIG     1      18.024  39.100  22.017  1.00  0.00     0.007 A 
ENDROOT
BRANCH   1   7
HETATM    7  C   LIG     1      16.518  37.869  23.596  1.00  0.00     0.148 C 
BRANCH   7   8
HETATM    8  C   LIG     1      17.318  37.860  24.863  1.00  0.00     0.143 C 
HETATM    9  O   LIG     1      18.117  36.915  25.100  1.00  0.00    -0.650 OA
BRANCH   8  10
HETATM   10  O   LIG     1      17.147  38.876  25.798  1.00  0.00    -0.776 OA
HETATM   11  H   LIG     1      17.699  39.724  25.751  1.00  0.00     0.167 HD
ENDBRANCH   8  10
ENDBRANCH   7   8
ENDBRANCH   1   7
TORSDOF 3
ENDMDL
MODEL 7
REMARK VINA RESULT:      -6.2      3.103      4.726
REMARK  3 active torsions:
REMARK  status: ('A' for Active; 'I' for Inactive)
REMARK    1  A    between atoms: O_1  and  C_2 
REMARK    2  A    between atoms: C_2  and  C_3 
REMARK    3  A    between atoms: C_3  and  C_4 
ROOT
HETATM    1  C   LIG     1      17.623  37.556  21.357  1.00  0.00    -0.048 A 
HETATM    2  C   LIG     1      18.080  36.642  20.383  1.00  0.00     0.007 A 
HETATM    3  C   LIG     1      19.122  36.993  19.518  1.00  0.00     0.001 A 
HETATM    4  C   LIG     1      19.718  38.251  19.611  1.00  0.00     0.000 A 
HETATM    5  C   LIG     1      19.276  39.164  20.571  1.00  0.00     0.001 A 
HETATM    6  C   LIG     1      18.236  38.819  21.439  1.00  0.00     0.007 A 
ENDROOT
BRANCH   1   7
HETATM    7  C   LIG     1      16.502  37.244  22.328  1.00  0.00     0.148 C 
BRANCH   7   8
HETATM    8  C   LIG     1      16.945  36.578  23.596  1.00  0.00     0.143 C 
HETATM    9  O   LIG     1      17.155  37.264  24.631  1.00  0.00    -0.650 OA
BRANCH   8  10
HETATM   10  O   LIG     1      17.165  35.204  23.617  1.00  0.00    -0.776 OA
HETATM   11  H   LIG     1      18.066  34.818  23.363  1.00  0.00     0.167 HD
ENDBRANCH   8  10
ENDBRANCH   7   8
ENDBRANCH   1   7
TORSDOF 3
ENDMDL
MODEL 8
REMARK VINA RESULT:      -6.2      2.264      3.115
REMARK  3 active torsions:
REMARK  status: ('A' for Active; 'I' for Inactive)
REMARK    1  A    between atoms: O_1  and  C_2 
REMARK    2  A    between atoms: C_2  and  C_3 
REMARK    3  A    between atoms: C_3  and  C_4 
ROOT
HETATM    1  C   LIG     1      16.959  35.824  22.927  1.00  0.00    -0.048 A 
HETATM    2  C   LIG     1      17.013  37.225  23.098  1.00  0.00     0.007 A 
HETATM    3  C   LIG     1      17.288  37.773  24.355  1.00  0.00     0.001 A 
HETATM    4  C   LIG     1      17.512  36.939  25.451  1.00  0.00     0.000 A 
HETATM    5  C   LIG     1      17.462  35.553  25.295  1.00  0.00     0.001 A 
HETATM    6  C   LIG     1      17.188  34.998  24.041  1.00  0.00     0.007 A 
ENDROOT
BRANCH   1   7
HETATM    7  C   LIG     1      16.669  35.161  21.596  1.00  0.00     0.148 C 
BRANCH   7   8
HETATM    8  C   LIG     1      15.224  34.833  21.367  1.00  0.00     0.143 C 
HETATM    9  O   LIG     1      14.866  33.636  21.201  1.00  0.00    -0.650 OA
BRANCH   8  10
HETATM   10  O   LIG     1      14.284  35.855  21.298  1.00  0.00    -0.776 OA
HETATM   11  H   LIG     1      14.519  36.799  21.581  1.00  0.00     0.167 HD
ENDBRANCH   8  10
ENDBRANCH   7   8
ENDBRANCH   1   7
TORSDOF 3
ENDMDL
MODEL 9
REMARK VINA RESULT:      -6.1      3.748      4.671
REMARK  3 active torsions:
REMARK  status: ('A' for Active; 'I' for Inactive)
REMARK    1  A    between atoms: O_1  and  C_2 
REMARK    2  A    between atoms: C_2  and  C_3 
REMARK    3  A    between atoms: C_3  and  C_4 
ROOT
HETATM    1  C   LIG     1      18.210  37.405  20.590  1.00  0.00    -0.048 A 
HETATM    2  C   LIG     1      17.455  36.260  20.928  1.00  0.00     0.007 A 
HETATM    3  C   LIG     1      16.643  36.260  22.066  1.00  0.00     0.001 A 
HETATM    4  C   LIG     1      16.572  37.393  22.879  1.00  0.00     0.000 A 
HETATM    5  C   LIG     1      17.313  38.531  22.555  1.00  0.00     0.001 A 
HETATM    6  C   LIG     1      18.126  38.538  21.418  1.00  0.00     0.007 A 
ENDROOT
BRANCH   1   7
HETATM    7  C   LIG     1      19.108  37.477  19.371  1.00  0.00     0.148 C 
BRANCH   7   8
HETATM    8  C   LIG     1      19.490  38.868  18.963  1.00  0.00     0.143 C 
HETATM    9  O   LIG     1      20.598  39.350  19.320  1.00  0.00    -0.650 OA
BRANCH   8  10
HETATM   10  O   LIG     1      18.602  39.642  18.223  1.00  0.00    -0.776 OA
HETATM   11  H   LIG     1      18.755  40.636  18.101  1.00  0.00     0.167 HD
ENDBRANCH   8  10
ENDBRANCH   7   8
ENDBRANCH   1   7
TORSDOF 3
ENDMDL
MODEL 10
REMARK VINA RESULT:      -5.7      9.298     10.872
REMARK  3 active torsions:
REMARK  status: ('A' for Active; 'I' for Inactive)
REMARK    1  A    between atoms: O_1  and  C_2 
REMARK    2  A    between atoms: C_2  and  C_3 
REMARK    3  A    between atoms: C_3  and  C_4 
ROOT
HETATM    1  C   LIG     1      14.187  31.483  15.945  1.00  0.00    -0.048 A 
HETATM    2  C   LIG     1      13.396  30.389  15.530  1.00  0.00     0.007 A 
HETATM    3  C   LIG     1      13.799  29.596  14.450  1.00  0.00     0.001 A 
HETATM    4  C   LIG     1      14.986  29.880  13.775  1.00  0.00     0.000 A 
HETATM    5  C   LIG     1      15.777  30.958  14.176  1.00  0.00     0.001 A 
HETATM    6  C   LIG     1      15.382  31.755  15.255  1.00  0.00     0.007 A 
ENDROOT
BRANCH   1   7
HETATM    7  C   LIG     1      13.815  32.383  17.106  1.00  0.00     0.148 C 
BRANCH   7   8
HETATM    8  C   LIG     1      14.632  32.170  18.345  1.00  0.00     0.143 C 
HETATM    9  O   LIG     1      15.692  32.826  18.523  1.00  0.00    -0.650 OA
BRANCH   8  10
HETATM   10  O   LIG     1      14.239  31.217  19.279  1.00  0.00    -0.776 OA
HETATM   11  H   LIG     1      13.861  30.325  18.984  1.00  0.00     0.167 HD
ENDBRANCH   8  10
ENDBRANCH   7   8
ENDBRANCH   1   7
TORSDOF 3
ENDMDL
MODEL 11
REMARK VINA RESULT:      -5.6      9.087     10.676
REMARK  3 active torsions:
REMARK  status: ('A' for Active; 'I' for Inactive)
REMARK    1  A    between atoms: O_1  and  C_2 
REMARK    2  A    between atoms: C_2  and  C_3 
REMARK    3  A    between atoms: C_3  and  C_4 
ROOT
HETATM    1  C   LIG     1      14.758  31.602  16.143  1.00  0.00    -0.048 A 
HETATM    2  C   LIG     1      13.542  30.891  16.255  1.00  0.00     0.007 A 
HETATM    3  C   LIG     1      13.165  29.979  15.264  1.00  0.00     0.001 A 
HETATM    4  C   LIG     1      13.986  29.764  14.157  1.00  0.00     0.000 A 
HETATM    5  C   LIG     1      15.190  30.460  14.036  1.00  0.00     0.001 A 
HETATM    6  C   LIG     1      15.575  31.373  15.022  1.00  0.00     0.007 A 
ENDROOT
BRANCH   1   7
HETATM    7  C   LIG     1      15.232  32.603  17.178  1.00  0.00     0.148 C 
BRANCH   7   8
HETATM    8  C   LIG     1      15.123  34.036  16.751  1.00  0.00     0.143 C 
HETATM    9  O   LIG     1      16.123  34.629  16.267  1.00  0.00    -0.650 OA
BRANCH   8  10
HETATM   10  O   LIG     1      13.926  34.723  16.929  1.00  0.00    -0.776 OA
HETATM   11  H   LIG     1      13.753  35.256  17.773  1.00  0.00     0.167 HD
ENDBRANCH   8  10
ENDBRANCH   7   8
ENDBRANCH   1   7
TORSDOF 3
ENDMDL
MODEL 12
REMARK VINA RESULT:      -5.6      9.847     11.068
REMARK  3 active torsions:
REMARK  status: ('A' for Active; 'I' for Inactive)
REMARK    1  A    between atoms: O_1  and  C_2 
REMARK    2  A    between atoms: C_2  and  C_3 
REMARK    3  A    between atoms: C_3  and  C_4 
ROOT
HETATM    1  C   LIG     1      16.230  32.185  15.241  1.00  0.00    -0.048 A 
HETATM    2  C   LIG     1      15.713  31.125  14.464  1.00  0.00     0.007 A 
HETATM    3  C   LIG     1      14.499  30.522  14.810  1.00  0.00     0.001 A 
HETATM    4  C   LIG     1      13.789  30.963  15.927  1.00  0.00     0.000 A 
HETATM    5  C   LIG     1      14.289  32.011  16.702  1.00  0.00     0.001 A 
HETATM    6  C   LIG     1      15.501  32.619  16.362  1.00  0.00     0.007 A 
ENDROOT
BRANCH   1   7
HETATM    7  C   LIG     1      17.535  32.887  14.925  1.00  0.00     0.148 C 
BRANCH   7   8
HETATM    8  C   LIG     1      17.596  33.502  13.559  1.00  0.00     0.143 C 
HETATM    9  O   LIG     1      17.361  34.731  13.409  1.00  0.00    -0.650 OA
BRANCH   8  10
HETATM   10  O   LIG     1      17.872  32.706  12.452  1.00  0.00    -0.776 OA
HETATM   11  H   LIG     1      18.797  32.322  12.305  1.00  0.00     0.167 HD
ENDBRANCH   8  10
ENDBRANCH   7   8
ENDBRANCH   1   7
TORSDOF 3
ENDMDL
MODEL 13
REMARK VINA RESULT:      -5.5      9.747     10.890
REMARK  3 active torsions:
REMARK  status: ('A' for Active; 'I' for Inactive)
REMARK    1  A    between atoms: O_1  and  C_2 
REMARK    2  A    between atoms: C_2  and  C_3 
REMARK    3  A    between atoms: C_3  and  C_4 
ROOT
HETATM    1  C   LIG     1      15.715  31.674  15.380  1.00  0.00    -0.048 A 
HETATM    2  C   LIG     1      15.311  30.670  14.472  1.00  0.00     0.007 A 
HETATM    3  C   LIG     1      14.048  30.080  14.588  1.00  0.00     0.001 A 
HETATM    4  C   LIG     1      13.176  30.479  15.602  1.00  0.00     0.000 A 
HETATM    5  C   LIG     1      13.564  31.471  16.505  1.00  0.00     0.001 A 
HETATM    6  C   LIG     1      14.824  32.066  16.395  1.00  0.00     0.007 A 
ENDROOT
BRANCH   1   7
HETATM    7  C   LIG     1      17.065  32.358  15.314  1.00  0.00     0.148 C 
BRANCH   7   8
HETATM    8  C   LIG     1      17.033  33.744  14.743  1.00  0.00     0.143 C 
HETATM    9  O   LIG     1      17.092  33.915  13.497  1.00  0.00    -0.650 OA
BRANCH   8  10
HETATM   10  O   LIG     1      16.979  34.843  15.594  1.00  0.00    -0.776 OA
HETATM   11  H   LIG     1      16.280  35.565  15.468  1.00  0.00     0.167 HD
ENDBRANCH   8  10
ENDBRANCH   7   8
ENDBRANCH   1   7
TORSDOF 3
ENDMDL
MODEL 14
REMARK VINA RESULT:      -5.5      9.620     10.882
REMARK  3 active torsions:
REMARK  status: ('A' for Active; 'I' for Inactive)
REMARK    1  A    between atoms: O_1  and  C_2 
REMARK    2  A    between atoms: C_2  and  C_3 
REMARK    3  A    between atoms: C_3  and  C_4 
ROOT
HETATM    1  C   LIG     1      15.583  31.788  15.547  1.00  0.00    -0.048 A 
HETATM    2  C   LIG     1      14.763  32.257  16.597  1.00  0.00     0.007 A 
HETATM    3  C   LIG     1      13.491  31.710  16.799  1.00  0.00     0.001 A 
HETATM    4  C   LIG     1      13.023  30.695  15.963  1.00  0.00     0.000 A 
HETATM    5  C   LIG     1      13.824  30.223  14.922  1.00  0.00     0.001 A 
HETATM    6  C   LIG     1      15.096  30.764  14.715  1.00  0.00     0.007 A 
ENDROOT
BRANCH   1   7
HETATM    7  C   LIG     1      16.970  32.331  15.271  1.00  0.00     0.148 C 
BRANCH   7   8
HETATM    8  C   LIG     1      16.991  33.660  14.579  1.00  0.00     0.143 C 
HETATM    9  O   LIG     1      17.092  34.721  15.250  1.00  0.00    -0.650 OA
BRANCH   8  10
HETATM   10  O   LIG     1      16.857  33.723  13.195  1.00  0.00    -0.776 OA
HETATM   11  H   LIG     1      16.346  34.480  12.756  1.00  0.00     0.167 HD
ENDBRANCH   8  10
ENDBRANCH   7   8
ENDBRANCH   1   7
TORSDOF 3
ENDMDL
MODEL 15
REMARK VINA RESULT:      -5.5     10.930     12.189
REMARK  3 active torsions:
REMARK  status: ('A' for Active; 'I' for Inactive)
REMARK    1  A    between atoms: O_1  and  C_2 
REMARK    2  A    between atoms: C_2  and  C_3 
REMARK    3  A    between atoms: C_3  and  C_4 
ROOT
HETATM    1  C   LIG     1      14.715  30.659  14.794  1.00  0.00    -0.048 A 
HETATM    2  C   LIG     1      13.488  30.411  15.448  1.00  0.00     0.007 A 
HETATM    3  C   LIG     1      13.095  31.198  16.535  1.00  0.00     0.001 A 
HETATM    4  C   LIG     1      13.913  32.237  16.983  1.00  0.00     0.000 A 
HETATM    5  C   LIG     1      15.128  32.492  16.345  1.00  0.00     0.001 A 
HETATM    6  C   LIG     1      15.527  31.710  15.257  1.00  0.00     0.007 A 
ENDROOT
BRANCH   1   7
HETATM    7  C   LIG     1      15.204  29.849  13.611  1.00  0.00     0.148 C 
BRANCH   7   8
HETATM    8  C   LIG     1      15.007  28.370  13.746  1.00  0.00     0.143 C 
HETATM    9  O   LIG     1      15.966  27.634  14.103  1.00  0.00    -0.650 OA
BRANCH   8  10
HETATM   10  O   LIG     1      13.774  27.804  13.438  1.00  0.00    -0.776 OA
HETATM   11  H   LIG     1      13.158  27.469  14.169  1.00  0.00     0.167 HD
ENDBRANCH   8  10
ENDBRANCH   7   8
ENDBRANCH   1   7
TORSDOF 3
ENDMDL
MODEL 16
REMARK VINA RESULT:      -4.6     10.926     12.219
REMARK  3 active torsions:
REMARK  status: ('A' for Active; 'I' for Inactive)
REMARK    1  A    between atoms: O_1  and  C_2 
REMARK    2  A    between atoms: C_2  and  C_3 
REMARK    3  A    between atoms: C_3  and  C_4 
ROOT
HETATM    1  C   LIG     1      15.049  31.304  14.789  1.00  0.00    -0.048 A 
HETATM    2  C   LIG     1      15.573  31.392  13.480  1.00  0.00     0.007 A 
HETATM    3  C   LIG     1      16.600  32.296  13.190  1.00  0.00     0.001 A 
HETATM    4  C   LIG     1      17.114  33.119  14.192  1.00  0.00     0.000 A 
HETATM    5  C   LIG     1      16.605  33.042  15.490  1.00  0.00     0.001 A 
HETATM    6  C   LIG     1      15.579  32.139  15.788  1.00  0.00     0.007 A 
ENDROOT
BRANCH   1   7
HETATM    7  C   LIG     1      13.939  30.347  15.176  1.00  0.00     0.148 C 
BRANCH   7   8
HETATM    8  C   LIG     1      13.817  29.145  14.289  1.00  0.00     0.143 C 
HETATM    9  O   LIG     1      14.843  28.487  13.971  1.00  0.00    -0.650 OA
BRANCH   8  10
HETATM   10  O   LIG     1      12.573  28.780  13.784  1.00  0.00    -0.776 OA
HETATM   11  H   LIG     1      11.799  29.432  13.788  1.00  0.00     0.167 HD
ENDBRANCH   8  10
ENDBRANCH   7   8
ENDBRANCH   1   7
TORSDOF 3
ENDMDL
MODEL 17
REMARK VINA RESULT:      -4.2     12.233     13.549
REMARK  3 active torsions:
REMARK  status: ('A' for Active; 'I' for Inactive)
REMARK    1  A    between atoms: O_1  and  C_2 
REMARK    2  A    between atoms: C_2  and  C_3 
REMARK    3  A    between atoms: C_3  and  C_4 
ROOT
HETATM    1  C   LIG     1      13.951  29.038  14.409  1.00  0.00    -0.048 A 
HETATM    2  C   LIG     1      15.027  29.614  13.699  1.00  0.00     0.007 A 
HETATM    3  C   LIG     1      15.502  30.883  14.044  1.00  0.00     0.001 A 
HETATM    4  C   LIG     1      14.916  31.591  15.094  1.00  0.00     0.000 A 
HETATM    5  C   LIG     1      13.852  31.033  15.804  1.00  0.00     0.001 A 
HETATM    6  C   LIG     1      13.372  29.764  15.465  1.00  0.00     0.007 A 
ENDROOT
BRANCH   1   7
HETATM    7  C   LIG     1      13.386  27.667  14.093  1.00  0.00     0.148 C 
BRANCH   7   8
HETATM    8  C   LIG     1      12.027  27.686  13.461  1.00  0.00     0.143 C 
HETATM    9  O   LIG     1      11.451  26.605  13.170  1.00  0.00    -0.650 OA
BRANCH   8  10
HETATM   10  O   LIG     1      11.420  28.901  13.160  1.00  0.00    -0.776 OA
HETATM   11  H   LIG     1      10.450  28.940  12.871  1.00  0.00     0.167 HD
ENDBRANCH   8  10
ENDBRANCH   7   8
ENDBRANCH   1   7
TORSDOF 3
ENDMDL
MODEL 18
REMARK VINA RESULT:      -4.1     15.871     16.269
REMARK  3 active torsions:
REMARK  status: ('A' for Active; 'I' for Inactive)
REMARK    1  A    between atoms: O_1  and  C_2 
REMARK    2  A    between atoms: C_2  and  C_3 
REMARK    3  A    between atoms: C_3  and  C_4 
ROOT
HETATM    1  C   LIG     1      26.681  30.545  34.903  1.00  0.00    -0.048 A 
HETATM    2  C   LIG     1      26.421  29.206  34.537  1.00  0.00     0.007 A 
HETATM    3  C   LIG     1      27.269  28.541  33.645  1.00  0.00     0.001 A 
HETATM    4  C   LIG     1      28.379  29.196  33.110  1.00  0.00     0.000 A 
HETATM    5  C   LIG     1      28.646  30.519  33.464  1.00  0.00     0.001 A 
HETATM    6  C   LIG     1      27.804  31.190  34.356  1.00  0.00     0.007 A 
ENDROOT
BRANCH   1   7
HETATM    7  C   LIG     1      25.808  31.327  35.864  1.00  0.00     0.148 C 
BRANCH   7   8
HETATM    8  C   LIG     1      25.992  30.963  37.307  1.00  0.00     0.143 C 
HETATM    9  O   LIG     1      26.845  31.570  38.008  1.00  0.00    -0.650 OA
BRANCH   8  10
HETATM   10  O   LIG     1      25.247  29.927  37.860  1.00  0.00    -0.776 OA
HETATM   11  H   LIG     1      25.126  29.852  38.863  1.00  0.00     0.167 HD
ENDBRANCH   8  10
ENDBRANCH   7   8
ENDBRANCH   1   7
TORSDOF 3
ENDMDL
MODEL 19
REMARK VINA RESULT:      -3.8     15.463     16.463
REMARK  3 active torsions:
REMARK  status: ('A' for Active; 'I' for Inactive)
REMARK    1  A    between atoms: O_1  and  C_2 
REMARK    2  A    between atoms: C_2  and  C_3 
REMARK    3  A    between atoms: C_3  and  C_4 
ROOT
HETATM    1  C   LIG     1      26.961  28.894  35.164  1.00  0.00    -0.048 A 
HETATM    2  C   LIG     1      27.015  28.483  36.514  1.00  0.00     0.007 A 
HETATM    3  C   LIG     1      26.483  29.294  37.521  1.00  0.00     0.001 A 
HETATM    4  C   LIG     1      25.894  30.518  37.200  1.00  0.00     0.000 A 
HETATM    5  C   LIG     1      25.834  30.936  35.869  1.00  0.00     0.001 A 
HETATM    6  C   LIG     1      26.363  30.129  34.857  1.00  0.00     0.007 A 
ENDROOT
BRANCH   1   7
HETATM    7  C   LIG     1      27.514  28.067  34.021  1.00  0.00     0.148 C 
BRANCH   7   8
HETATM    8  C   LIG     1      26.514  27.162  33.367  1.00  0.00     0.143 C 
HETATM    9  O   LIG     1      26.130  27.390  32.189  1.00  0.00    -0.650 OA
BRANCH   8  10
HETATM   10  O   LIG     1      25.978  26.093  34.078  1.00  0.00    -0.776 OA
HETATM   11  H   LIG     1      26.419  25.181  34.056  1.00  0.00     0.167 HD
ENDBRANCH   8  10
ENDBRANCH   7   8
ENDBRANCH   1   7
TORSDOF 3
ENDMDL
MODEL 20
REMARK VINA RESULT:      -3.8     15.441     16.560
REMARK  3 active torsions:
REMARK  status: ('A' for Active; 'I' for Inactive)
REMARK    1  A    between atoms: O_1  and  C_2 
REMARK    2  A    between atoms: C_2  and  C_3 
REMARK    3  A    between atoms: C_3  and  C_4 
ROOT
HETATM    1  C   LIG     1      26.884  29.154  35.269  1.00  0.00    -0.048 A 
HETATM    2  C   LIG     1      26.368  30.442  35.009  1.00  0.00     0.007 A 
HETATM    3  C   LIG     1      25.872  31.229  36.054  1.00  0.00     0.001 A 
HETATM    4  C   LIG     1      25.883  30.746  37.363  1.00  0.00     0.000 A 
HETATM    5  C   LIG     1      26.391  29.474  37.633  1.00  0.00     0.001 A 
HETATM    6  C   LIG     1      26.889  28.682  36.594  1.00  0.00     0.007 A 
ENDROOT
BRANCH   1   7
HETATM    7  C   LIG     1      27.439  28.248  34.189  1.00  0.00     0.148 C 
BRANCH   7   8
HETATM    8  C   LIG     1      26.490  27.187  33.719  1.00  0.00     0.143 C 
HETATM    9  O   LIG     1      26.407  26.093  34.339  1.00  0.00    -0.650 OA
BRANCH   8  10
HETATM   10  O   LIG     1      25.729  27.395  32.573  1.00  0.00    -0.776 OA
HETATM   11  H   LIG     1      25.610  26.660  31.888  1.00  0.00     0.167 HD
ENDBRANCH   8  10
ENDBRANCH   7   8
ENDBRANCH   1   7
TORSDOF 3
ENDMDL
