REMARK  6 active torsions:
REMARK  status: ('A' for Active; 'I' for Inactive)
REMARK    1  A    between atoms: O_1  and  C_2 
REMARK    2  A    between atoms: C_2  and  C_3 
REMARK    3  A    between atoms: C_3  and  C_4 
REMARK    4  A    between atoms: C_3  and  C_6 
REMARK    5  A    between atoms: C_6  and  C_7 
REMARK    6  A    between atoms: C_7  and  C_8 
ROOT
HETATM    1  C   LIG     1      -1.366  -0.373  -0.308  1.00  0.00     0.009 C 
ENDROOT
BRANCH   1   2
HETATM    2  C   LIG     1      -1.721  -1.843   0.007  1.00  0.00     0.168 C 
BRANCH   2   3
HETATM    3  O   LIG     1      -1.349  -2.694  -1.044  1.00  0.00    -0.400 OA
HETATM    4  H   LIG     1      -1.996  -2.535  -1.780  1.00  0.00     0.209 HD
ENDBRANCH   2   3
ENDBRANCH   1   2
BRANCH   1   5
HETATM    5  C   LIG     1      -1.826   0.541   0.853  1.00  0.00     0.002 C 
HETATM    6  C   LIG     1      -1.640   2.030   0.558  1.00  0.00     0.005 C 
ENDBRANCH   1   5
BRANCH   1   7
HETATM    7  C   LIG     1       0.129  -0.194  -0.692  1.00  0.00     0.007 C 
BRANCH   7   8
HETATM    8  C   LIG     1       1.122  -0.431   0.463  1.00  0.00     0.000 C 
BRANCH   8   9
HETATM    9  C   LIG     1       2.585  -0.379  -0.003  1.00  0.00    -0.005 C 
HETATM   10  C   LIG     1       3.038   1.033  -0.375  1.00  0.00     0.005 C 
ENDBRANCH   8   9
ENDBRANCH   7   8
ENDBRANCH   1   7
TORSDOF 6
