REMARK  3 active torsions:
REMARK  status: ('A' for Active; 'I' for Inactive)
REMARK    1  A    between atoms: C_2  and  C_3 
REMARK    2  A    between atoms: C_3  and  C_4 
REMARK    3  A    between atoms: C_4  and  C_5 
ROOT
HETATM    1  C   LIG     1       1.139  -0.218  -0.306  1.00  0.00    -0.058 A 
HETATM    2  C   LIG     1       2.171  -0.812  -1.054  1.00  0.00     0.007 A 
HETATM    3  C   LIG     1       3.511  -0.527  -0.773  1.00  0.00     0.001 A 
HETATM    4  C   LIG     1       3.837   0.355   0.259  1.00  0.00     0.000 A 
HETATM    5  C   LIG     1       2.825   0.953   1.011  1.00  0.00     0.001 A 
HETATM    6  C   LIG     1       1.483   0.673   0.735  1.00  0.00     0.007 A 
ENDROOT
BRANCH   1   7
HETATM    7  C   LIG     1      -0.291  -0.573  -0.667  1.00  0.00     0.038 C 
BRANCH   7   8
HETATM    8  C   LIG     1      -1.375   0.107   0.185  1.00  0.00     0.004 C 
BRANCH   8   9
HETATM    9  C   LIG     1      -2.776  -0.322  -0.265  1.00  0.00    -0.004 C 
HETATM   10  C   LIG     1      -3.856   0.350   0.578  1.00  0.00     0.005 C 
ENDBRANCH   8   9
ENDBRANCH   7   8
ENDBRANCH   1   7
TORSDOF 3
