MODEL 1
REMARK VINA RESULT:      -6.8      0.000      0.000
REMARK  2 active torsions:
REMARK  status: ('A' for Active; 'I' for Inactive)
REMARK    1  A    between atoms: C_3  and  C_4 
REMARK    2  A    between atoms: C_7  and  O_8 
ROOT
HETATM    1  C   LIG     1      17.190  35.989  23.974  1.00  0.00    -0.036 A 
HETATM    2  C   LIG     1      17.155  35.685  22.607  1.00  0.00     0.014 A 
HETATM    3  C   LIG     1      17.323  36.693  21.653  1.00  0.00     0.037 A 
HETATM    4  C   LIG     1      17.506  38.029  22.057  1.00  0.00     0.068 A 
HETATM    5  C   LIG     1      17.510  38.334  23.424  1.00  0.00     0.037 A 
HETATM    6  C   LIG     1      17.344  37.325  24.377  1.00  0.00     0.014 A 
ENDROOT
BRANCH   1   7
HETATM    7  C   LIG     1      16.981  34.907  24.959  1.00  0.00     0.007 C 
HETATM    8  C   LIG     1      17.568  34.857  26.163  1.00  0.00    -0.030 C 
HETATM    9  C   LIG     1      18.549  35.873  26.664  1.00  0.00     0.036 C 
ENDBRANCH   1   7
BRANCH   4  10
HETATM   10  O   LIG     1      17.680  39.076  21.141  1.00  0.00    -0.356 OA
HETATM   11  C   LIG     1      18.925  39.421  20.541  1.00  0.00     0.210 C 
ENDBRANCH   4  10
TORSDOF 2
ENDMDL
MODEL 2
REMARK VINA RESULT:      -6.8      1.740      2.282
REMARK  2 active torsions:
REMARK  status: ('A' for Active; 'I' for Inactive)
REMARK    1  A    between atoms: C_3  and  C_4 
REMARK    2  A    between atoms: C_7  and  O_8 
ROOT
HETATM    1  C   LIG     1      17.253  37.811  22.904  1.00  0.00    -0.036 A 
HETATM    2  C   LIG     1      17.150  36.681  22.084  1.00  0.00     0.014 A 
HETATM    3  C   LIG     1      17.760  36.660  20.826  1.00  0.00     0.037 A 
HETATM    4  C   LIG     1      18.466  37.786  20.361  1.00  0.00     0.068 A 
HETATM    5  C   LIG     1      18.542  38.925  21.172  1.00  0.00     0.037 A 
HETATM    6  C   LIG     1      17.934  38.944  22.429  1.00  0.00     0.014 A 
ENDROOT
BRANCH   1   7
HETATM    7  C   LIG     1      16.575  37.815  24.217  1.00  0.00     0.007 C 
HETATM    8  C   LIG     1      17.181  37.554  25.383  1.00  0.00    -0.030 C 
HETATM    9  C   LIG     1      18.627  37.183  25.514  1.00  0.00     0.036 C 
ENDBRANCH   1   7
BRANCH   4  10
HETATM   10  O   LIG     1      19.096  37.815  19.109  1.00  0.00    -0.356 OA
HETATM   11  C   LIG     1      19.080  38.934  18.227  1.00  0.00     0.210 C 
ENDBRANCH   4  10
TORSDOF 2
ENDMDL
MODEL 3
REMARK VINA RESULT:      -6.7      2.589      4.034
REMARK  2 active torsions:
REMARK  status: ('A' for Active; 'I' for Inactive)
REMARK    1  A    between atoms: C_3  and  C_4 
REMARK    2  A    between atoms: C_7  and  O_8 
ROOT
HETATM    1  C   LIG     1      17.803  37.265  21.271  1.00  0.00    -0.036 A 
HETATM    2  C   LIG     1      17.963  38.648  21.423  1.00  0.00     0.014 A 
HETATM    3  C   LIG     1      18.564  39.407  20.414  1.00  0.00     0.037 A 
HETATM    4  C   LIG     1      19.035  38.783  19.243  1.00  0.00     0.068 A 
HETATM    5  C   LIG     1      18.900  37.395  19.108  1.00  0.00     0.037 A 
HETATM    6  C   LIG     1      18.297  36.638  20.116  1.00  0.00     0.014 A 
ENDROOT
BRANCH   1   7
HETATM    7  C   LIG     1      17.189  36.485  22.367  1.00  0.00     0.007 C 
HETATM    8  C   LIG     1      16.102  35.713  22.230  1.00  0.00    -0.030 C 
HETATM    9  C   LIG     1      15.333  35.563  20.953  1.00  0.00     0.036 C 
ENDBRANCH   1   7
BRANCH   4  10
HETATM   10  O   LIG     1      19.643  39.498  18.201  1.00  0.00    -0.356 OA
HETATM   11  C   LIG     1      19.081  39.661  16.902  1.00  0.00     0.210 C 
ENDBRANCH   4  10
TORSDOF 2
ENDMDL
MODEL 4
REMARK VINA RESULT:      -6.6      2.130      5.831
REMARK  2 active torsions:
REMARK  status: ('A' for Active; 'I' for Inactive)
REMARK    1  A    between atoms: C_3  and  C_4 
REMARK    2  A    between atoms: C_7  and  O_8 
ROOT
HETATM    1  C   LIG     1      19.153  38.466  19.597  1.00  0.00    -0.036 A 
HETATM    2  C   LIG     1      18.771  37.118  19.610  1.00  0.00     0.014 A 
HETATM    3  C   LIG     1      17.940  36.627  20.622  1.00  0.00     0.037 A 
HETATM    4  C   LIG     1      17.496  37.479  21.651  1.00  0.00     0.068 A 
HETATM    5  C   LIG     1      17.905  38.819  21.651  1.00  0.00     0.037 A 
HETATM    6  C   LIG     1      18.734  39.309  20.639  1.00  0.00     0.014 A 
ENDROOT
BRANCH   1   7
HETATM    7  C   LIG     1      20.055  38.949  18.531  1.00  0.00     0.007 C 
HETATM    8  C   LIG     1      19.648  39.599  17.431  1.00  0.00    -0.030 C 
HETATM    9  C   LIG     1      18.213  39.891  17.111  1.00  0.00     0.036 C 
ENDBRANCH   1   7
BRANCH   4  10
HETATM   10  O   LIG     1      16.661  37.037  22.687  1.00  0.00    -0.356 OA
HETATM   11  C   LIG     1      16.753  37.481  24.038  1.00  0.00     0.210 C 
ENDBRANCH   4  10
TORSDOF 2
ENDMDL
MODEL 5
REMARK VINA RESULT:      -6.6      1.504      2.435
REMARK  2 active torsions:
REMARK  status: ('A' for Active; 'I' for Inactive)
REMARK    1  A    between atoms: C_3  and  C_4 
REMARK    2  A    between atoms: C_7  and  O_8 
ROOT
HETATM    1  C   LIG     1      17.465  36.853  24.446  1.00  0.00    -0.036 A 
HETATM    2  C   LIG     1      17.130  35.545  24.073  1.00  0.00     0.014 A 
HETATM    3  C   LIG     1      16.872  35.234  22.734  1.00  0.00     0.037 A 
HETATM    4  C   LIG     1      16.925  36.240  21.750  1.00  0.00     0.068 A 
HETATM    5  C   LIG     1      17.231  37.552  22.131  1.00  0.00     0.037 A 
HETATM    6  C   LIG     1      17.491  37.861  23.469  1.00  0.00     0.014 A 
ENDROOT
BRANCH   1   7
HETATM    7  C   LIG     1      17.705  37.157  25.872  1.00  0.00     0.007 C 
HETATM    8  C   LIG     1      18.214  36.287  26.756  1.00  0.00    -0.030 C 
HETATM    9  C   LIG     1      18.575  34.870  26.429  1.00  0.00     0.036 C 
ENDBRANCH   1   7
BRANCH   4  10
HETATM   10  O   LIG     1      16.676  35.981  20.394  1.00  0.00    -0.356 OA
HETATM   11  C   LIG     1      15.755  35.004  19.919  1.00  0.00     0.210 C 
ENDBRANCH   4  10
TORSDOF 2
ENDMDL
MODEL 6
REMARK VINA RESULT:      -6.5      1.873      4.814
REMARK  2 active torsions:
REMARK  status: ('A' for Active; 'I' for Inactive)
REMARK    1  A    between atoms: C_3  and  C_4 
REMARK    2  A    between atoms: C_7  and  O_8 
ROOT
HETATM    1  C   LIG     1      18.041  38.516  21.937  1.00  0.00    -0.036 A 
HETATM    2  C   LIG     1      17.175  37.423  21.801  1.00  0.00     0.014 A 
HETATM    3  C   LIG     1      16.813  36.662  22.916  1.00  0.00     0.037 A 
HETATM    4  C   LIG     1      17.334  36.973  24.187  1.00  0.00     0.068 A 
HETATM    5  C   LIG     1      18.223  38.048  24.314  1.00  0.00     0.037 A 
HETATM    6  C   LIG     1      18.583  38.809  23.199  1.00  0.00     0.014 A 
ENDROOT
BRANCH   1   7
HETATM    7  C   LIG     1      18.427  39.284  20.736  1.00  0.00     0.007 C 
HETATM    8  C   LIG     1      19.059  38.764  19.675  1.00  0.00    -0.030 C 
HETATM    9  C   LIG     1      19.497  37.334  19.575  1.00  0.00     0.036 C 
ENDBRANCH   1   7
BRANCH   4  10
HETATM   10  O   LIG     1      17.003  36.242  25.337  1.00  0.00    -0.356 OA
HETATM   11  C   LIG     1      17.613  35.010  25.710  1.00  0.00     0.210 C 
ENDBRANCH   4  10
TORSDOF 2
ENDMDL
MODEL 7
REMARK VINA RESULT:      -6.5      2.462      3.941
REMARK  2 active torsions:
REMARK  status: ('A' for Active; 'I' for Inactive)
REMARK    1  A    between atoms: C_3  and  C_4 
REMARK    2  A    between atoms: C_7  and  O_8 
ROOT
HETATM    1  C   LIG     1      16.730  37.375  22.251  1.00  0.00    -0.036 A 
HETATM    2  C   LIG     1      15.463  36.780  22.267  1.00  0.00     0.014 A 
HETATM    3  C   LIG     1      15.156  35.742  21.382  1.00  0.00     0.037 A 
HETATM    4  C   LIG     1      16.113  35.299  20.449  1.00  0.00     0.068 A 
HETATM    5  C   LIG     1      17.369  35.917  20.416  1.00  0.00     0.037 A 
HETATM    6  C   LIG     1      17.676  36.953  21.302  1.00  0.00     0.014 A 
ENDROOT
BRANCH   1   7
HETATM    7  C   LIG     1      17.016  38.489  23.179  1.00  0.00     0.007 C 
HETATM    8  C   LIG     1      17.407  38.332  24.452  1.00  0.00    -0.030 C 
HETATM    9  C   LIG     1      17.571  37.003  25.123  1.00  0.00     0.036 C 
ENDBRANCH   1   7
BRANCH   4  10
HETATM   10  O   LIG     1      15.857  34.262  19.540  1.00  0.00    -0.356 OA
HETATM   11  C   LIG     1      15.364  32.977  19.907  1.00  0.00     0.210 C 
ENDBRANCH   4  10
TORSDOF 2
ENDMDL
MODEL 8
REMARK VINA RESULT:      -6.3      2.201      4.382
REMARK  2 active torsions:
REMARK  status: ('A' for Active; 'I' for Inactive)
REMARK    1  A    between atoms: C_3  and  C_4 
REMARK    2  A    between atoms: C_7  and  O_8 
ROOT
HETATM    1  C   LIG     1      16.857  36.017  22.014  1.00  0.00    -0.036 A 
HETATM    2  C   LIG     1      17.070  35.028  22.983  1.00  0.00     0.014 A 
HETATM    3  C   LIG     1      17.302  35.380  24.316  1.00  0.00     0.037 A 
HETATM    4  C   LIG     1      17.346  36.736  24.694  1.00  0.00     0.068 A 
HETATM    5  C   LIG     1      17.162  37.722  23.717  1.00  0.00     0.037 A 
HETATM    6  C   LIG     1      16.928  37.369  22.385  1.00  0.00     0.014 A 
ENDROOT
BRANCH   1   7
HETATM    7  C   LIG     1      16.642  35.615  20.608  1.00  0.00     0.007 C 
HETATM    8  C   LIG     1      15.726  34.722  20.208  1.00  0.00    -0.030 C 
HETATM    9  C   LIG     1      14.817  33.976  21.136  1.00  0.00     0.036 C 
ENDBRANCH   1   7
BRANCH   4  10
HETATM   10  O   LIG     1      17.575  37.142  26.016  1.00  0.00    -0.356 OA
HETATM   11  C   LIG     1      18.364  36.417  26.955  1.00  0.00     0.210 C 
ENDBRANCH   4  10
TORSDOF 2
ENDMDL
MODEL 9
REMARK VINA RESULT:      -6.2      3.178      5.105
REMARK  2 active torsions:
REMARK  status: ('A' for Active; 'I' for Inactive)
REMARK    1  A    between atoms: C_3  and  C_4 
REMARK    2  A    between atoms: C_7  and  O_8 
ROOT
HETATM    1  C   LIG     1      17.693  37.821  21.590  1.00  0.00    -0.036 A 
HETATM    2  C   LIG     1      16.496  38.020  22.290  1.00  0.00     0.014 A 
HETATM    3  C   LIG     1      15.518  37.021  22.320  1.00  0.00     0.037 A 
HETATM    4  C   LIG     1      15.719  35.811  21.628  1.00  0.00     0.068 A 
HETATM    5  C   LIG     1      16.904  35.628  20.905  1.00  0.00     0.037 A 
HETATM    6  C   LIG     1      17.881  36.627  20.877  1.00  0.00     0.014 A 
ENDROOT
BRANCH   1   7
HETATM    7  C   LIG     1      18.695  38.907  21.552  1.00  0.00     0.007 C 
HETATM    8  C   LIG     1      19.212  39.421  20.427  1.00  0.00    -0.030 C 
HETATM    9  C   LIG     1      18.874  38.939  19.049  1.00  0.00     0.036 C 
ENDBRANCH   1   7
BRANCH   4  10
HETATM   10  O   LIG     1      14.772  34.777  21.628  1.00  0.00    -0.356 OA
HETATM   11  C   LIG     1      14.917  33.554  20.912  1.00  0.00     0.210 C 
ENDBRANCH   4  10
TORSDOF 2
ENDMDL
MODEL 10
REMARK VINA RESULT:      -6.0      2.078      4.842
REMARK  2 active torsions:
REMARK  status: ('A' for Active; 'I' for Inactive)
REMARK    1  A    between atoms: C_3  and  C_4 
REMARK    2  A    between atoms: C_7  and  O_8 
ROOT
HETATM    1  C   LIG     1      17.920  37.084  20.876  1.00  0.00    -0.036 A 
HETATM    2  C   LIG     1      18.088  38.363  21.421  1.00  0.00     0.014 A 
HETATM    3  C   LIG     1      17.623  38.653  22.707  1.00  0.00     0.037 A 
HETATM    4  C   LIG     1      16.960  37.665  23.460  1.00  0.00     0.068 A 
HETATM    5  C   LIG     1      16.767  36.396  22.901  1.00  0.00     0.037 A 
HETATM    6  C   LIG     1      17.234  36.107  21.616  1.00  0.00     0.014 A 
ENDROOT
BRANCH   1   7
HETATM    7  C   LIG     1      18.397  36.816  19.503  1.00  0.00     0.007 C 
HETATM    8  C   LIG     1      19.103  37.683  18.765  1.00  0.00    -0.030 C 
HETATM    9  C   LIG     1      19.475  39.063  19.215  1.00  0.00     0.036 C 
ENDBRANCH   1   7
BRANCH   4  10
HETATM   10  O   LIG     1      16.475  37.903  24.755  1.00  0.00    -0.356 OA
HETATM   11  C   LIG     1      17.301  38.102  25.898  1.00  0.00     0.210 C 
ENDBRANCH   4  10
TORSDOF 2
ENDMDL
MODEL 11
REMARK VINA RESULT:      -6.0      8.396      9.842
REMARK  2 active torsions:
REMARK  status: ('A' for Active; 'I' for Inactive)
REMARK    1  A    between atoms: C_3  and  C_4 
REMARK    2  A    between atoms: C_7  and  O_8 
ROOT
HETATM    1  C   LIG     1      14.888  32.428  16.948  1.00  0.00    -0.036 A 
HETATM    2  C   LIG     1      13.775  31.582  16.874  1.00  0.00     0.014 A 
HETATM    3  C   LIG     1      13.650  30.666  15.824  1.00  0.00     0.037 A 
HETATM    4  C   LIG     1      14.633  30.602  14.818  1.00  0.00     0.068 A 
HETATM    5  C   LIG     1      15.729  31.471  14.880  1.00  0.00     0.037 A 
HETATM    6  C   LIG     1      15.854  32.384  15.930  1.00  0.00     0.014 A 
ENDROOT
BRANCH   1   7
HETATM    7  C   LIG     1      14.978  33.405  18.054  1.00  0.00     0.007 C 
HETATM    8  C   LIG     1      15.319  33.095  19.312  1.00  0.00    -0.030 C 
HETATM    9  C   LIG     1      15.619  31.704  19.783  1.00  0.00     0.036 C 
ENDBRANCH   1   7
BRANCH   4  10
HETATM   10  O   LIG     1      14.555  29.702  13.746  1.00  0.00    -0.356 OA
HETATM   11  C   LIG     1      15.180  28.422  13.724  1.00  0.00     0.210 C 
ENDBRANCH   4  10
TORSDOF 2
ENDMDL
MODEL 12
REMARK VINA RESULT:      -6.0      9.722     11.300
REMARK  2 active torsions:
REMARK  status: ('A' for Active; 'I' for Inactive)
REMARK    1  A    between atoms: C_3  and  C_4 
REMARK    2  A    between atoms: C_7  and  O_8 
ROOT
HETATM    1  C   LIG     1      14.296  30.213  14.467  1.00  0.00    -0.036 A 
HETATM    2  C   LIG     1      14.141  30.795  15.731  1.00  0.00     0.014 A 
HETATM    3  C   LIG     1      14.892  31.919  16.092  1.00  0.00     0.037 A 
HETATM    4  C   LIG     1      15.827  32.464  15.192  1.00  0.00     0.068 A 
HETATM    5  C   LIG     1      16.001  31.862  13.940  1.00  0.00     0.037 A 
HETATM    6  C   LIG     1      15.249  30.740  13.580  1.00  0.00     0.014 A 
ENDROOT
BRANCH   1   7
HETATM    7  C   LIG     1      13.510  29.009  14.125  1.00  0.00     0.007 C 
HETATM    8  C   LIG     1      14.043  27.826  13.794  1.00  0.00    -0.030 C 
HETATM    9  C   LIG     1      15.516  27.568  13.685  1.00  0.00     0.036 C 
ENDBRANCH   1   7
BRANCH   4  10
HETATM   10  O   LIG     1      16.603  33.590  15.503  1.00  0.00    -0.356 OA
HETATM   11  C   LIG     1      17.564  34.171  14.626  1.00  0.00     0.210 C 
ENDBRANCH   4  10
TORSDOF 2
ENDMDL
MODEL 13
REMARK VINA RESULT:      -5.9      8.515     10.263
REMARK  2 active torsions:
REMARK  status: ('A' for Active; 'I' for Inactive)
REMARK    1  A    between atoms: C_3  and  C_4 
REMARK    2  A    between atoms: C_7  and  O_8 
ROOT
HETATM    1  C   LIG     1      14.119  30.765  15.463  1.00  0.00    -0.036 A 
HETATM    2  C   LIG     1      15.168  31.648  15.175  1.00  0.00     0.014 A 
HETATM    3  C   LIG     1      15.658  32.512  16.158  1.00  0.00     0.037 A 
HETATM    4  C   LIG     1      15.087  32.519  17.445  1.00  0.00     0.068 A 
HETATM    5  C   LIG     1      14.018  31.656  17.721  1.00  0.00     0.037 A 
HETATM    6  C   LIG     1      13.530  30.792  16.738  1.00  0.00     0.014 A 
ENDROOT
BRANCH   1   7
HETATM    7  C   LIG     1      13.603  29.884  14.395  1.00  0.00     0.007 C 
HETATM    8  C   LIG     1      14.300  28.886  13.834  1.00  0.00    -0.030 C 
HETATM    9  C   LIG     1      15.718  28.550  14.186  1.00  0.00     0.036 C 
ENDBRANCH   1   7
BRANCH   4  10
HETATM   10  O   LIG     1      15.542  33.364  18.467  1.00  0.00    -0.356 OA
HETATM   11  C   LIG     1      15.464  33.060  19.856  1.00  0.00     0.210 C 
ENDBRANCH   4  10
TORSDOF 2
ENDMDL
MODEL 14
REMARK VINA RESULT:      -5.9      8.998     10.513
REMARK  2 active torsions:
REMARK  status: ('A' for Active; 'I' for Inactive)
REMARK    1  A    between atoms: C_3  and  C_4 
REMARK    2  A    between atoms: C_7  and  O_8 
ROOT
HETATM    1  C   LIG     1      14.665  32.223  16.234  1.00  0.00    -0.036 A 
HETATM    2  C   LIG     1      15.648  31.856  15.307  1.00  0.00     0.014 A 
HETATM    3  C   LIG     1      15.481  30.718  14.511  1.00  0.00     0.037 A 
HETATM    4  C   LIG     1      14.332  29.917  14.650  1.00  0.00     0.068 A 
HETATM    5  C   LIG     1      13.365  30.271  15.599  1.00  0.00     0.037 A 
HETATM    6  C   LIG     1      13.532  31.409  16.393  1.00  0.00     0.014 A 
ENDROOT
BRANCH   1   7
HETATM    7  C   LIG     1      14.882  33.414  17.082  1.00  0.00     0.007 C 
HETATM    8  C   LIG     1      15.213  33.370  18.380  1.00  0.00    -0.030 C 
HETATM    9  C   LIG     1      15.372  32.103  19.164  1.00  0.00     0.036 C 
ENDBRANCH   1   7
BRANCH   4  10
HETATM   10  O   LIG     1      14.116  28.768  13.876  1.00  0.00    -0.356 OA
HETATM   11  C   LIG     1      15.107  27.779  13.611  1.00  0.00     0.210 C 
ENDBRANCH   4  10
TORSDOF 2
ENDMDL
MODEL 15
REMARK VINA RESULT:      -5.6      9.219     10.204
REMARK  2 active torsions:
REMARK  status: ('A' for Active; 'I' for Inactive)
REMARK    1  A    between atoms: C_3  and  C_4 
REMARK    2  A    between atoms: C_7  and  O_8 
ROOT
HETATM    1  C   LIG     1      15.284  31.396  14.917  1.00  0.00    -0.036 A 
HETATM    2  C   LIG     1      15.660  31.483  13.571  1.00  0.00     0.014 A 
HETATM    3  C   LIG     1      16.620  32.414  13.162  1.00  0.00     0.037 A 
HETATM    4  C   LIG     1      17.204  33.288  14.099  1.00  0.00     0.068 A 
HETATM    5  C   LIG     1      16.804  33.218  15.439  1.00  0.00     0.037 A 
HETATM    6  C   LIG     1      15.845  32.287  15.847  1.00  0.00     0.014 A 
ENDROOT
BRANCH   1   7
HETATM    7  C   LIG     1      14.246  30.422  15.315  1.00  0.00     0.007 C 
HETATM    8  C   LIG     1      13.203  30.708  16.107  1.00  0.00    -0.030 C 
HETATM    9  C   LIG     1      12.966  32.049  16.733  1.00  0.00     0.036 C 
ENDBRANCH   1   7
BRANCH   4  10
HETATM   10  O   LIG     1      18.172  34.238  13.741  1.00  0.00    -0.356 OA
HETATM   11  C   LIG     1      19.270  33.978  12.871  1.00  0.00     0.210 C 
ENDBRANCH   4  10
TORSDOF 2
ENDMDL
MODEL 16
REMARK VINA RESULT:      -5.5      8.094      9.366
REMARK  2 active torsions:
REMARK  status: ('A' for Active; 'I' for Inactive)
REMARK    1  A    between atoms: C_3  and  C_4 
REMARK    2  A    between atoms: C_7  and  O_8 
ROOT
HETATM    1  C   LIG     1      14.791  31.902  16.338  1.00  0.00    -0.036 A 
HETATM    2  C   LIG     1      14.741  31.010  15.260  1.00  0.00     0.014 A 
HETATM    3  C   LIG     1      15.570  31.193  14.149  1.00  0.00     0.037 A 
HETATM    4  C   LIG     1      16.450  32.291  14.094  1.00  0.00     0.068 A 
HETATM    5  C   LIG     1      16.475  33.198  15.161  1.00  0.00     0.037 A 
HETATM    6  C   LIG     1      15.648  33.013  16.271  1.00  0.00     0.014 A 
ENDROOT
BRANCH   1   7
HETATM    7  C   LIG     1      13.882  31.699  17.485  1.00  0.00     0.007 C 
HETATM    8  C   LIG     1      14.267  31.722  18.769  1.00  0.00    -0.030 C 
HETATM    9  C   LIG     1      15.683  31.920  19.219  1.00  0.00     0.036 C 
ENDBRANCH   1   7
BRANCH   4  10
HETATM   10  O   LIG     1      17.302  32.519  13.005  1.00  0.00    -0.356 OA
HETATM   11  C   LIG     1      18.123  33.674  12.854  1.00  0.00     0.210 C 
ENDBRANCH   4  10
TORSDOF 2
ENDMDL
MODEL 17
REMARK VINA RESULT:      -5.4     10.089     11.882
REMARK  2 active torsions:
REMARK  status: ('A' for Active; 'I' for Inactive)
REMARK    1  A    between atoms: C_3  and  C_4 
REMARK    2  A    between atoms: C_7  and  O_8 
ROOT
HETATM    1  C   LIG     1      15.403  31.474  15.250  1.00  0.00    -0.036 A 
HETATM    2  C   LIG     1      15.750  30.524  14.282  1.00  0.00     0.014 A 
HETATM    3  C   LIG     1      14.826  29.557  13.873  1.00  0.00     0.037 A 
HETATM    4  C   LIG     1      13.542  29.516  14.448  1.00  0.00     0.068 A 
HETATM    5  C   LIG     1      13.208  30.449  15.438  1.00  0.00     0.037 A 
HETATM    6  C   LIG     1      14.131  31.416  15.844  1.00  0.00     0.014 A 
ENDROOT
BRANCH   1   7
HETATM    7  C   LIG     1      16.410  32.465  15.683  1.00  0.00     0.007 C 
HETATM    8  C   LIG     1      17.139  33.218  14.847  1.00  0.00    -0.030 C 
HETATM    9  C   LIG     1      17.061  33.131  13.353  1.00  0.00     0.036 C 
ENDBRANCH   1   7
BRANCH   4  10
HETATM   10  O   LIG     1      12.578  28.569  14.073  1.00  0.00    -0.356 OA
HETATM   11  C   LIG     1      12.880  27.263  13.591  1.00  0.00     0.210 C 
ENDBRANCH   4  10
TORSDOF 2
ENDMDL
MODEL 18
REMARK VINA RESULT:      -5.4      5.609      7.587
REMARK  2 active torsions:
REMARK  status: ('A' for Active; 'I' for Inactive)
REMARK    1  A    between atoms: C_3  and  C_4 
REMARK    2  A    between atoms: C_7  and  O_8 
ROOT
HETATM    1  C   LIG     1      14.933  32.808  17.627  1.00  0.00    -0.036 A 
HETATM    2  C   LIG     1      15.074  31.990  18.755  1.00  0.00     0.014 A 
HETATM    3  C   LIG     1      15.419  32.541  19.992  1.00  0.00     0.037 A 
HETATM    4  C   LIG     1      15.650  33.925  20.112  1.00  0.00     0.068 A 
HETATM    5  C   LIG     1      15.538  34.736  18.976  1.00  0.00     0.037 A 
HETATM    6  C   LIG     1      15.191  34.184  17.740  1.00  0.00     0.014 A 
ENDROOT
BRANCH   1   7
HETATM    7  C   LIG     1      14.595  32.193  16.327  1.00  0.00     0.007 C 
HETATM    8  C   LIG     1      15.480  31.959  15.347  1.00  0.00    -0.030 C 
HETATM    9  C   LIG     1      16.931  32.326  15.420  1.00  0.00     0.036 C 
ENDBRANCH   1   7
BRANCH   4  10
HETATM   10  O   LIG     1      15.997  34.528  21.330  1.00  0.00    -0.356 OA
HETATM   11  C   LIG     1      16.968  35.560  21.467  1.00  0.00     0.210 C 
ENDBRANCH   4  10
TORSDOF 2
ENDMDL
MODEL 19
REMARK VINA RESULT:      -5.4      5.015      6.384
REMARK  2 active torsions:
REMARK  status: ('A' for Active; 'I' for Inactive)
REMARK    1  A    between atoms: C_3  and  C_4 
REMARK    2  A    between atoms: C_7  and  O_8 
ROOT
HETATM    1  C   LIG     1      15.577  34.105  20.194  1.00  0.00    -0.036 A 
HETATM    2  C   LIG     1      15.408  32.716  20.125  1.00  0.00     0.014 A 
HETATM    3  C   LIG     1      15.177  32.090  18.896  1.00  0.00     0.037 A 
HETATM    4  C   LIG     1      15.090  32.854  17.717  1.00  0.00     0.068 A 
HETATM    5  C   LIG     1      15.229  34.246  17.793  1.00  0.00     0.037 A 
HETATM    6  C   LIG     1      15.462  34.870  19.022  1.00  0.00     0.014 A 
ENDROOT
BRANCH   1   7
HETATM    7  C   LIG     1      15.791  34.741  21.510  1.00  0.00     0.007 C 
HETATM    8  C   LIG     1      16.714  35.682  21.755  1.00  0.00    -0.030 C 
HETATM    9  C   LIG     1      17.685  36.193  20.734  1.00  0.00     0.036 C 
ENDBRANCH   1   7
BRANCH   4  10
HETATM   10  O   LIG     1      14.861  32.276  16.460  1.00  0.00    -0.356 OA
HETATM   11  C   LIG     1      15.770  32.345  15.366  1.00  0.00     0.210 C 
ENDBRANCH   4  10
TORSDOF 2
ENDMDL
MODEL 20
REMARK VINA RESULT:      -5.0      8.066     10.154
REMARK  2 active torsions:
REMARK  status: ('A' for Active; 'I' for Inactive)
REMARK    1  A    between atoms: C_3  and  C_4 
REMARK    2  A    between atoms: C_7  and  O_8 
ROOT
HETATM    1  C   LIG     1      15.547  32.023  14.815  1.00  0.00    -0.036 A 
HETATM    2  C   LIG     1      14.622  30.999  15.051  1.00  0.00     0.014 A 
HETATM    3  C   LIG     1      14.078  30.816  16.327  1.00  0.00     0.037 A 
HETATM    4  C   LIG     1      14.474  31.647  17.392  1.00  0.00     0.068 A 
HETATM    5  C   LIG     1      15.422  32.651  17.159  1.00  0.00     0.037 A 
HETATM    6  C   LIG     1      15.963  32.834  15.884  1.00  0.00     0.014 A 
ENDROOT
BRANCH   1   7
HETATM    7  C   LIG     1      16.126  32.175  13.464  1.00  0.00     0.007 C 
HETATM    8  C   LIG     1      17.175  32.957  13.173  1.00  0.00    -0.030 C 
HETATM    9  C   LIG     1      17.885  33.818  14.173  1.00  0.00     0.036 C 
ENDBRANCH   1   7
BRANCH   4  10
HETATM   10  O   LIG     1      13.958  31.505  18.689  1.00  0.00    -0.356 OA
HETATM   11  C   LIG     1      14.749  31.514  19.874  1.00  0.00     0.210 C 
ENDBRANCH   4  10
TORSDOF 2
ENDMDL
