MODEL 1
REMARK VINA RESULT:      -5.3      0.000      0.000
REMARK  6 active torsions:
REMARK  status: ('A' for Active; 'I' for Inactive)
REMARK    1  A    between atoms: N_1  and  C_2 
REMARK    2  A    between atoms: C_2  and  C_3 
REMARK    3  A    between atoms: C_3  and  C_4 
REMARK    4  A    between atoms: C_3  and  C_6 
REMARK    5  A    between atoms: C_6  and  C_7 
REMARK    6  A    between atoms: C_7  and  C_8 
ROOT
HETATM    1  C   LIG     1      17.165  37.965  22.876  1.00  0.00     0.013 C 
ENDROOT
BRANCH   1   2
HETATM    2  C   LIG     1      17.934  38.471  21.624  1.00  0.00     0.271 C 
BRANCH   2   3
HETATM    3  N   LIG     1      19.045  39.358  21.973  1.00  0.00     0.078 N 
HETATM    4  H   LIG     1      19.836  39.191  21.310  1.00  0.00     0.312 HD
HETATM    5  H   LIG     1      19.382  39.142  22.937  1.00  0.00     0.312 HD
ENDBRANCH   2   3
ENDBRANCH   1   2
BRANCH   1   6
HETATM    6  C   LIG     1      16.786  36.470  22.712  1.00  0.00     0.002 C 
HETATM    7  C   LIG     1      17.227  35.903  21.360  1.00  0.00     0.005 C 
ENDBRANCH   1   6
BRANCH   1   8
HETATM    8  C   LIG     1      18.017  38.186  24.163  1.00  0.00     0.006 C 
BRANCH   8   9
HETATM    9  C   LIG     1      17.416  37.522  25.414  1.00  0.00     0.000 C 
BRANCH   9  10
HETATM   10  C   LIG     1      18.433  36.672  26.186  1.00  0.00    -0.005 C 
HETATM   11  C   LIG     1      18.047  35.196  26.162  1.00  0.00     0.005 C 
ENDBRANCH   9  10
ENDBRANCH   8   9
ENDBRANCH   1   8
TORSDOF 6
ENDMDL
MODEL 2
REMARK VINA RESULT:      -5.3      1.648      2.015
REMARK  6 active torsions:
REMARK  status: ('A' for Active; 'I' for Inactive)
REMARK    1  A    between atoms: N_1  and  C_2 
REMARK    2  A    between atoms: C_2  and  C_3 
REMARK    3  A    between atoms: C_3  and  C_4 
REMARK    4  A    between atoms: C_3  and  C_6 
REMARK    5  A    between atoms: C_6  and  C_7 
REMARK    6  A    between atoms: C_7  and  C_8 
ROOT
HETATM    1  C   LIG     1      16.572  36.488  23.051  1.00  0.00     0.013 C 
ENDROOT
BRANCH   1   2
HETATM    2  C   LIG     1      16.638  37.928  22.470  1.00  0.00     0.271 C 
BRANCH   2   3
HETATM    3  N   LIG     1      15.480  38.737  22.854  1.00  0.00     0.078 N 
HETATM    4  H   LIG     1      15.784  39.462  23.543  1.00  0.00     0.312 HD
HETATM    5  H   LIG     1      14.764  38.134  23.316  1.00  0.00     0.312 HD
ENDBRANCH   2   3
ENDBRANCH   1   2
BRANCH   1   6
HETATM    6  C   LIG     1      17.115  35.463  22.022  1.00  0.00     0.002 C 
HETATM    7  C   LIG     1      17.467  36.113  20.682  1.00  0.00     0.005 C 
ENDBRANCH   1   6
BRANCH   1   8
HETATM    8  C   LIG     1      17.365  36.406  24.392  1.00  0.00     0.006 C 
BRANCH   8   9
HETATM    9  C   LIG     1      17.396  34.992  24.996  1.00  0.00     0.000 C 
BRANCH   9  10
HETATM   10  C   LIG     1      18.240  34.907  26.275  1.00  0.00    -0.005 C 
HETATM   11  C   LIG     1      18.446  36.288  26.889  1.00  0.00     0.005 C 
ENDBRANCH   9  10
ENDBRANCH   8   9
ENDBRANCH   1   8
TORSDOF 6
ENDMDL
MODEL 3
REMARK VINA RESULT:      -5.2      2.296      2.994
REMARK  6 active torsions:
REMARK  status: ('A' for Active; 'I' for Inactive)
REMARK    1  A    between atoms: N_1  and  C_2 
REMARK    2  A    between atoms: C_2  and  C_3 
REMARK    3  A    between atoms: C_3  and  C_4 
REMARK    4  A    between atoms: C_3  and  C_6 
REMARK    5  A    between atoms: C_6  and  C_7 
REMARK    6  A    between atoms: C_7  and  C_8 
ROOT
HETATM    1  C   LIG     1      16.955  35.979  21.818  1.00  0.00     0.013 C 
ENDROOT
BRANCH   1   2
HETATM    2  C   LIG     1      15.888  35.482  20.804  1.00  0.00     0.271 C 
BRANCH   2   3
HETATM    3  N   LIG     1      14.522  35.765  21.249  1.00  0.00     0.078 N 
HETATM    4  H   LIG     1      14.262  36.734  20.955  1.00  0.00     0.312 HD
HETATM    5  H   LIG     1      14.472  35.719  22.291  1.00  0.00     0.312 HD
ENDBRANCH   2   3
ENDBRANCH   1   2
BRANCH   1   6
HETATM    6  C   LIG     1      16.720  37.472  22.164  1.00  0.00     0.002 C 
HETATM    7  C   LIG     1      17.804  38.382  21.581  1.00  0.00     0.005 C 
ENDBRANCH   1   6
BRANCH   1   8
HETATM    8  C   LIG     1      16.934  35.099  23.105  1.00  0.00     0.006 C 
BRANCH   8   9
HETATM    9  C   LIG     1      17.213  35.894  24.393  1.00  0.00     0.000 C 
BRANCH   9  10
HETATM   10  C   LIG     1      17.662  35.004  25.558  1.00  0.00    -0.005 C 
HETATM   11  C   LIG     1      18.281  35.835  26.678  1.00  0.00     0.005 C 
ENDBRANCH   9  10
ENDBRANCH   8   9
ENDBRANCH   1   8
TORSDOF 6
ENDMDL
MODEL 4
REMARK VINA RESULT:      -5.1      2.040      3.919
REMARK  6 active torsions:
REMARK  status: ('A' for Active; 'I' for Inactive)
REMARK    1  A    between atoms: N_1  and  C_2 
REMARK    2  A    between atoms: C_2  and  C_3 
REMARK    3  A    between atoms: C_3  and  C_4 
REMARK    4  A    between atoms: C_3  and  C_6 
REMARK    5  A    between atoms: C_6  and  C_7 
REMARK    6  A    between atoms: C_7  and  C_8 
ROOT
HETATM    1  C   LIG     1      17.281  37.490  23.074  1.00  0.00     0.013 C 
ENDROOT
BRANCH   1   2
HETATM    2  C   LIG     1      16.714  37.577  24.518  1.00  0.00     0.271 C 
BRANCH   2   3
HETATM    3  N   LIG     1      17.321  38.662  25.290  1.00  0.00     0.078 N 
HETATM    4  H   LIG     1      17.318  39.534  24.714  1.00  0.00     0.312 HD
HETATM    5  H   LIG     1      18.314  38.426  25.513  1.00  0.00     0.312 HD
ENDBRANCH   2   3
ENDBRANCH   1   2
BRANCH   1   6
HETATM    6  C   LIG     1      16.379  36.589  22.191  1.00  0.00     0.002 C 
HETATM    7  C   LIG     1      16.984  35.200  21.968  1.00  0.00     0.005 C 
ENDBRANCH   1   6
BRANCH   1   8
HETATM    8  C   LIG     1      17.418  38.916  22.457  1.00  0.00     0.006 C 
BRANCH   8   9
HETATM    9  C   LIG     1      18.794  39.175  21.818  1.00  0.00     0.000 C 
BRANCH   9  10
HETATM   10  C   LIG     1      18.752  39.164  20.285  1.00  0.00    -0.005 C 
HETATM   11  C   LIG     1      19.058  37.774  19.736  1.00  0.00     0.005 C 
ENDBRANCH   9  10
ENDBRANCH   8   9
ENDBRANCH   1   8
TORSDOF 6
ENDMDL
MODEL 5
REMARK VINA RESULT:      -5.1      1.625      2.269
REMARK  6 active torsions:
REMARK  status: ('A' for Active; 'I' for Inactive)
REMARK    1  A    between atoms: N_1  and  C_2 
REMARK    2  A    between atoms: C_2  and  C_3 
REMARK    3  A    between atoms: C_3  and  C_4 
REMARK    4  A    between atoms: C_3  and  C_6 
REMARK    5  A    between atoms: C_6  and  C_7 
REMARK    6  A    between atoms: C_7  and  C_8 
ROOT
HETATM    1  C   LIG     1      17.356  37.472  23.199  1.00  0.00     0.013 C 
ENDROOT
BRANCH   1   2
HETATM    2  C   LIG     1      16.456  36.504  22.382  1.00  0.00     0.271 C 
BRANCH   2   3
HETATM    3  N   LIG     1      17.218  35.725  21.406  1.00  0.00     0.078 N 
HETATM    4  H   LIG     1      17.927  35.145  21.911  1.00  0.00     0.312 HD
HETATM    5  H   LIG     1      17.728  36.367  20.760  1.00  0.00     0.312 HD
ENDBRANCH   2   3
ENDBRANCH   1   2
BRANCH   1   6
HETATM    6  C   LIG     1      17.220  38.921  22.663  1.00  0.00     0.002 C 
HETATM    7  C   LIG     1      18.307  39.268  21.642  1.00  0.00     0.005 C 
ENDBRANCH   1   6
BRANCH   1   8
HETATM    8  C   LIG     1      16.995  37.402  24.714  1.00  0.00     0.006 C 
BRANCH   8   9
HETATM    9  C   LIG     1      18.228  37.322  25.632  1.00  0.00     0.000 C 
BRANCH   9  10
HETATM   10  C   LIG     1      18.205  36.099  26.558  1.00  0.00    -0.005 C 
HETATM   11  C   LIG     1      17.505  34.918  25.893  1.00  0.00     0.005 C 
ENDBRANCH   9  10
ENDBRANCH   8   9
ENDBRANCH   1   8
TORSDOF 6
ENDMDL
MODEL 6
REMARK VINA RESULT:      -5.1      2.006      4.327
REMARK  6 active torsions:
REMARK  status: ('A' for Active; 'I' for Inactive)
REMARK    1  A    between atoms: N_1  and  C_2 
REMARK    2  A    between atoms: C_2  and  C_3 
REMARK    3  A    between atoms: C_3  and  C_4 
REMARK    4  A    between atoms: C_3  and  C_6 
REMARK    5  A    between atoms: C_6  and  C_7 
REMARK    6  A    between atoms: C_7  and  C_8 
ROOT
HETATM    1  C   LIG     1      17.131  36.281  23.410  1.00  0.00     0.013 C 
ENDROOT
BRANCH   1   2
HETATM    2  C   LIG     1      16.523  37.523  24.118  1.00  0.00     0.271 C 
BRANCH   2   3
HETATM    3  N   LIG     1      15.401  38.095  23.372  1.00  0.00     0.078 N 
HETATM    4  H   LIG     1      14.633  38.335  24.041  1.00  0.00     0.312 HD
HETATM    5  H   LIG     1      15.030  37.392  22.695  1.00  0.00     0.312 HD
ENDBRANCH   2   3
ENDBRANCH   1   2
BRANCH   1   6
HETATM    6  C   LIG     1      17.100  35.050  24.354  1.00  0.00     0.002 C 
HETATM    7  C   LIG     1      17.694  35.357  25.731  1.00  0.00     0.005 C 
ENDBRANCH   1   6
BRANCH   1   8
HETATM    8  C   LIG     1      16.370  35.985  22.082  1.00  0.00     0.006 C 
BRANCH   8   9
HETATM    9  C   LIG     1      17.298  35.874  20.859  1.00  0.00     0.000 C 
BRANCH   9  10
HETATM   10  C   LIG     1      18.134  37.139  20.627  1.00  0.00    -0.005 C 
HETATM   11  C   LIG     1      19.156  36.927  19.515  1.00  0.00     0.005 C 
ENDBRANCH   9  10
ENDBRANCH   8   9
ENDBRANCH   1   8
TORSDOF 6
ENDMDL
MODEL 7
REMARK VINA RESULT:      -5.1      1.953      4.329
REMARK  6 active torsions:
REMARK  status: ('A' for Active; 'I' for Inactive)
REMARK    1  A    between atoms: N_1  and  C_2 
REMARK    2  A    between atoms: C_2  and  C_3 
REMARK    3  A    between atoms: C_3  and  C_4 
REMARK    4  A    between atoms: C_3  and  C_6 
REMARK    5  A    between atoms: C_6  and  C_7 
REMARK    6  A    between atoms: C_7  and  C_8 
ROOT
HETATM    1  C   LIG     1      17.505  35.985  24.461  1.00  0.00     0.013 C 
ENDROOT
BRANCH   1   2
HETATM    2  C   LIG     1      16.829  37.373  24.641  1.00  0.00     0.271 C 
BRANCH   2   3
HETATM    3  N   LIG     1      17.495  38.190  25.656  1.00  0.00     0.078 N 
HETATM    4  H   LIG     1      18.500  38.311  25.391  1.00  0.00     0.312 HD
HETATM    5  H   LIG     1      17.462  37.705  26.580  1.00  0.00     0.312 HD
ENDBRANCH   2   3
ENDBRANCH   1   2
BRANCH   1   6
HETATM    6  C   LIG     1      17.270  35.101  25.714  1.00  0.00     0.002 C 
HETATM    7  C   LIG     1      18.565  34.819  26.479  1.00  0.00     0.005 C 
ENDBRANCH   1   6
BRANCH   1   8
HETATM    8  C   LIG     1      16.972  35.283  23.175  1.00  0.00     0.006 C 
BRANCH   8   9
HETATM    9  C   LIG     1      16.487  36.270  22.098  1.00  0.00     0.000 C 
BRANCH   9  10
HETATM   10  C   LIG     1      16.970  35.900  20.690  1.00  0.00    -0.005 C 
HETATM   11  C   LIG     1      18.251  36.648  20.333  1.00  0.00     0.005 C 
ENDBRANCH   9  10
ENDBRANCH   8   9
ENDBRANCH   1   8
TORSDOF 6
ENDMDL
MODEL 8
REMARK VINA RESULT:      -5.0      2.052      4.547
REMARK  6 active torsions:
REMARK  status: ('A' for Active; 'I' for Inactive)
REMARK    1  A    between atoms: N_1  and  C_2 
REMARK    2  A    between atoms: C_2  and  C_3 
REMARK    3  A    between atoms: C_3  and  C_4 
REMARK    4  A    between atoms: C_3  and  C_6 
REMARK    5  A    between atoms: C_6  and  C_7 
REMARK    6  A    between atoms: C_7  and  C_8 
ROOT
HETATM    1  C   LIG     1      17.507  38.580  22.980  1.00  0.00     0.013 C 
ENDROOT
BRANCH   1   2
HETATM    2  C   LIG     1      16.374  37.542  22.750  1.00  0.00     0.271 C 
BRANCH   2   3
HETATM    3  N   LIG     1      15.047  38.094  23.029  1.00  0.00     0.078 N 
HETATM    4  H   LIG     1      14.321  37.410  22.718  1.00  0.00     0.312 HD
HETATM    5  H   LIG     1      14.911  38.978  22.490  1.00  0.00     0.312 HD
ENDBRANCH   2   3
ENDBRANCH   1   2
BRANCH   1   6
HETATM    6  C   LIG     1      18.359  38.188  24.216  1.00  0.00     0.002 C 
HETATM    7  C   LIG     1      17.499  37.910  25.451  1.00  0.00     0.005 C 
ENDBRANCH   1   6
BRANCH   1   8
HETATM    8  C   LIG     1      18.397  38.704  21.706  1.00  0.00     0.006 C 
BRANCH   8   9
HETATM    9  C   LIG     1      18.216  37.537  20.719  1.00  0.00     0.000 C 
BRANCH   9  10
HETATM   10  C   LIG     1      19.255  37.542  19.591  1.00  0.00    -0.005 C 
HETATM   11  C   LIG     1      20.122  38.796  19.647  1.00  0.00     0.005 C 
ENDBRANCH   9  10
ENDBRANCH   8   9
ENDBRANCH   1   8
TORSDOF 6
ENDMDL
MODEL 9
REMARK VINA RESULT:      -4.8      2.474      4.409
REMARK  6 active torsions:
REMARK  status: ('A' for Active; 'I' for Inactive)
REMARK    1  A    between atoms: N_1  and  C_2 
REMARK    2  A    between atoms: C_2  and  C_3 
REMARK    3  A    between atoms: C_3  and  C_4 
REMARK    4  A    between atoms: C_3  and  C_6 
REMARK    5  A    between atoms: C_6  and  C_7 
REMARK    6  A    between atoms: C_7  and  C_8 
ROOT
HETATM    1  C   LIG     1      16.922  36.616  22.226  1.00  0.00     0.013 C 
ENDROOT
BRANCH   1   2
HETATM    2  C   LIG     1      16.489  37.401  23.494  1.00  0.00     0.271 C 
BRANCH   2   3
HETATM    3  N   LIG     1      15.268  38.180  23.278  1.00  0.00     0.078 N 
HETATM    4  H   LIG     1      15.084  38.766  24.124  1.00  0.00     0.312 HD
HETATM    5  H   LIG     1      14.456  37.536  23.149  1.00  0.00     0.312 HD
ENDBRANCH   2   3
ENDBRANCH   1   2
BRANCH   1   6
HETATM    6  C   LIG     1      15.680  36.066  21.478  1.00  0.00     0.002 C 
HETATM    7  C   LIG     1      15.669  34.537  21.413  1.00  0.00     0.005 C 
ENDBRANCH   1   6
BRANCH   1   8
HETATM    8  C   LIG     1      17.779  37.523  21.291  1.00  0.00     0.006 C 
BRANCH   8   9
HETATM    9  C   LIG     1      18.318  36.786  20.052  1.00  0.00     0.000 C 
BRANCH   9  10
HETATM   10  C   LIG     1      19.582  37.435  19.474  1.00  0.00    -0.005 C 
HETATM   11  C   LIG     1      19.696  38.895  19.903  1.00  0.00     0.005 C 
ENDBRANCH   9  10
ENDBRANCH   8   9
ENDBRANCH   1   8
TORSDOF 6
ENDMDL
MODEL 10
REMARK VINA RESULT:      -4.8      2.577      4.400
REMARK  6 active torsions:
REMARK  status: ('A' for Active; 'I' for Inactive)
REMARK    1  A    between atoms: N_1  and  C_2 
REMARK    2  A    between atoms: C_2  and  C_3 
REMARK    3  A    between atoms: C_3  and  C_4 
REMARK    4  A    between atoms: C_3  and  C_6 
REMARK    5  A    between atoms: C_6  and  C_7 
REMARK    6  A    between atoms: C_7  and  C_8 
ROOT
HETATM    1  C   LIG     1      16.501  36.155  22.069  1.00  0.00     0.013 C 
ENDROOT
BRANCH   1   2
HETATM    2  C   LIG     1      15.677  35.434  20.967  1.00  0.00     0.271 C 
BRANCH   2   3
HETATM    3  N   LIG     1      14.235  35.626  21.133  1.00  0.00     0.078 N 
HETATM    4  H   LIG     1      13.749  34.714  20.974  1.00  0.00     0.312 HD
HETATM    5  H   LIG     1      13.884  36.306  20.423  1.00  0.00     0.312 HD
ENDBRANCH   2   3
ENDBRANCH   1   2
BRANCH   1   6
HETATM    6  C   LIG     1      17.099  35.123  23.060  1.00  0.00     0.002 C 
HETATM    7  C   LIG     1      17.251  35.692  24.473  1.00  0.00     0.005 C 
ENDBRANCH   1   6
BRANCH   1   8
HETATM    8  C   LIG     1      17.623  37.027  21.428  1.00  0.00     0.006 C 
BRANCH   8   9
HETATM    9  C   LIG     1      17.598  38.493  21.894  1.00  0.00     0.000 C 
BRANCH   9  10
HETATM   10  C   LIG     1      18.611  39.373  21.152  1.00  0.00    -0.005 C 
HETATM   11  C   LIG     1      19.309  38.592  20.042  1.00  0.00     0.005 C 
ENDBRANCH   9  10
ENDBRANCH   8   9
ENDBRANCH   1   8
TORSDOF 6
ENDMDL
MODEL 11
REMARK VINA RESULT:      -4.7      2.488      4.666
REMARK  6 active torsions:
REMARK  status: ('A' for Active; 'I' for Inactive)
REMARK    1  A    between atoms: N_1  and  C_2 
REMARK    2  A    between atoms: C_2  and  C_3 
REMARK    3  A    between atoms: C_3  and  C_4 
REMARK    4  A    between atoms: C_3  and  C_6 
REMARK    5  A    between atoms: C_6  and  C_7 
REMARK    6  A    between atoms: C_7  and  C_8 
ROOT
HETATM    1  C   LIG     1      16.858  36.261  22.596  1.00  0.00     0.013 C 
ENDROOT
BRANCH   1   2
HETATM    2  C   LIG     1      16.568  37.555  23.406  1.00  0.00     0.271 C 
BRANCH   2   3
HETATM    3  N   LIG     1      15.228  38.086  23.148  1.00  0.00     0.078 N 
HETATM    4  H   LIG     1      14.578  37.749  23.895  1.00  0.00     0.312 HD
HETATM    5  H   LIG     1      14.877  37.731  22.231  1.00  0.00     0.312 HD
ENDBRANCH   2   3
ENDBRANCH   1   2
BRANCH   1   6
HETATM    6  C   LIG     1      17.082  35.062  23.554  1.00  0.00     0.002 C 
HETATM    7  C   LIG     1      17.374  35.509  24.988  1.00  0.00     0.005 C 
ENDBRANCH   1   6
BRANCH   1   8
HETATM    8  C   LIG     1      15.693  35.970  21.602  1.00  0.00     0.006 C 
BRANCH   8   9
HETATM    9  C   LIG     1      16.013  34.848  20.598  1.00  0.00     0.000 C 
BRANCH   9  10
HETATM   10  C   LIG     1      15.103  33.624  20.761  1.00  0.00    -0.005 C 
HETATM   11  C   LIG     1      15.496  32.513  19.792  1.00  0.00     0.005 C 
ENDBRANCH   9  10
ENDBRANCH   8   9
ENDBRANCH   1   8
TORSDOF 6
ENDMDL
MODEL 12
REMARK VINA RESULT:      -4.6      7.861     10.253
REMARK  6 active torsions:
REMARK  status: ('A' for Active; 'I' for Inactive)
REMARK    1  A    between atoms: N_1  and  C_2 
REMARK    2  A    between atoms: C_2  and  C_3 
REMARK    3  A    between atoms: C_3  and  C_4 
REMARK    4  A    between atoms: C_3  and  C_6 
REMARK    5  A    between atoms: C_6  and  C_7 
REMARK    6  A    between atoms: C_7  and  C_8 
ROOT
HETATM    1  C   LIG     1      14.830  32.033  17.157  1.00  0.00     0.013 C 
ENDROOT
BRANCH   1   2
HETATM    2  C   LIG     1      15.122  32.497  18.610  1.00  0.00     0.271 C 
BRANCH   2   3
HETATM    3  N   LIG     1      14.254  31.841  19.590  1.00  0.00     0.078 N 
HETATM    4  H   LIG     1      13.280  32.204  19.481  1.00  0.00     0.312 HD
HETATM    5  H   LIG     1      14.576  32.067  20.557  1.00  0.00     0.312 HD
ENDBRANCH   2   3
ENDBRANCH   1   2
BRANCH   1   6
HETATM    6  C   LIG     1      13.301  31.967  16.905  1.00  0.00     0.002 C 
HETATM    7  C   LIG     1      12.886  30.690  16.171  1.00  0.00     0.005 C 
ENDBRANCH   1   6
BRANCH   1   8
HETATM    8  C   LIG     1      15.524  32.982  16.133  1.00  0.00     0.006 C 
BRANCH   8   9
HETATM    9  C   LIG     1      16.543  32.266  15.229  1.00  0.00     0.000 C 
BRANCH   9  10
HETATM   10  C   LIG     1      16.057  32.118  13.782  1.00  0.00    -0.005 C 
HETATM   11  C   LIG     1      15.415  30.753  13.554  1.00  0.00     0.005 C 
ENDBRANCH   9  10
ENDBRANCH   8   9
ENDBRANCH   1   8
TORSDOF 6
ENDMDL
MODEL 13
REMARK VINA RESULT:      -4.6      2.246      4.180
REMARK  6 active torsions:
REMARK  status: ('A' for Active; 'I' for Inactive)
REMARK    1  A    between atoms: N_1  and  C_2 
REMARK    2  A    between atoms: C_2  and  C_3 
REMARK    3  A    between atoms: C_3  and  C_4 
REMARK    4  A    between atoms: C_3  and  C_6 
REMARK    5  A    between atoms: C_6  and  C_7 
REMARK    6  A    between atoms: C_7  and  C_8 
ROOT
HETATM    1  C   LIG     1      17.368  38.248  22.129  1.00  0.00     0.013 C 
ENDROOT
BRANCH   1   2
HETATM    2  C   LIG     1      17.674  38.003  23.632  1.00  0.00     0.271 C 
BRANCH   2   3
HETATM    3  N   LIG     1      16.493  38.185  24.478  1.00  0.00     0.078 N 
HETATM    4  H   LIG     1      16.660  38.987  25.128  1.00  0.00     0.312 HD
HETATM    5  H   LIG     1      16.335  37.330  25.056  1.00  0.00     0.312 HD
ENDBRANCH   2   3
ENDBRANCH   1   2
BRANCH   1   6
HETATM    6  C   LIG     1      18.307  39.342  21.556  1.00  0.00     0.002 C 
HETATM    7  C   LIG     1      19.148  38.832  20.384  1.00  0.00     0.005 C 
ENDBRANCH   1   6
BRANCH   1   8
HETATM    8  C   LIG     1      17.502  36.920  21.323  1.00  0.00     0.006 C 
BRANCH   8   9
HETATM    9  C   LIG     1      16.316  35.961  21.525  1.00  0.00     0.000 C 
BRANCH   9  10
HETATM   10  C   LIG     1      15.885  35.263  20.229  1.00  0.00    -0.005 C 
HETATM   11  C   LIG     1      15.659  33.771  20.457  1.00  0.00     0.005 C 
ENDBRANCH   9  10
ENDBRANCH   8   9
ENDBRANCH   1   8
TORSDOF 6
ENDMDL
MODEL 14
REMARK VINA RESULT:      -4.6      1.930      2.903
REMARK  6 active torsions:
REMARK  status: ('A' for Active; 'I' for Inactive)
REMARK    1  A    between atoms: N_1  and  C_2 
REMARK    2  A    between atoms: C_2  and  C_3 
REMARK    3  A    between atoms: C_3  and  C_4 
REMARK    4  A    between atoms: C_3  and  C_6 
REMARK    5  A    between atoms: C_6  and  C_7 
REMARK    6  A    between atoms: C_7  and  C_8 
ROOT
HETATM    1  C   LIG     1      17.902  37.060  21.317  1.00  0.00     0.013 C 
ENDROOT
BRANCH   1   2
HETATM    2  C   LIG     1      18.162  36.892  19.794  1.00  0.00     0.271 C 
BRANCH   2   3
HETATM    3  N   LIG     1      19.515  36.411  19.510  1.00  0.00     0.078 N 
HETATM    4  H   LIG     1      19.543  36.027  18.538  1.00  0.00     0.312 HD
HETATM    5  H   LIG     1      19.763  35.640  20.168  1.00  0.00     0.312 HD
ENDBRANCH   2   3
ENDBRANCH   1   2
BRANCH   1   6
HETATM    6  C   LIG     1      17.680  38.554  21.667  1.00  0.00     0.002 C 
HETATM    7  C   LIG     1      18.698  39.471  20.984  1.00  0.00     0.005 C 
ENDBRANCH   1   6
BRANCH   1   8
HETATM    8  C   LIG     1      16.682  36.196  21.758  1.00  0.00     0.006 C 
BRANCH   8   9
HETATM    9  C   LIG     1      17.001  35.236  22.918  1.00  0.00     0.000 C 
BRANCH   9  10
HETATM   10  C   LIG     1      17.188  35.960  24.257  1.00  0.00    -0.005 C 
HETATM   11  C   LIG     1      17.499  34.972  25.377  1.00  0.00     0.005 C 
ENDBRANCH   9  10
ENDBRANCH   8   9
ENDBRANCH   1   8
TORSDOF 6
ENDMDL
MODEL 15
REMARK VINA RESULT:      -4.5      7.320      9.934
REMARK  6 active torsions:
REMARK  status: ('A' for Active; 'I' for Inactive)
REMARK    1  A    between atoms: N_1  and  C_2 
REMARK    2  A    between atoms: C_2  and  C_3 
REMARK    3  A    between atoms: C_3  and  C_4 
REMARK    4  A    between atoms: C_3  and  C_6 
REMARK    5  A    between atoms: C_6  and  C_7 
REMARK    6  A    between atoms: C_7  and  C_8 
ROOT
HETATM    1  C   LIG     1      14.628  32.115  17.475  1.00  0.00     0.013 C 
ENDROOT
BRANCH   1   2
HETATM    2  C   LIG     1      14.949  33.618  17.249  1.00  0.00     0.271 C 
BRANCH   2   3
HETATM    3  N   LIG     1      16.043  33.818  16.298  1.00  0.00     0.078 N 
HETATM    4  H   LIG     1      15.654  34.201  15.406  1.00  0.00     0.312 HD
HETATM    5  H   LIG     1      16.499  32.903  16.084  1.00  0.00     0.312 HD
ENDBRANCH   2   3
ENDBRANCH   1   2
BRANCH   1   6
HETATM    6  C   LIG     1      14.670  31.772  18.987  1.00  0.00     0.002 C 
HETATM    7  C   LIG     1      15.441  32.815  19.799  1.00  0.00     0.005 C 
ENDBRANCH   1   6
BRANCH   1   8
HETATM    8  C   LIG     1      13.241  31.757  16.860  1.00  0.00     0.006 C 
BRANCH   8   9
HETATM    9  C   LIG     1      13.312  30.641  15.802  1.00  0.00     0.000 C 
BRANCH   9  10
HETATM   10  C   LIG     1      14.602  30.685  14.973  1.00  0.00    -0.005 C 
HETATM   11  C   LIG     1      14.758  29.423  14.130  1.00  0.00     0.005 C 
ENDBRANCH   9  10
ENDBRANCH   8   9
ENDBRANCH   1   8
TORSDOF 6
ENDMDL
MODEL 16
REMARK VINA RESULT:      -4.4     10.665     12.262
REMARK  6 active torsions:
REMARK  status: ('A' for Active; 'I' for Inactive)
REMARK    1  A    between atoms: N_1  and  C_2 
REMARK    2  A    between atoms: C_2  and  C_3 
REMARK    3  A    between atoms: C_3  and  C_4 
REMARK    4  A    between atoms: C_3  and  C_6 
REMARK    5  A    between atoms: C_6  and  C_7 
REMARK    6  A    between atoms: C_7  and  C_8 
ROOT
HETATM    1  C   LIG     1      13.631  30.156  14.537  1.00  0.00     0.013 C 
ENDROOT
BRANCH   1   2
HETATM    2  C   LIG     1      13.398  28.654  14.217  1.00  0.00     0.271 C 
BRANCH   2   3
HETATM    3  N   LIG     1      12.115  28.419  13.552  1.00  0.00     0.078 N 
HETATM    4  H   LIG     1      11.621  29.333  13.431  1.00  0.00     0.312 HD
HETATM    5  H   LIG     1      11.515  27.804  14.145  1.00  0.00     0.312 HD
ENDBRANCH   2   3
ENDBRANCH   1   2
BRANCH   1   6
HETATM    6  C   LIG     1      12.924  30.543  15.863  1.00  0.00     0.002 C 
HETATM    7  C   LIG     1      13.866  31.254  16.838  1.00  0.00     0.005 C 
ENDBRANCH   1   6
BRANCH   1   8
HETATM    8  C   LIG     1      15.158  30.465  14.609  1.00  0.00     0.006 C 
BRANCH   8   9
HETATM    9  C   LIG     1      15.678  31.250  13.392  1.00  0.00     0.000 C 
BRANCH   9  10
HETATM   10  C   LIG     1      16.459  32.511  13.784  1.00  0.00    -0.005 C 
HETATM   11  C   LIG     1      16.958  32.424  15.223  1.00  0.00     0.005 C 
ENDBRANCH   9  10
ENDBRANCH   8   9
ENDBRANCH   1   8
TORSDOF 6
ENDMDL
MODEL 17
REMARK VINA RESULT:      -4.4      2.761      4.967
REMARK  6 active torsions:
REMARK  status: ('A' for Active; 'I' for Inactive)
REMARK    1  A    between atoms: N_1  and  C_2 
REMARK    2  A    between atoms: C_2  and  C_3 
REMARK    3  A    between atoms: C_3  and  C_4 
REMARK    4  A    between atoms: C_3  and  C_6 
REMARK    5  A    between atoms: C_6  and  C_7 
REMARK    6  A    between atoms: C_7  and  C_8 
ROOT
HETATM    1  C   LIG     1      16.557  36.471  21.722  1.00  0.00     0.013 C 
ENDROOT
BRANCH   1   2
HETATM    2  C   LIG     1      16.309  35.030  22.248  1.00  0.00     0.271 C 
BRANCH   2   3
HETATM    3  N   LIG     1      15.112  34.423  21.664  1.00  0.00     0.078 N 
HETATM    4  H   LIG     1      15.291  34.218  20.655  1.00  0.00     0.312 HD
HETATM    5  H   LIG     1      14.312  35.091  21.721  1.00  0.00     0.312 HD
ENDBRANCH   2   3
ENDBRANCH   1   2
BRANCH   1   6
HETATM    6  C   LIG     1      17.048  37.390  22.871  1.00  0.00     0.002 C 
HETATM    7  C   LIG     1      17.133  36.654  24.210  1.00  0.00     0.005 C 
ENDBRANCH   1   6
BRANCH   1   8
HETATM    8  C   LIG     1      17.582  36.452  20.547  1.00  0.00     0.006 C 
BRANCH   8   9
HETATM    9  C   LIG     1      18.470  37.708  20.491  1.00  0.00     0.000 C 
BRANCH   9  10
HETATM   10  C   LIG     1      19.617  37.583  19.481  1.00  0.00    -0.005 C 
HETATM   11  C   LIG     1      20.425  38.875  19.404  1.00  0.00     0.005 C 
ENDBRANCH   9  10
ENDBRANCH   8   9
ENDBRANCH   1   8
TORSDOF 6
ENDMDL
MODEL 18
REMARK VINA RESULT:      -4.3      7.124      9.171
REMARK  6 active torsions:
REMARK  status: ('A' for Active; 'I' for Inactive)
REMARK    1  A    between atoms: N_1  and  C_2 
REMARK    2  A    between atoms: C_2  and  C_3 
REMARK    3  A    between atoms: C_3  and  C_4 
REMARK    4  A    between atoms: C_3  and  C_6 
REMARK    5  A    between atoms: C_6  and  C_7 
REMARK    6  A    between atoms: C_7  and  C_8 
ROOT
HETATM    1  C   LIG     1      15.211  32.224  15.605  1.00  0.00     0.013 C 
ENDROOT
BRANCH   1   2
HETATM    2  C   LIG     1      16.644  32.184  15.005  1.00  0.00     0.271 C 
BRANCH   2   3
HETATM    3  N   LIG     1      17.451  33.335  15.411  1.00  0.00     0.078 N 
HETATM    4  H   LIG     1      18.462  33.113  15.261  1.00  0.00     0.312 HD
HETATM    5  H   LIG     1      17.310  33.525  16.428  1.00  0.00     0.312 HD
ENDBRANCH   2   3
ENDBRANCH   1   2
BRANCH   1   6
HETATM    6  C   LIG     1      14.509  30.853  15.424  1.00  0.00     0.002 C 
HETATM    7  C   LIG     1      14.946  30.140  14.143  1.00  0.00     0.005 C 
ENDBRANCH   1   6
BRANCH   1   8
HETATM    8  C   LIG     1      15.264  32.630  17.110  1.00  0.00     0.006 C 
BRANCH   8   9
HETATM    9  C   LIG     1      14.288  31.830  17.991  1.00  0.00     0.000 C 
BRANCH   9  10
HETATM   10  C   LIG     1      14.792  31.651  19.429  1.00  0.00    -0.005 C 
HETATM   11  C   LIG     1      15.470  32.920  19.936  1.00  0.00     0.005 C 
ENDBRANCH   9  10
ENDBRANCH   8   9
ENDBRANCH   1   8
TORSDOF 6
ENDMDL
MODEL 19
REMARK VINA RESULT:      -4.2      1.499      2.058
REMARK  6 active torsions:
REMARK  status: ('A' for Active; 'I' for Inactive)
REMARK    1  A    between atoms: N_1  and  C_2 
REMARK    2  A    between atoms: C_2  and  C_3 
REMARK    3  A    between atoms: C_3  and  C_4 
REMARK    4  A    between atoms: C_3  and  C_6 
REMARK    5  A    between atoms: C_6  and  C_7 
REMARK    6  A    between atoms: C_7  and  C_8 
ROOT
HETATM    1  C   LIG     1      17.018  37.024  21.979  1.00  0.00     0.013 C 
ENDROOT
BRANCH   1   2
HETATM    2  C   LIG     1      17.477  38.316  22.711  1.00  0.00     0.271 C 
BRANCH   2   3
HETATM    3  N   LIG     1      16.360  39.213  23.011  1.00  0.00     0.078 N 
HETATM    4  H   LIG     1      15.702  39.222  22.199  1.00  0.00     0.312 HD
HETATM    5  H   LIG     1      16.715  40.186  23.149  1.00  0.00     0.312 HD
ENDBRANCH   2   3
ENDBRANCH   1   2
BRANCH   1   6
HETATM    6  C   LIG     1      17.867  36.795  20.701  1.00  0.00     0.002 C 
HETATM    7  C   LIG     1      18.724  38.012  20.345  1.00  0.00     0.005 C 
ENDBRANCH   1   6
BRANCH   1   8
HETATM    8  C   LIG     1      17.108  35.796  22.935  1.00  0.00     0.006 C 
BRANCH   8   9
HETATM    9  C   LIG     1      16.867  36.154  24.413  1.00  0.00     0.000 C 
BRANCH   9  10
HETATM   10  C   LIG     1      18.008  35.700  25.331  1.00  0.00    -0.005 C 
HETATM   11  C   LIG     1      17.500  34.748  26.410  1.00  0.00     0.005 C 
ENDBRANCH   9  10
ENDBRANCH   8   9
ENDBRANCH   1   8
TORSDOF 6
ENDMDL
MODEL 20
REMARK VINA RESULT:      -4.1      8.275     10.367
REMARK  6 active torsions:
REMARK  status: ('A' for Active; 'I' for Inactive)
REMARK    1  A    between atoms: N_1  and  C_2 
REMARK    2  A    between atoms: C_2  and  C_3 
REMARK    3  A    between atoms: C_3  and  C_4 
REMARK    4  A    between atoms: C_3  and  C_6 
REMARK    5  A    between atoms: C_6  and  C_7 
REMARK    6  A    between atoms: C_7  and  C_8 
ROOT
HETATM    1  C   LIG     1      14.946  30.902  15.273  1.00  0.00     0.013 C 
ENDROOT
BRANCH   1   2
HETATM    2  C   LIG     1      14.205  29.849  14.404  1.00  0.00     0.271 C 
BRANCH   2   3
HETATM    3  N   LIG     1      15.093  29.199  13.439  1.00  0.00     0.078 N 
HETATM    4  H   LIG     1      16.052  29.129  13.850  1.00  0.00     0.312 HD
HETATM    5  H   LIG     1      15.156  29.776  12.571  1.00  0.00     0.312 HD
ENDBRANCH   2   3
ENDBRANCH   1   2
BRANCH   1   6
HETATM    6  C   LIG     1      15.781  31.853  14.377  1.00  0.00     0.002 C 
HETATM    7  C   LIG     1      16.936  32.506  15.140  1.00  0.00     0.005 C 
ENDBRANCH   1   6
BRANCH   1   8
HETATM    8  C   LIG     1      13.928  31.704  16.140  1.00  0.00     0.006 C 
BRANCH   8   9
HETATM    9  C   LIG     1      14.099  31.472  17.652  1.00  0.00     0.000 C 
BRANCH   9  10
HETATM   10  C   LIG     1      15.037  32.491  18.310  1.00  0.00    -0.005 C 
HETATM   11  C   LIG     1      15.478  32.021  19.693  1.00  0.00     0.005 C 
ENDBRANCH   9  10
ENDBRANCH   8   9
ENDBRANCH   1   8
TORSDOF 6
ENDMDL
