REMARK  3 active torsions:
REMARK  status: ('A' for Active; 'I' for Inactive)
REMARK    1  A    between atoms: C_2  and  C_4 
REMARK    2  A    between atoms: C_2  and  O_3 
REMARK    3  A    between atoms: C_5  and  C_6 
ROOT
HETATM    1  C   LIG     1      -0.738   0.497  -0.363  1.00  0.00     0.073 A 
HETATM    2  C   LIG     1      -1.081  -0.704   0.224  1.00  0.00     0.120 A 
HETATM    3  N   LIG     1      -2.353  -0.614   0.638  1.00  0.00    -0.358 N 
HETATM    4  C   LIG     1      -2.762   0.617   0.280  1.00  0.00     0.207 A 
HETATM    5  N   LIG     1      -1.802   1.324  -0.352  1.00  0.00    -0.243 NA
HETATM    6  H   LIG     1      -2.916  -1.353   1.115  1.00  0.00     0.166 HD
ENDROOT
BRANCH   1   7
HETATM    7  C   LIG     1       0.521   0.820  -1.060  1.00  0.00     0.039 C 
HETATM    8  C   LIG     1       1.746   0.410  -0.695  1.00  0.00     0.083 C 
BRANCH   8   9
HETATM    9  C   LIG     1       2.090  -0.248   0.583  1.00  0.00     0.165 C 
HETATM   10  O   LIG     1       1.371  -0.099   1.605  1.00  0.00    -0.647 OA
BRANCH   9  11
HETATM   11  O   LIG     1       3.266  -0.986   0.686  1.00  0.00    -0.773 OA
HETATM   12  H   LIG     1       3.880  -1.111  -0.110  1.00  0.00     0.167 HD
ENDBRANCH   9  11
ENDBRANCH   8   9
ENDBRANCH   1   7
TORSDOF 3
