MODEL 1
REMARK VINA RESULT:      -5.7      0.000      0.000
REMARK  3 active torsions:
REMARK  status: ('A' for Active; 'I' for Inactive)
REMARK    1  A    between atoms: C_2  and  C_4 
REMARK    2  A    between atoms: C_2  and  O_3 
REMARK    3  A    between atoms: C_5  and  C_6 
ROOT
HETATM    1  C   LIG     1      17.379  37.841  24.334  1.00  0.00     0.073 A 
HETATM    2  C   LIG     1      17.971  38.358  23.199  1.00  0.00     0.120 A 
HETATM    3  N   LIG     1      17.002  38.625  22.312  1.00  0.00    -0.358 N 
HETATM    4  C   LIG     1      15.851  38.291  22.925  1.00  0.00     0.207 A 
HETATM    5  N   LIG     1      16.041  37.820  24.175  1.00  0.00    -0.243 NA
HETATM    6  H   LIG     1      17.114  39.031  21.357  1.00  0.00     0.166 HD
ENDROOT
BRANCH   1   7
HETATM    7  C   LIG     1      18.040  37.509  25.610  1.00  0.00     0.039 C 
HETATM    8  C   LIG     1      18.130  36.283  26.150  1.00  0.00     0.083 C 
BRANCH   8   9
HETATM    9  C   LIG     1      17.402  35.082  25.689  1.00  0.00     0.165 C 
HETATM   10  O   LIG     1      17.426  34.732  24.481  1.00  0.00    -0.647 OA
BRANCH   9  11
HETATM   11  O   LIG     1      16.616  34.364  26.586  1.00  0.00    -0.773 OA
HETATM   12  H   LIG     1      16.828  34.348  27.576  1.00  0.00     0.167 HD
ENDBRANCH   9  11
ENDBRANCH   8   9
ENDBRANCH   1   7
TORSDOF 3
ENDMDL
MODEL 2
REMARK VINA RESULT:      -5.7      3.027      3.858
REMARK  3 active torsions:
REMARK  status: ('A' for Active; 'I' for Inactive)
REMARK    1  A    between atoms: C_2  and  C_4 
REMARK    2  A    between atoms: C_2  and  O_3 
REMARK    3  A    between atoms: C_5  and  C_6 
ROOT
HETATM    1  C   LIG     1      16.977  36.647  22.743  1.00  0.00     0.073 A 
HETATM    2  C   LIG     1      16.632  37.970  22.561  1.00  0.00     0.120 A 
HETATM    3  N   LIG     1      16.533  38.543  23.769  1.00  0.00    -0.358 N 
HETATM    4  C   LIG     1      16.837  37.574  24.652  1.00  0.00     0.207 A 
HETATM    5  N   LIG     1      17.131  36.398  24.059  1.00  0.00    -0.243 NA
HETATM    6  H   LIG     1      16.295  39.538  23.979  1.00  0.00     0.166 HD
ENDROOT
BRANCH   1   7
HETATM    7  C   LIG     1      17.304  35.660  21.697  1.00  0.00     0.039 C 
HETATM    8  C   LIG     1      16.417  34.934  20.999  1.00  0.00     0.083 C 
BRANCH   8   9
HETATM    9  C   LIG     1      14.973  34.821  21.294  1.00  0.00     0.165 C 
HETATM   10  O   LIG     1      14.472  33.734  21.682  1.00  0.00    -0.647 OA
BRANCH   9  11
HETATM   11  O   LIG     1      14.134  35.910  21.071  1.00  0.00    -0.773 OA
HETATM   12  H   LIG     1      13.266  36.019  21.582  1.00  0.00     0.167 HD
ENDBRANCH   9  11
ENDBRANCH   8   9
ENDBRANCH   1   7
TORSDOF 3
ENDMDL
MODEL 3
REMARK VINA RESULT:      -5.3      4.300      5.491
REMARK  3 active torsions:
REMARK  status: ('A' for Active; 'I' for Inactive)
REMARK    1  A    between atoms: C_2  and  C_4 
REMARK    2  A    between atoms: C_2  and  O_3 
REMARK    3  A    between atoms: C_5  and  C_6 
ROOT
HETATM    1  C   LIG     1      17.583  37.485  21.502  1.00  0.00     0.073 A 
HETATM    2  C   LIG     1      16.347  37.194  22.041  1.00  0.00     0.120 A 
HETATM    3  N   LIG     1      16.075  38.116  22.976  1.00  0.00    -0.358 N 
HETATM    4  C   LIG     1      17.128  38.953  22.973  1.00  0.00     0.207 A 
HETATM    5  N   LIG     1      18.069  38.607  22.069  1.00  0.00    -0.243 NA
HETATM    6  H   LIG     1      15.215  38.185  23.564  1.00  0.00     0.166 HD
ENDROOT
BRANCH   1   7
HETATM    7  C   LIG     1      18.241  36.812  20.367  1.00  0.00     0.039 C 
HETATM    8  C   LIG     1      19.036  37.401  19.460  1.00  0.00     0.083 C 
BRANCH   8   9
HETATM    9  C   LIG     1      19.222  38.858  19.294  1.00  0.00     0.165 C 
HETATM   10  O   LIG     1      18.686  39.478  18.339  1.00  0.00    -0.647 OA
BRANCH   9  11
HETATM   11  O   LIG     1      20.063  39.551  20.161  1.00  0.00    -0.773 OA
HETATM   12  H   LIG     1      20.766  40.191  19.813  1.00  0.00     0.167 HD
ENDBRANCH   9  11
ENDBRANCH   8   9
ENDBRANCH   1   7
TORSDOF 3
ENDMDL
MODEL 4
REMARK VINA RESULT:      -5.3      2.395      3.255
REMARK  3 active torsions:
REMARK  status: ('A' for Active; 'I' for Inactive)
REMARK    1  A    between atoms: C_2  and  C_4 
REMARK    2  A    between atoms: C_2  and  O_3 
REMARK    3  A    between atoms: C_5  and  C_6 
ROOT
HETATM    1  C   LIG     1      17.626  38.111  21.919  1.00  0.00     0.073 A 
HETATM    2  C   LIG     1      18.116  39.387  22.110  1.00  0.00     0.120 A 
HETATM    3  N   LIG     1      19.025  39.629  21.155  1.00  0.00    -0.358 N 
HETATM    4  C   LIG     1      19.055  38.517  20.397  1.00  0.00     0.207 A 
HETATM    5  N   LIG     1      18.197  37.568  20.826  1.00  0.00    -0.243 NA
HETATM    6  H   LIG     1      19.576  40.505  21.014  1.00  0.00     0.166 HD
ENDROOT
BRANCH   1   7
HETATM    7  C   LIG     1      16.529  37.459  22.658  1.00  0.00     0.039 C 
HETATM    8  C   LIG     1      16.390  37.433  23.993  1.00  0.00     0.083 C 
BRANCH   8   9
HETATM    9  C   LIG     1      17.412  37.853  24.974  1.00  0.00     0.165 C 
HETATM   10  O   LIG     1      18.395  37.116  25.245  1.00  0.00    -0.647 OA
BRANCH   9  11
HETATM   11  O   LIG     1      17.253  39.049  25.669  1.00  0.00    -0.773 OA
HETATM   12  H   LIG     1      17.207  39.068  26.681  1.00  0.00     0.167 HD
ENDBRANCH   9  11
ENDBRANCH   8   9
ENDBRANCH   1   7
TORSDOF 3
ENDMDL
MODEL 5
REMARK VINA RESULT:      -5.3      3.193      4.222
REMARK  3 active torsions:
REMARK  status: ('A' for Active; 'I' for Inactive)
REMARK    1  A    between atoms: C_2  and  C_4 
REMARK    2  A    between atoms: C_2  and  O_3 
REMARK    3  A    between atoms: C_5  and  C_6 
ROOT
HETATM    1  C   LIG     1      18.359  37.680  20.655  1.00  0.00     0.073 A 
HETATM    2  C   LIG     1      18.179  38.976  21.094  1.00  0.00     0.120 A 
HETATM    3  N   LIG     1      19.134  39.737  20.540  1.00  0.00    -0.358 N 
HETATM    4  C   LIG     1      19.854  38.903  19.766  1.00  0.00     0.207 A 
HETATM    5  N   LIG     1      19.398  37.634  19.798  1.00  0.00    -0.243 NA
HETATM    6  H   LIG     1      19.274  40.764  20.662  1.00  0.00     0.166 HD
ENDROOT
BRANCH   1   7
HETATM    7  C   LIG     1      17.481  36.523  20.913  1.00  0.00     0.039 C 
HETATM    8  C   LIG     1      16.574  36.432  21.898  1.00  0.00     0.083 C 
BRANCH   8   9
HETATM    9  C   LIG     1      16.437  37.369  23.034  1.00  0.00     0.165 C 
HETATM   10  O   LIG     1      17.244  37.342  23.999  1.00  0.00    -0.647 OA
BRANCH   9  11
HETATM   11  O   LIG     1      15.359  38.248  23.079  1.00  0.00    -0.773 OA
HETATM   12  H   LIG     1      14.473  38.017  22.644  1.00  0.00     0.167 HD
ENDBRANCH   9  11
ENDBRANCH   8   9
ENDBRANCH   1   7
TORSDOF 3
ENDMDL
MODEL 6
REMARK VINA RESULT:      -5.2      3.032      4.196
REMARK  3 active torsions:
REMARK  status: ('A' for Active; 'I' for Inactive)
REMARK    1  A    between atoms: C_2  and  C_4 
REMARK    2  A    between atoms: C_2  and  O_3 
REMARK    3  A    between atoms: C_5  and  C_6 
ROOT
HETATM    1  C   LIG     1      17.018  36.953  23.977  1.00  0.00     0.073 A 
HETATM    2  C   LIG     1      17.514  36.185  25.011  1.00  0.00     0.120 A 
HETATM    3  N   LIG     1      17.676  36.982  26.077  1.00  0.00    -0.358 N 
HETATM    4  C   LIG     1      17.261  38.200  25.683  1.00  0.00     0.207 A 
HETATM    5  N   LIG     1      16.834  38.218  24.403  1.00  0.00    -0.243 NA
HETATM    6  H   LIG     1      18.027  36.709  27.022  1.00  0.00     0.166 HD
ENDROOT
BRANCH   1   7
HETATM    7  C   LIG     1      16.580  36.484  22.649  1.00  0.00     0.039 C 
HETATM    8  C   LIG     1      17.071  36.898  21.470  1.00  0.00     0.083 C 
BRANCH   8   9
HETATM    9  C   LIG     1      17.974  38.051  21.269  1.00  0.00     0.165 C 
HETATM   10  O   LIG     1      19.005  37.953  20.554  1.00  0.00    -0.647 OA
BRANCH   9  11
HETATM   11  O   LIG     1      17.727  39.247  21.938  1.00  0.00    -0.773 OA
HETATM   12  H   LIG     1      18.118  39.429  22.854  1.00  0.00     0.167 HD
ENDBRANCH   9  11
ENDBRANCH   8   9
ENDBRANCH   1   7
TORSDOF 3
ENDMDL
MODEL 7
REMARK VINA RESULT:      -5.2     10.730     11.522
REMARK  3 active torsions:
REMARK  status: ('A' for Active; 'I' for Inactive)
REMARK    1  A    between atoms: C_2  and  C_4 
REMARK    2  A    between atoms: C_2  and  O_3 
REMARK    3  A    between atoms: C_5  and  C_6 
ROOT
HETATM    1  C   LIG     1      14.692  30.546  14.869  1.00  0.00     0.073 A 
HETATM    2  C   LIG     1      15.342  29.581  14.128  1.00  0.00     0.120 A 
HETATM    3  N   LIG     1      14.439  28.658  13.767  1.00  0.00    -0.358 N 
HETATM    4  C   LIG     1      13.267  29.085  14.271  1.00  0.00     0.207 A 
HETATM    5  N   LIG     1      13.379  30.251  14.941  1.00  0.00    -0.243 NA
HETATM    6  H   LIG     1      14.606  27.801  13.194  1.00  0.00     0.166 HD
ENDROOT
BRANCH   1   7
HETATM    7  C   LIG     1      15.258  31.809  15.380  1.00  0.00     0.039 C 
HETATM    8  C   LIG     1      15.004  32.352  16.581  1.00  0.00     0.083 C 
BRANCH   8   9
HETATM    9  C   LIG     1      13.950  31.914  17.520  1.00  0.00     0.165 C 
HETATM   10  O   LIG     1      14.238  31.300  18.580  1.00  0.00    -0.647 OA
BRANCH   9  11
HETATM   11  O   LIG     1      12.610  32.115  17.198  1.00  0.00    -0.773 OA
HETATM   12  H   LIG     1      12.061  31.389  16.755  1.00  0.00     0.167 HD
ENDBRANCH   9  11
ENDBRANCH   8   9
ENDBRANCH   1   7
TORSDOF 3
ENDMDL
MODEL 8
REMARK VINA RESULT:      -5.1      9.728     10.687
REMARK  3 active torsions:
REMARK  status: ('A' for Active; 'I' for Inactive)
REMARK    1  A    between atoms: C_2  and  C_4 
REMARK    2  A    between atoms: C_2  and  O_3 
REMARK    3  A    between atoms: C_5  and  C_6 
ROOT
HETATM    1  C   LIG     1      13.858  31.748  17.150  1.00  0.00     0.073 A 
HETATM    2  C   LIG     1      14.459  32.975  16.955  1.00  0.00     0.120 A 
HETATM    3  N   LIG     1      15.150  33.279  18.063  1.00  0.00    -0.358 N 
HETATM    4  C   LIG     1      14.976  32.234  18.893  1.00  0.00     0.207 A 
HETATM    5  N   LIG     1      14.201  31.266  18.361  1.00  0.00    -0.243 NA
HETATM    6  H   LIG     1      15.723  34.135  18.236  1.00  0.00     0.166 HD
ENDROOT
BRANCH   1   7
HETATM    7  C   LIG     1      13.094  30.964  16.162  1.00  0.00     0.039 C 
HETATM    8  C   LIG     1      13.608  30.337  15.092  1.00  0.00     0.083 C 
BRANCH   8   9
HETATM    9  C   LIG     1      14.985  30.495  14.579  1.00  0.00     0.165 C 
HETATM   10  O   LIG     1      15.378  31.589  14.098  1.00  0.00    -0.647 OA
BRANCH   9  11
HETATM   11  O   LIG     1      15.844  29.399  14.557  1.00  0.00    -0.773 OA
HETATM   12  H   LIG     1      16.771  29.449  14.961  1.00  0.00     0.167 HD
ENDBRANCH   9  11
ENDBRANCH   8   9
ENDBRANCH   1   7
TORSDOF 3
ENDMDL
MODEL 9
REMARK VINA RESULT:      -5.1      2.741      3.679
REMARK  3 active torsions:
REMARK  status: ('A' for Active; 'I' for Inactive)
REMARK    1  A    between atoms: C_2  and  C_4 
REMARK    2  A    between atoms: C_2  and  O_3 
REMARK    3  A    between atoms: C_5  and  C_6 
ROOT
HETATM    1  C   LIG     1      16.716  36.810  21.708  1.00  0.00     0.073 A 
HETATM    2  C   LIG     1      15.371  36.551  21.872  1.00  0.00     0.120 A 
HETATM    3  N   LIG     1      15.191  35.225  21.779  1.00  0.00    -0.358 N 
HETATM    4  C   LIG     1      16.418  34.708  21.585  1.00  0.00     0.207 A 
HETATM    5  N   LIG     1      17.384  35.650  21.552  1.00  0.00    -0.243 NA
HETATM    6  H   LIG     1      14.291  34.702  21.865  1.00  0.00     0.166 HD
ENDROOT
BRANCH   1   7
HETATM    7  C   LIG     1      17.395  38.113  21.843  1.00  0.00     0.039 C 
HETATM    8  C   LIG     1      17.856  38.641  22.988  1.00  0.00     0.083 C 
BRANCH   8   9
HETATM    9  C   LIG     1      17.578  38.130  24.347  1.00  0.00     0.165 C 
HETATM   10  O   LIG     1      16.402  38.070  24.791  1.00  0.00    -0.647 OA
BRANCH   9  11
HETATM   11  O   LIG     1      18.634  37.776  25.182  1.00  0.00    -0.773 OA
HETATM   12  H   LIG     1      19.491  38.315  25.203  1.00  0.00     0.167 HD
ENDBRANCH   9  11
ENDBRANCH   8   9
ENDBRANCH   1   7
TORSDOF 3
ENDMDL
MODEL 10
REMARK VINA RESULT:      -5.0      9.728     10.647
REMARK  3 active torsions:
REMARK  status: ('A' for Active; 'I' for Inactive)
REMARK    1  A    between atoms: C_2  and  C_4 
REMARK    2  A    between atoms: C_2  and  O_3 
REMARK    3  A    between atoms: C_5  and  C_6 
ROOT
HETATM    1  C   LIG     1      15.778  31.829  14.747  1.00  0.00     0.073 A 
HETATM    2  C   LIG     1      16.161  32.256  13.492  1.00  0.00     0.120 A 
HETATM    3  N   LIG     1      17.229  33.054  13.634  1.00  0.00    -0.358 N 
HETATM    4  C   LIG     1      17.486  33.080  14.955  1.00  0.00     0.207 A 
HETATM    5  N   LIG     1      16.625  32.326  15.670  1.00  0.00    -0.243 NA
HETATM    6  H   LIG     1      17.764  33.534  12.877  1.00  0.00     0.166 HD
ENDROOT
BRANCH   1   7
HETATM    7  C   LIG     1      14.724  30.849  15.071  1.00  0.00     0.039 C 
HETATM    8  C   LIG     1      13.883  30.920  16.115  1.00  0.00     0.083 C 
BRANCH   8   9
HETATM    9  C   LIG     1      13.995  31.860  17.250  1.00  0.00     0.165 C 
HETATM   10  O   LIG     1      14.160  31.442  18.426  1.00  0.00    -0.647 OA
BRANCH   9  11
HETATM   11  O   LIG     1      13.842  33.226  17.034  1.00  0.00    -0.773 OA
HETATM   12  H   LIG     1      13.167  33.581  16.366  1.00  0.00     0.167 HD
ENDBRANCH   9  11
ENDBRANCH   8   9
ENDBRANCH   1   7
TORSDOF 3
ENDMDL
MODEL 11
REMARK VINA RESULT:      -5.0      4.480      5.882
REMARK  3 active torsions:
REMARK  status: ('A' for Active; 'I' for Inactive)
REMARK    1  A    between atoms: C_2  and  C_4 
REMARK    2  A    between atoms: C_2  and  O_3 
REMARK    3  A    between atoms: C_5  and  C_6 
ROOT
HETATM    1  C   LIG     1      17.811  36.479  20.377  1.00  0.00     0.073 A 
HETATM    2  C   LIG     1      17.393  36.942  21.608  1.00  0.00     0.120 A 
HETATM    3  N   LIG     1      16.181  36.424  21.855  1.00  0.00    -0.358 N 
HETATM    4  C   LIG     1      15.898  35.647  20.793  1.00  0.00     0.207 A 
HETATM    5  N   LIG     1      16.883  35.643  19.871  1.00  0.00    -0.243 NA
HETATM    6  H   LIG     1      15.593  36.571  22.705  1.00  0.00     0.166 HD
ENDROOT
BRANCH   1   7
HETATM    7  C   LIG     1      19.126  36.694  19.744  1.00  0.00     0.039 C 
HETATM    8  C   LIG     1      19.692  37.887  19.500  1.00  0.00     0.083 C 
BRANCH   8   9
HETATM    9  C   LIG     1      19.021  39.199  19.612  1.00  0.00     0.165 C 
HETATM   10  O   LIG     1      18.878  39.763  20.727  1.00  0.00    -0.647 OA
BRANCH   9  11
HETATM   11  O   LIG     1      18.470  39.792  18.479  1.00  0.00    -0.773 OA
HETATM   12  H   LIG     1      18.211  40.772  18.471  1.00  0.00     0.167 HD
ENDBRANCH   9  11
ENDBRANCH   8   9
ENDBRANCH   1   7
TORSDOF 3
ENDMDL
MODEL 12
REMARK VINA RESULT:      -5.0      1.675      2.134
REMARK  3 active torsions:
REMARK  status: ('A' for Active; 'I' for Inactive)
REMARK    1  A    between atoms: C_2  and  C_4 
REMARK    2  A    between atoms: C_2  and  O_3 
REMARK    3  A    between atoms: C_5  and  C_6 
ROOT
HETATM    1  C   LIG     1      16.894  36.877  23.189  1.00  0.00     0.073 A 
HETATM    2  C   LIG     1      17.544  37.276  22.039  1.00  0.00     0.120 A 
HETATM    3  N   LIG     1      17.243  38.564  21.818  1.00  0.00    -0.358 N 
HETATM    4  C   LIG     1      16.443  38.926  22.838  1.00  0.00     0.207 A 
HETATM    5  N   LIG     1      16.219  37.921  23.709  1.00  0.00    -0.243 NA
HETATM    6  H   LIG     1      17.580  39.166  21.034  1.00  0.00     0.166 HD
ENDROOT
BRANCH   1   7
HETATM    7  C   LIG     1      17.019  35.580  23.878  1.00  0.00     0.039 C 
HETATM    8  C   LIG     1      17.511  35.393  25.113  1.00  0.00     0.083 C 
BRANCH   8   9
HETATM    9  C   LIG     1      18.218  36.407  25.923  1.00  0.00     0.165 C 
HETATM   10  O   LIG     1      18.374  36.257  27.162  1.00  0.00    -0.647 OA
BRANCH   9  11
HETATM   11  O   LIG     1      18.658  37.585  25.325  1.00  0.00    -0.773 OA
HETATM   12  H   LIG     1      18.289  38.486  25.604  1.00  0.00     0.167 HD
ENDBRANCH   9  11
ENDBRANCH   8   9
ENDBRANCH   1   7
TORSDOF 3
ENDMDL
MODEL 13
REMARK VINA RESULT:      -4.9     10.512     11.560
REMARK  3 active torsions:
REMARK  status: ('A' for Active; 'I' for Inactive)
REMARK    1  A    between atoms: C_2  and  C_4 
REMARK    2  A    between atoms: C_2  and  O_3 
REMARK    3  A    between atoms: C_5  and  C_6 
ROOT
HETATM    1  C   LIG     1      14.068  30.887  15.648  1.00  0.00     0.073 A 
HETATM    2  C   LIG     1      12.781  30.808  16.141  1.00  0.00     0.120 A 
HETATM    3  N   LIG     1      12.720  31.547  17.258  1.00  0.00    -0.358 N 
HETATM    4  C   LIG     1      13.949  32.073  17.411  1.00  0.00     0.207 A 
HETATM    5  N   LIG     1      14.801  31.703  16.432  1.00  0.00    -0.243 NA
HETATM    6  H   LIG     1      11.886  31.702  17.868  1.00  0.00     0.166 HD
ENDROOT
BRANCH   1   7
HETATM    7  C   LIG     1      14.572  30.329  14.380  1.00  0.00     0.039 C 
HETATM    8  C   LIG     1      15.627  30.785  13.687  1.00  0.00     0.083 C 
BRANCH   8   9
HETATM    9  C   LIG     1      16.343  32.053  13.941  1.00  0.00     0.165 C 
HETATM   10  O   LIG     1      16.133  33.071  13.231  1.00  0.00    -0.647 OA
BRANCH   9  11
HETATM   11  O   LIG     1      17.319  32.110  14.932  1.00  0.00    -0.773 OA
HETATM   12  H   LIG     1      17.853  32.955  15.096  1.00  0.00     0.167 HD
ENDBRANCH   9  11
ENDBRANCH   8   9
ENDBRANCH   1   7
TORSDOF 3
ENDMDL
MODEL 14
REMARK VINA RESULT:      -4.9     10.173     11.134
REMARK  3 active torsions:
REMARK  status: ('A' for Active; 'I' for Inactive)
REMARK    1  A    between atoms: C_2  and  C_4 
REMARK    2  A    between atoms: C_2  and  O_3 
REMARK    3  A    between atoms: C_5  and  C_6 
ROOT
HETATM    1  C   LIG     1      15.116  32.112  16.246  1.00  0.00     0.073 A 
HETATM    2  C   LIG     1      13.861  31.678  16.621  1.00  0.00     0.120 A 
HETATM    3  N   LIG     1      13.749  31.830  17.948  1.00  0.00    -0.358 N 
HETATM    4  C   LIG     1      14.916  32.367  18.349  1.00  0.00     0.207 A 
HETATM    5  N   LIG     1      15.776  32.570  17.329  1.00  0.00    -0.243 NA
HETATM    6  H   LIG     1      12.921  31.603  18.543  1.00  0.00     0.166 HD
ENDROOT
BRANCH   1   7
HETATM    7  C   LIG     1      15.642  32.238  14.874  1.00  0.00     0.039 C 
HETATM    8  C   LIG     1      15.564  31.300  13.917  1.00  0.00     0.083 C 
BRANCH   8   9
HETATM    9  C   LIG     1      15.142  29.898  14.115  1.00  0.00     0.165 C 
HETATM   10  O   LIG     1      15.972  29.008  14.437  1.00  0.00    -0.647 OA
BRANCH   9  11
HETATM   11  O   LIG     1      13.821  29.532  13.871  1.00  0.00    -0.773 OA
HETATM   12  H   LIG     1      13.338  29.833  13.033  1.00  0.00     0.167 HD
ENDBRANCH   9  11
ENDBRANCH   8   9
ENDBRANCH   1   7
TORSDOF 3
ENDMDL
MODEL 15
REMARK VINA RESULT:      -4.8      8.985     10.034
REMARK  3 active torsions:
REMARK  status: ('A' for Active; 'I' for Inactive)
REMARK    1  A    between atoms: C_2  and  C_4 
REMARK    2  A    between atoms: C_2  and  O_3 
REMARK    3  A    between atoms: C_5  and  C_6 
ROOT
HETATM    1  C   LIG     1      14.603  32.373  17.206  1.00  0.00     0.073 A 
HETATM    2  C   LIG     1      14.881  33.720  17.085  1.00  0.00     0.120 A 
HETATM    3  N   LIG     1      15.269  34.172  18.286  1.00  0.00    -0.358 N 
HETATM    4  C   LIG     1      15.241  33.102  19.100  1.00  0.00     0.207 A 
HETATM    5  N   LIG     1      14.852  31.974  18.469  1.00  0.00    -0.243 NA
HETATM    6  H   LIG     1      15.558  35.146  18.531  1.00  0.00     0.166 HD
ENDROOT
BRANCH   1   7
HETATM    7  C   LIG     1      14.251  31.435  16.124  1.00  0.00     0.039 C 
HETATM    8  C   LIG     1      14.997  31.176  15.039  1.00  0.00     0.083 C 
BRANCH   8   9
HETATM    9  C   LIG     1      16.192  31.935  14.612  1.00  0.00     0.165 C 
HETATM   10  O   LIG     1      17.293  31.800  15.205  1.00  0.00    -0.647 OA
BRANCH   9  11
HETATM   11  O   LIG     1      16.087  32.870  13.586  1.00  0.00    -0.773 OA
HETATM   12  H   LIG     1      15.704  32.619  12.683  1.00  0.00     0.167 HD
ENDBRANCH   9  11
ENDBRANCH   8   9
ENDBRANCH   1   7
TORSDOF 3
ENDMDL
MODEL 16
REMARK VINA RESULT:      -4.8      4.548      5.319
REMARK  3 active torsions:
REMARK  status: ('A' for Active; 'I' for Inactive)
REMARK    1  A    between atoms: C_2  and  C_4 
REMARK    2  A    between atoms: C_2  and  O_3 
REMARK    3  A    between atoms: C_5  and  C_6 
ROOT
HETATM    1  C   LIG     1      17.468  37.375  21.564  1.00  0.00     0.073 A 
HETATM    2  C   LIG     1      17.926  36.564  20.546  1.00  0.00     0.120 A 
HETATM    3  N   LIG     1      17.008  35.609  20.333  1.00  0.00    -0.358 N 
HETATM    4  C   LIG     1      16.012  35.868  21.200  1.00  0.00     0.207 A 
HETATM    5  N   LIG     1      16.252  36.956  21.963  1.00  0.00    -0.243 NA
HETATM    6  H   LIG     1      17.047  34.842  19.626  1.00  0.00     0.166 HD
ENDROOT
BRANCH   1   7
HETATM    7  C   LIG     1      18.090  38.617  22.060  1.00  0.00     0.039 C 
HETATM    8  C   LIG     1      18.799  39.487  21.323  1.00  0.00     0.083 C 
BRANCH   8   9
HETATM    9  C   LIG     1      19.277  39.260  19.943  1.00  0.00     0.165 C 
HETATM   10  O   LIG     1      18.586  39.607  18.950  1.00  0.00    -0.647 OA
BRANCH   9  11
HETATM   11  O   LIG     1      20.475  38.584  19.729  1.00  0.00    -0.773 OA
HETATM   12  H   LIG     1      21.362  38.983  20.013  1.00  0.00     0.167 HD
ENDBRANCH   9  11
ENDBRANCH   8   9
ENDBRANCH   1   7
TORSDOF 3
ENDMDL
MODEL 17
REMARK VINA RESULT:      -4.8      6.518      7.406
REMARK  3 active torsions:
REMARK  status: ('A' for Active; 'I' for Inactive)
REMARK    1  A    between atoms: C_2  and  C_4 
REMARK    2  A    between atoms: C_2  and  O_3 
REMARK    3  A    between atoms: C_5  and  C_6 
ROOT
HETATM    1  C   LIG     1      15.431  33.434  20.307  1.00  0.00     0.073 A 
HETATM    2  C   LIG     1      14.550  33.707  21.334  1.00  0.00     0.120 A 
HETATM    3  N   LIG     1      14.551  35.032  21.539  1.00  0.00    -0.358 N 
HETATM    4  C   LIG     1      15.404  35.536  20.629  1.00  0.00     0.207 A 
HETATM    5  N   LIG     1      15.953  34.586  19.843  1.00  0.00    -0.243 NA
HETATM    6  H   LIG     1      13.987  35.563  22.239  1.00  0.00     0.166 HD
ENDROOT
BRANCH   1   7
HETATM    7  C   LIG     1      15.672  32.129  19.665  1.00  0.00     0.039 C 
HETATM    8  C   LIG     1      15.232  31.759  18.452  1.00  0.00     0.083 C 
BRANCH   8   9
HETATM    9  C   LIG     1      14.246  32.493  17.632  1.00  0.00     0.165 C 
HETATM   10  O   LIG     1      13.171  31.950  17.266  1.00  0.00    -0.647 OA
BRANCH   9  11
HETATM   11  O   LIG     1      14.537  33.781  17.190  1.00  0.00    -0.773 OA
HETATM   12  H   LIG     1      15.215  33.945  16.456  1.00  0.00     0.167 HD
ENDBRANCH   9  11
ENDBRANCH   8   9
ENDBRANCH   1   7
TORSDOF 3
ENDMDL
MODEL 18
REMARK VINA RESULT:      -4.8      3.110      3.936
REMARK  3 active torsions:
REMARK  status: ('A' for Active; 'I' for Inactive)
REMARK    1  A    between atoms: C_2  and  C_4 
REMARK    2  A    between atoms: C_2  and  O_3 
REMARK    3  A    between atoms: C_5  and  C_6 
ROOT
HETATM    1  C   LIG     1      18.326  38.461  21.236  1.00  0.00     0.073 A 
HETATM    2  C   LIG     1      18.783  39.586  20.579  1.00  0.00     0.120 A 
HETATM    3  N   LIG     1      19.290  39.199  19.400  1.00  0.00    -0.358 N 
HETATM    4  C   LIG     1      19.114  37.866  19.352  1.00  0.00     0.207 A 
HETATM    5  N   LIG     1      18.510  37.378  20.456  1.00  0.00    -0.243 NA
HETATM    6  H   LIG     1      19.710  39.808  18.663  1.00  0.00     0.166 HD
ENDROOT
BRANCH   1   7
HETATM    7  C   LIG     1      17.590  38.414  22.513  1.00  0.00     0.039 C 
HETATM    8  C   LIG     1      16.809  37.405  22.930  1.00  0.00     0.083 C 
BRANCH   8   9
HETATM    9  C   LIG     1      16.363  36.262  22.106  1.00  0.00     0.165 C 
HETATM   10  O   LIG     1      15.214  36.239  21.594  1.00  0.00    -0.647 OA
BRANCH   9  11
HETATM   11  O   LIG     1      17.194  35.156  21.950  1.00  0.00    -0.773 OA
HETATM   12  H   LIG     1      16.913  34.237  22.271  1.00  0.00     0.167 HD
ENDBRANCH   9  11
ENDBRANCH   8   9
ENDBRANCH   1   7
TORSDOF 3
ENDMDL
MODEL 19
REMARK VINA RESULT:      -4.7      8.457      9.521
REMARK  3 active torsions:
REMARK  status: ('A' for Active; 'I' for Inactive)
REMARK    1  A    between atoms: C_2  and  C_4 
REMARK    2  A    between atoms: C_2  and  O_3 
REMARK    3  A    between atoms: C_5  and  C_6 
ROOT
HETATM    1  C   LIG     1      15.063  32.886  17.849  1.00  0.00     0.073 A 
HETATM    2  C   LIG     1      14.166  31.838  17.810  1.00  0.00     0.120 A 
HETATM    3  N   LIG     1      14.162  31.252  19.016  1.00  0.00    -0.358 N 
HETATM    4  C   LIG     1      15.030  31.959  19.763  1.00  0.00     0.207 A 
HETATM    5  N   LIG     1      15.592  32.981  19.085  1.00  0.00    -0.243 NA
HETATM    6  H   LIG     1      13.587  30.435  19.319  1.00  0.00     0.166 HD
ENDROOT
BRANCH   1   7
HETATM    7  C   LIG     1      15.317  33.881  16.790  1.00  0.00     0.039 C 
HETATM    8  C   LIG     1      15.917  33.638  15.614  1.00  0.00     0.083 C 
BRANCH   8   9
HETATM    9  C   LIG     1      16.631  32.395  15.250  1.00  0.00     0.165 C 
HETATM   10  O   LIG     1      16.005  31.380  14.849  1.00  0.00    -0.647 OA
BRANCH   9  11
HETATM   11  O   LIG     1      18.010  32.315  15.422  1.00  0.00    -0.773 OA
HETATM   12  H   LIG     1      18.626  33.043  15.080  1.00  0.00     0.167 HD
ENDBRANCH   9  11
ENDBRANCH   8   9
ENDBRANCH   1   7
TORSDOF 3
ENDMDL
MODEL 20
REMARK VINA RESULT:      -4.6     10.703     11.661
REMARK  3 active torsions:
REMARK  status: ('A' for Active; 'I' for Inactive)
REMARK    1  A    between atoms: C_2  and  C_4 
REMARK    2  A    between atoms: C_2  and  O_3 
REMARK    3  A    between atoms: C_5  and  C_6 
ROOT
HETATM    1  C   LIG     1      14.181  30.872  15.527  1.00  0.00     0.073 A 
HETATM    2  C   LIG     1      12.930  30.313  15.356  1.00  0.00     0.120 A 
HETATM    3  N   LIG     1      13.045  29.301  14.484  1.00  0.00    -0.358 N 
HETATM    4  C   LIG     1      14.350  29.250  14.161  1.00  0.00     0.207 A 
HETATM    5  N   LIG     1      15.083  30.189  14.795  1.00  0.00    -0.243 NA
HETATM    6  H   LIG     1      12.285  28.669  14.146  1.00  0.00     0.166 HD
ENDROOT
BRANCH   1   7
HETATM    7  C   LIG     1      14.558  31.936  16.476  1.00  0.00     0.039 C 
HETATM    8  C   LIG     1      15.533  32.840  16.291  1.00  0.00     0.083 C 
BRANCH   8   9
HETATM    9  C   LIG     1      16.549  32.806  15.219  1.00  0.00     0.165 C 
HETATM   10  O   LIG     1      16.342  33.362  14.109  1.00  0.00    -0.647 OA
BRANCH   9  11
HETATM   11  O   LIG     1      17.727  32.088  15.405  1.00  0.00    -0.773 OA
HETATM   12  H   LIG     1      17.727  31.190  15.875  1.00  0.00     0.167 HD
ENDBRANCH   9  11
ENDBRANCH   8   9
ENDBRANCH   1   7
TORSDOF 3
ENDMDL
