REMARK  2 active torsions:
REMARK  status: ('A' for Active; 'I' for Inactive)
REMARK    1  A    between atoms: C_3  and  C_4 
REMARK    2  A    between atoms: C_7  and  O_8 
ROOT
HETATM    1  C   LIG     1      -0.809   0.358   0.759  1.00  0.00    -0.036 A 
HETATM    2  C   LIG     1       0.239   1.268   0.572  1.00  0.00     0.014 A 
HETATM    3  C   LIG     1       1.512   0.818   0.208  1.00  0.00     0.037 A 
HETATM    4  C   LIG     1       1.758  -0.559   0.047  1.00  0.00     0.068 A 
HETATM    5  C   LIG     1       0.715  -1.468   0.264  1.00  0.00     0.037 A 
HETATM    6  C   LIG     1      -0.557  -1.017   0.626  1.00  0.00     0.014 A 
ENDROOT
BRANCH   1   7
HETATM    7  C   LIG     1      -2.136   0.861   1.171  1.00  0.00     0.007 C 
HETATM    8  C   LIG     1      -3.282   0.585   0.533  1.00  0.00    -0.030 C 
HETATM    9  C   LIG     1      -3.372  -0.243  -0.713  1.00  0.00     0.036 C 
ENDBRANCH   1   7
BRANCH   4  10
HETATM   10  O   LIG     1       3.015  -1.062  -0.318  1.00  0.00    -0.356 OA
HETATM   11  C   LIG     1       4.162  -0.255  -0.568  1.00  0.00     0.210 C 
ENDBRANCH   4  10
TORSDOF 2
