MODEL 1
REMARK VINA RESULT:      -7.0      0.000      0.000
REMARK  3 active torsions:
REMARK  status: ('A' for Active; 'I' for Inactive)
REMARK    1  A    between atoms: C_2  and  C_3 
REMARK    2  A    between atoms: C_3  and  C_4 
REMARK    3  A    between atoms: C_4  and  C_5 
ROOT
HETATM    1  C   LIG     1      17.191  36.964  24.329  1.00  0.00    -0.058 A 
HETATM    2  C   LIG     1      17.861  37.581  25.400  1.00  0.00     0.007 A 
HETATM    3  C   LIG     1      18.395  36.817  26.443  1.00  0.00     0.001 A 
HETATM    4  C   LIG     1      18.266  35.427  26.428  1.00  0.00     0.000 A 
HETATM    5  C   LIG     1      17.604  34.799  25.372  1.00  0.00     0.001 A 
HETATM    6  C   LIG     1      17.067  35.557  24.327  1.00  0.00     0.007 A 
ENDROOT
BRANCH   1   7
HETATM    7  C   LIG     1      16.636  37.855  23.234  1.00  0.00     0.038 C 
BRANCH   7   8
HETATM    8  C   LIG     1      17.470  37.911  21.943  1.00  0.00     0.004 C 
BRANCH   8   9
HETATM    9  C   LIG     1      18.361  39.158  21.919  1.00  0.00    -0.004 C 
HETATM   10  C   LIG     1      19.059  39.311  20.570  1.00  0.00     0.005 C 
ENDBRANCH   8   9
ENDBRANCH   7   8
ENDBRANCH   1   7
TORSDOF 3
ENDMDL
MODEL 2
REMARK VINA RESULT:      -7.0      0.074      1.532
REMARK  3 active torsions:
REMARK  status: ('A' for Active; 'I' for Inactive)
REMARK    1  A    between atoms: C_2  and  C_3 
REMARK    2  A    between atoms: C_3  and  C_4 
REMARK    3  A    between atoms: C_4  and  C_5 
ROOT
HETATM    1  C   LIG     1      17.210  37.020  24.341  1.00  0.00    -0.058 A 
HETATM    2  C   LIG     1      17.051  35.624  24.275  1.00  0.00     0.007 A 
HETATM    3  C   LIG     1      17.552  34.801  25.288  1.00  0.00     0.001 A 
HETATM    4  C   LIG     1      18.219  35.360  26.379  1.00  0.00     0.000 A 
HETATM    5  C   LIG     1      18.385  36.744  26.460  1.00  0.00     0.001 A 
HETATM    6  C   LIG     1      17.887  37.573  25.451  1.00  0.00     0.007 A 
ENDROOT
BRANCH   1   7
HETATM    7  C   LIG     1      16.641  37.851  23.207  1.00  0.00     0.038 C 
BRANCH   7   8
HETATM    8  C   LIG     1      17.495  37.898  21.929  1.00  0.00     0.004 C 
BRANCH   8   9
HETATM    9  C   LIG     1      18.364  39.160  21.896  1.00  0.00    -0.004 C 
HETATM   10  C   LIG     1      18.975  39.372  20.514  1.00  0.00     0.005 C 
ENDBRANCH   8   9
ENDBRANCH   7   8
ENDBRANCH   1   7
TORSDOF 3
ENDMDL
MODEL 3
REMARK VINA RESULT:      -6.8      1.167      5.044
REMARK  3 active torsions:
REMARK  status: ('A' for Active; 'I' for Inactive)
REMARK    1  A    between atoms: C_2  and  C_3 
REMARK    2  A    between atoms: C_3  and  C_4 
REMARK    3  A    between atoms: C_4  and  C_5 
ROOT
HETATM    1  C   LIG     1      17.720  38.241  21.721  1.00  0.00    -0.058 A 
HETATM    2  C   LIG     1      17.741  37.023  21.018  1.00  0.00     0.007 A 
HETATM    3  C   LIG     1      18.597  36.844  19.927  1.00  0.00     0.001 A 
HETATM    4  C   LIG     1      19.442  37.879  19.523  1.00  0.00     0.000 A 
HETATM    5  C   LIG     1      19.434  39.094  20.210  1.00  0.00     0.001 A 
HETATM    6  C   LIG     1      18.580  39.280  21.302  1.00  0.00     0.007 A 
ENDROOT
BRANCH   1   7
HETATM    7  C   LIG     1      16.766  38.364  22.895  1.00  0.00     0.038 C 
BRANCH   7   8
HETATM    8  C   LIG     1      16.908  37.280  23.976  1.00  0.00     0.004 C 
BRANCH   8   9
HETATM    9  C   LIG     1      17.475  37.870  25.272  1.00  0.00    -0.004 C 
HETATM   10  C   LIG     1      18.360  36.860  25.997  1.00  0.00     0.005 C 
ENDBRANCH   8   9
ENDBRANCH   7   8
ENDBRANCH   1   7
TORSDOF 3
ENDMDL
MODEL 4
REMARK VINA RESULT:      -6.6      1.400      5.170
REMARK  3 active torsions:
REMARK  status: ('A' for Active; 'I' for Inactive)
REMARK    1  A    between atoms: C_2  and  C_3 
REMARK    2  A    between atoms: C_3  and  C_4 
REMARK    3  A    between atoms: C_4  and  C_5 
ROOT
HETATM    1  C   LIG     1      17.588  37.299  21.415  1.00  0.00    -0.058 A 
HETATM    2  C   LIG     1      18.159  36.547  20.374  1.00  0.00     0.007 A 
HETATM    3  C   LIG     1      19.059  37.135  19.480  1.00  0.00     0.001 A 
HETATM    4  C   LIG     1      19.400  38.482  19.615  1.00  0.00     0.000 A 
HETATM    5  C   LIG     1      18.842  39.242  20.644  1.00  0.00     0.001 A 
HETATM    6  C   LIG     1      17.941  38.661  21.541  1.00  0.00     0.007 A 
ENDROOT
BRANCH   1   7
HETATM    7  C   LIG     1      16.619  36.595  22.347  1.00  0.00     0.038 C 
BRANCH   7   8
HETATM    8  C   LIG     1      17.025  35.174  22.771  1.00  0.00     0.004 C 
BRANCH   8   9
HETATM    9  C   LIG     1      17.158  35.074  24.295  1.00  0.00    -0.004 C 
HETATM   10  C   LIG     1      17.445  36.438  24.915  1.00  0.00     0.005 C 
ENDBRANCH   8   9
ENDBRANCH   7   8
ENDBRANCH   1   7
TORSDOF 3
ENDMDL
MODEL 5
REMARK VINA RESULT:      -6.5      2.831      5.397
REMARK  3 active torsions:
REMARK  status: ('A' for Active; 'I' for Inactive)
REMARK    1  A    between atoms: C_2  and  C_3 
REMARK    2  A    between atoms: C_3  and  C_4 
REMARK    3  A    between atoms: C_4  and  C_5 
ROOT
HETATM    1  C   LIG     1      17.675  37.395  21.296  1.00  0.00    -0.058 A 
HETATM    2  C   LIG     1      18.254  36.612  20.281  1.00  0.00     0.007 A 
HETATM    3  C   LIG     1      19.236  37.146  19.440  1.00  0.00     0.001 A 
HETATM    4  C   LIG     1      19.651  38.469  19.602  1.00  0.00     0.000 A 
HETATM    5  C   LIG     1      19.087  39.259  20.604  1.00  0.00     0.001 A 
HETATM    6  C   LIG     1      18.105  38.732  21.448  1.00  0.00     0.007 A 
ENDROOT
BRANCH   1   7
HETATM    7  C   LIG     1      16.616  36.749  22.170  1.00  0.00     0.038 C 
BRANCH   7   8
HETATM    8  C   LIG     1      16.604  35.212  22.165  1.00  0.00     0.004 C 
BRANCH   8   9
HETATM    9  C   LIG     1      15.335  34.676  21.492  1.00  0.00    -0.004 C 
HETATM   10  C   LIG     1      15.676  33.738  20.339  1.00  0.00     0.005 C 
ENDBRANCH   8   9
ENDBRANCH   7   8
ENDBRANCH   1   7
TORSDOF 3
ENDMDL
MODEL 6
REMARK VINA RESULT:      -6.2      3.135      5.440
REMARK  3 active torsions:
REMARK  status: ('A' for Active; 'I' for Inactive)
REMARK    1  A    between atoms: C_2  and  C_3 
REMARK    2  A    between atoms: C_3  and  C_4 
REMARK    3  A    between atoms: C_4  and  C_5 
ROOT
HETATM    1  C   LIG     1      17.509  36.543  21.032  1.00  0.00    -0.058 A 
HETATM    2  C   LIG     1      17.219  37.624  21.884  1.00  0.00     0.007 A 
HETATM    3  C   LIG     1      17.832  38.866  21.695  1.00  0.00     0.001 A 
HETATM    4  C   LIG     1      18.743  39.045  20.653  1.00  0.00     0.000 A 
HETATM    5  C   LIG     1      19.042  37.984  19.798  1.00  0.00     0.001 A 
HETATM    6  C   LIG     1      18.433  36.738  19.981  1.00  0.00     0.007 A 
ENDROOT
BRANCH   1   7
HETATM    7  C   LIG     1      16.807  35.225  21.297  1.00  0.00     0.038 C 
BRANCH   7   8
HETATM    8  C   LIG     1      15.823  34.770  20.206  1.00  0.00     0.004 C 
BRANCH   8   9
HETATM    9  C   LIG     1      15.099  33.485  20.621  1.00  0.00    -0.004 C 
HETATM   10  C   LIG     1      15.560  32.297  19.782  1.00  0.00     0.005 C 
ENDBRANCH   8   9
ENDBRANCH   7   8
ENDBRANCH   1   7
TORSDOF 3
ENDMDL
MODEL 7
REMARK VINA RESULT:      -5.9      2.682      4.288
REMARK  3 active torsions:
REMARK  status: ('A' for Active; 'I' for Inactive)
REMARK    1  A    between atoms: C_2  and  C_3 
REMARK    2  A    between atoms: C_3  and  C_4 
REMARK    3  A    between atoms: C_4  and  C_5 
ROOT
HETATM    1  C   LIG     1      18.238  37.361  20.621  1.00  0.00    -0.058 A 
HETATM    2  C   LIG     1      17.518  36.171  20.829  1.00  0.00     0.007 A 
HETATM    3  C   LIG     1      16.633  36.052  21.906  1.00  0.00     0.001 A 
HETATM    4  C   LIG     1      16.456  37.120  22.787  1.00  0.00     0.000 A 
HETATM    5  C   LIG     1      17.163  38.308  22.594  1.00  0.00     0.001 A 
HETATM    6  C   LIG     1      18.050  38.433  21.521  1.00  0.00     0.007 A 
ENDROOT
BRANCH   1   7
HETATM    7  C   LIG     1      19.181  37.418  19.433  1.00  0.00     0.038 C 
BRANCH   7   8
HETATM    8  C   LIG     1      19.611  38.829  19.000  1.00  0.00     0.004 C 
BRANCH   8   9
HETATM    9  C   LIG     1      18.527  39.495  18.145  1.00  0.00    -0.004 C 
HETATM   10  C   LIG     1      18.920  39.511  16.671  1.00  0.00     0.005 C 
ENDBRANCH   8   9
ENDBRANCH   7   8
ENDBRANCH   1   7
TORSDOF 3
ENDMDL
MODEL 8
REMARK VINA RESULT:      -5.8      9.293     10.876
REMARK  3 active torsions:
REMARK  status: ('A' for Active; 'I' for Inactive)
REMARK    1  A    between atoms: C_2  and  C_3 
REMARK    2  A    between atoms: C_3  and  C_4 
REMARK    3  A    between atoms: C_4  and  C_5 
ROOT
HETATM    1  C   LIG     1      14.187  31.340  16.174  1.00  0.00    -0.058 A 
HETATM    2  C   LIG     1      15.340  31.657  15.436  1.00  0.00     0.007 A 
HETATM    3  C   LIG     1      15.624  30.997  14.236  1.00  0.00     0.001 A 
HETATM    4  C   LIG     1      14.758  30.011  13.759  1.00  0.00     0.000 A 
HETATM    5  C   LIG     1      13.609  29.684  14.479  1.00  0.00     0.001 A 
HETATM    6  C   LIG     1      13.320  30.340  15.680  1.00  0.00     0.007 A 
ENDROOT
BRANCH   1   7
HETATM    7  C   LIG     1      13.943  32.096  17.467  1.00  0.00     0.038 C 
BRANCH   7   8
HETATM    8  C   LIG     1      15.199  32.673  18.140  1.00  0.00     0.004 C 
BRANCH   8   9
HETATM    9  C   LIG     1      15.117  32.535  19.664  1.00  0.00    -0.004 C 
HETATM   10  C   LIG     1      14.879  31.085  20.075  1.00  0.00     0.005 C 
ENDBRANCH   8   9
ENDBRANCH   7   8
ENDBRANCH   1   7
TORSDOF 3
ENDMDL
MODEL 9
REMARK VINA RESULT:      -5.8      1.445      2.429
REMARK  3 active torsions:
REMARK  status: ('A' for Active; 'I' for Inactive)
REMARK    1  A    between atoms: C_2  and  C_3 
REMARK    2  A    between atoms: C_3  and  C_4 
REMARK    3  A    between atoms: C_4  and  C_5 
ROOT
HETATM    1  C   LIG     1      17.463  37.731  22.485  1.00  0.00    -0.058 A 
HETATM    2  C   LIG     1      17.476  37.511  23.874  1.00  0.00     0.007 A 
HETATM    3  C   LIG     1      17.232  36.238  24.397  1.00  0.00     0.001 A 
HETATM    4  C   LIG     1      16.972  35.167  23.540  1.00  0.00     0.000 A 
HETATM    5  C   LIG     1      16.955  35.368  22.159  1.00  0.00     0.001 A 
HETATM    6  C   LIG     1      17.197  36.639  21.629  1.00  0.00     0.007 A 
ENDROOT
BRANCH   1   7
HETATM    7  C   LIG     1      17.735  39.138  21.988  1.00  0.00     0.038 C 
BRANCH   7   8
HETATM    8  C   LIG     1      18.211  39.243  20.530  1.00  0.00     0.004 C 
BRANCH   8   9
HETATM    9  C   LIG     1      19.731  39.064  20.435  1.00  0.00    -0.004 C 
HETATM   10  C   LIG     1      20.094  37.934  19.477  1.00  0.00     0.005 C 
ENDBRANCH   8   9
ENDBRANCH   7   8
ENDBRANCH   1   7
TORSDOF 3
ENDMDL
MODEL 10
REMARK VINA RESULT:      -5.8      1.891      4.406
REMARK  3 active torsions:
REMARK  status: ('A' for Active; 'I' for Inactive)
REMARK    1  A    between atoms: C_2  and  C_3 
REMARK    2  A    between atoms: C_3  and  C_4 
REMARK    3  A    between atoms: C_4  and  C_5 
ROOT
HETATM    1  C   LIG     1      16.688  37.463  22.296  1.00  0.00    -0.058 A 
HETATM    2  C   LIG     1      15.386  36.939  22.382  1.00  0.00     0.007 A 
HETATM    3  C   LIG     1      14.975  35.906  21.534  1.00  0.00     0.001 A 
HETATM    4  C   LIG     1      15.860  35.383  20.589  1.00  0.00     0.000 A 
HETATM    5  C   LIG     1      17.156  35.891  20.491  1.00  0.00     0.001 A 
HETATM    6  C   LIG     1      17.573  36.924  21.336  1.00  0.00     0.007 A 
ENDROOT
BRANCH   1   7
HETATM    7  C   LIG     1      17.064  38.583  23.248  1.00  0.00     0.038 C 
BRANCH   7   8
HETATM    8  C   LIG     1      18.110  38.219  24.315  1.00  0.00     0.004 C 
BRANCH   8   9
HETATM    9  C   LIG     1      17.445  37.578  25.538  1.00  0.00    -0.004 C 
HETATM   10  C   LIG     1      17.829  36.107  25.667  1.00  0.00     0.005 C 
ENDBRANCH   8   9
ENDBRANCH   7   8
ENDBRANCH   1   7
TORSDOF 3
ENDMDL
MODEL 11
REMARK VINA RESULT:      -5.6     10.928     12.153
REMARK  3 active torsions:
REMARK  status: ('A' for Active; 'I' for Inactive)
REMARK    1  A    between atoms: C_2  and  C_3 
REMARK    2  A    between atoms: C_3  and  C_4 
REMARK    3  A    between atoms: C_4  and  C_5 
ROOT
HETATM    1  C   LIG     1      14.261  30.659  15.244  1.00  0.00    -0.058 A 
HETATM    2  C   LIG     1      15.370  31.501  15.050  1.00  0.00     0.007 A 
HETATM    3  C   LIG     1      15.591  32.596  15.893  1.00  0.00     0.001 A 
HETATM    4  C   LIG     1      14.706  32.862  16.939  1.00  0.00     0.000 A 
HETATM    5  C   LIG     1      13.600  32.036  17.145  1.00  0.00     0.001 A 
HETATM    6  C   LIG     1      13.373  30.940  16.306  1.00  0.00     0.007 A 
ENDROOT
BRANCH   1   7
HETATM    7  C   LIG     1      14.085  29.491  14.291  1.00  0.00     0.038 C 
BRANCH   7   8
HETATM    8  C   LIG     1      15.370  28.999  13.606  1.00  0.00     0.004 C 
BRANCH   8   9
HETATM    9  C   LIG     1      15.354  27.475  13.442  1.00  0.00    -0.004 C 
HETATM   10  C   LIG     1      15.929  27.060  12.091  1.00  0.00     0.005 C 
ENDBRANCH   8   9
ENDBRANCH   7   8
ENDBRANCH   1   7
TORSDOF 3
ENDMDL
MODEL 12
REMARK VINA RESULT:      -5.6      9.368     10.995
REMARK  3 active torsions:
REMARK  status: ('A' for Active; 'I' for Inactive)
REMARK    1  A    between atoms: C_2  and  C_3 
REMARK    2  A    between atoms: C_3  and  C_4 
REMARK    3  A    between atoms: C_4  and  C_5 
ROOT
HETATM    1  C   LIG     1      15.013  31.590  15.728  1.00  0.00    -0.058 A 
HETATM    2  C   LIG     1      13.797  30.925  15.969  1.00  0.00     0.007 A 
HETATM    3  C   LIG     1      13.351  29.919  15.106  1.00  0.00     0.001 A 
HETATM    4  C   LIG     1      14.114  29.565  13.991  1.00  0.00     0.000 A 
HETATM    5  C   LIG     1      15.322  30.215  13.738  1.00  0.00     0.001 A 
HETATM    6  C   LIG     1      15.774  31.222  14.596  1.00  0.00     0.007 A 
ENDROOT
BRANCH   1   7
HETATM    7  C   LIG     1      15.434  32.671  16.706  1.00  0.00     0.038 C 
BRANCH   7   8
HETATM    8  C   LIG     1      14.632  32.724  18.017  1.00  0.00     0.004 C 
BRANCH   8   9
HETATM    9  C   LIG     1      15.503  32.314  19.209  1.00  0.00    -0.004 C 
HETATM   10  C   LIG     1      14.818  31.241  20.050  1.00  0.00     0.005 C 
ENDBRANCH   8   9
ENDBRANCH   7   8
ENDBRANCH   1   7
TORSDOF 3
ENDMDL
MODEL 13
REMARK VINA RESULT:      -5.3      9.711     10.818
REMARK  3 active torsions:
REMARK  status: ('A' for Active; 'I' for Inactive)
REMARK    1  A    between atoms: C_2  and  C_3 
REMARK    2  A    between atoms: C_3  and  C_4 
REMARK    3  A    between atoms: C_4  and  C_5 
ROOT
HETATM    1  C   LIG     1      15.447  31.839  15.386  1.00  0.00    -0.058 A 
HETATM    2  C   LIG     1      14.764  32.313  16.521  1.00  0.00     0.007 A 
HETATM    3  C   LIG     1      13.546  31.747  16.909  1.00  0.00     0.001 A 
HETATM    4  C   LIG     1      12.993  30.700  16.168  1.00  0.00     0.000 A 
HETATM    5  C   LIG     1      13.657  30.218  15.040  1.00  0.00     0.001 A 
HETATM    6  C   LIG     1      14.876  30.780  14.646  1.00  0.00     0.007 A 
ENDROOT
BRANCH   1   7
HETATM    7  C   LIG     1      16.763  32.500  15.025  1.00  0.00     0.038 C 
BRANCH   7   8
HETATM    8  C   LIG     1      16.935  32.859  13.540  1.00  0.00     0.004 C 
BRANCH   8   9
HETATM    9  C   LIG     1      17.860  34.070  13.372  1.00  0.00    -0.004 C 
HETATM   10  C   LIG     1      19.194  33.664  12.753  1.00  0.00     0.005 C 
ENDBRANCH   8   9
ENDBRANCH   7   8
ENDBRANCH   1   7
TORSDOF 3
ENDMDL
MODEL 14
REMARK VINA RESULT:      -5.2     11.118     12.439
REMARK  3 active torsions:
REMARK  status: ('A' for Active; 'I' for Inactive)
REMARK    1  A    between atoms: C_2  and  C_3 
REMARK    2  A    between atoms: C_3  and  C_4 
REMARK    3  A    between atoms: C_4  and  C_5 
ROOT
HETATM    1  C   LIG     1      14.400  30.654  15.156  1.00  0.00    -0.058 A 
HETATM    2  C   LIG     1      15.478  31.544  15.004  1.00  0.00     0.007 A 
HETATM    3  C   LIG     1      15.619  32.645  15.855  1.00  0.00     0.001 A 
HETATM    4  C   LIG     1      14.686  32.870  16.869  1.00  0.00     0.000 A 
HETATM    5  C   LIG     1      13.611  31.996  17.034  1.00  0.00     0.001 A 
HETATM    6  C   LIG     1      13.463  30.893  16.186  1.00  0.00     0.007 A 
ENDROOT
BRANCH   1   7
HETATM    7  C   LIG     1      14.310  29.482  14.197  1.00  0.00     0.038 C 
BRANCH   7   8
HETATM    8  C   LIG     1      12.924  28.826  14.086  1.00  0.00     0.004 C 
BRANCH   8   9
HETATM    9  C   LIG     1      13.045  27.356  13.668  1.00  0.00    -0.004 C 
HETATM   10  C   LIG     1      11.790  26.884  12.940  1.00  0.00     0.005 C 
ENDBRANCH   8   9
ENDBRANCH   7   8
ENDBRANCH   1   7
TORSDOF 3
ENDMDL
MODEL 15
REMARK VINA RESULT:      -5.0      9.889     11.215
REMARK  3 active torsions:
REMARK  status: ('A' for Active; 'I' for Inactive)
REMARK    1  A    between atoms: C_2  and  C_3 
REMARK    2  A    between atoms: C_3  and  C_4 
REMARK    3  A    between atoms: C_4  and  C_5 
ROOT
HETATM    1  C   LIG     1      13.837  30.978  15.744  1.00  0.00    -0.058 A 
HETATM    2  C   LIG     1      15.121  31.045  15.176  1.00  0.00     0.007 A 
HETATM    3  C   LIG     1      15.505  30.151  14.171  1.00  0.00     0.001 A 
HETATM    4  C   LIG     1      14.611  29.178  13.721  1.00  0.00     0.000 A 
HETATM    5  C   LIG     1      13.332  29.097  14.274  1.00  0.00     0.001 A 
HETATM    6  C   LIG     1      12.942  29.988  15.280  1.00  0.00     0.007 A 
ENDROOT
BRANCH   1   7
HETATM    7  C   LIG     1      13.489  31.979  16.829  1.00  0.00     0.038 C 
BRANCH   7   8
HETATM    8  C   LIG     1      14.344  31.893  18.104  1.00  0.00     0.004 C 
BRANCH   8   9
HETATM    9  C   LIG     1      15.288  33.096  18.214  1.00  0.00    -0.004 C 
HETATM   10  C   LIG     1      14.964  34.149  17.158  1.00  0.00     0.005 C 
ENDBRANCH   8   9
ENDBRANCH   7   8
ENDBRANCH   1   7
TORSDOF 3
ENDMDL
MODEL 16
REMARK VINA RESULT:      -5.0      9.817     11.139
REMARK  3 active torsions:
REMARK  status: ('A' for Active; 'I' for Inactive)
REMARK    1  A    between atoms: C_2  and  C_3 
REMARK    2  A    between atoms: C_3  and  C_4 
REMARK    3  A    between atoms: C_4  and  C_5 
ROOT
HETATM    1  C   LIG     1      15.117  31.595  15.609  1.00  0.00    -0.058 A 
HETATM    2  C   LIG     1      15.433  30.787  14.502  1.00  0.00     0.007 A 
HETATM    3  C   LIG     1      14.527  29.830  14.035  1.00  0.00     0.001 A 
HETATM    4  C   LIG     1      13.293  29.668  14.668  1.00  0.00     0.000 A 
HETATM    5  C   LIG     1      12.963  30.461  15.767  1.00  0.00     0.001 A 
HETATM    6  C   LIG     1      13.865  31.420  16.240  1.00  0.00     0.007 A 
ENDROOT
BRANCH   1   7
HETATM    7  C   LIG     1      16.148  32.611  16.060  1.00  0.00     0.038 C 
BRANCH   7   8
HETATM    8  C   LIG     1      16.674  33.550  14.962  1.00  0.00     0.004 C 
BRANCH   8   9
HETATM    9  C   LIG     1      18.130  33.224  14.612  1.00  0.00    -0.004 C 
HETATM   10  C   LIG     1      18.494  33.745  13.225  1.00  0.00     0.005 C 
ENDBRANCH   8   9
ENDBRANCH   7   8
ENDBRANCH   1   7
TORSDOF 3
ENDMDL
MODEL 17
REMARK VINA RESULT:      -5.0      8.564      9.773
REMARK  3 active torsions:
REMARK  status: ('A' for Active; 'I' for Inactive)
REMARK    1  A    between atoms: C_2  and  C_3 
REMARK    2  A    between atoms: C_3  and  C_4 
REMARK    3  A    between atoms: C_4  and  C_5 
ROOT
HETATM    1  C   LIG     1      14.232  31.893  17.430  1.00  0.00    -0.058 A 
HETATM    2  C   LIG     1      14.664  31.838  18.767  1.00  0.00     0.007 A 
HETATM    3  C   LIG     1      15.294  32.937  19.359  1.00  0.00     0.001 A 
HETATM    4  C   LIG     1      15.502  34.105  18.622  1.00  0.00     0.000 A 
HETATM    5  C   LIG     1      15.080  34.176  17.294  1.00  0.00     0.001 A 
HETATM    6  C   LIG     1      14.449  33.080  16.696  1.00  0.00     0.007 A 
ENDROOT
BRANCH   1   7
HETATM    7  C   LIG     1      13.556  30.663  16.854  1.00  0.00     0.038 C 
BRANCH   7   8
HETATM    8  C   LIG     1      13.399  30.652  15.324  1.00  0.00     0.004 C 
BRANCH   8   9
HETATM    9  C   LIG     1      14.573  29.926  14.657  1.00  0.00    -0.004 C 
HETATM   10  C   LIG     1      15.397  30.883  13.800  1.00  0.00     0.005 C 
ENDBRANCH   8   9
ENDBRANCH   7   8
ENDBRANCH   1   7
TORSDOF 3
ENDMDL
MODEL 18
REMARK VINA RESULT:      -4.8      7.143      8.762
REMARK  3 active torsions:
REMARK  status: ('A' for Active; 'I' for Inactive)
REMARK    1  A    between atoms: C_2  and  C_3 
REMARK    2  A    between atoms: C_3  and  C_4 
REMARK    3  A    between atoms: C_4  and  C_5 
ROOT
HETATM    1  C   LIG     1      14.987  32.252  18.134  1.00  0.00    -0.058 A 
HETATM    2  C   LIG     1      13.959  31.327  17.877  1.00  0.00     0.007 A 
HETATM    3  C   LIG     1      13.675  30.920  16.569  1.00  0.00     0.001 A 
HETATM    4  C   LIG     1      14.415  31.432  15.502  1.00  0.00     0.000 A 
HETATM    5  C   LIG     1      15.438  32.351  15.739  1.00  0.00     0.001 A 
HETATM    6  C   LIG     1      15.727  32.762  17.044  1.00  0.00     0.007 A 
ENDROOT
BRANCH   1   7
HETATM    7  C   LIG     1      15.239  32.647  19.576  1.00  0.00     0.038 C 
BRANCH   7   8
HETATM    8  C   LIG     1      15.591  34.126  19.803  1.00  0.00     0.004 C 
BRANCH   8   9
HETATM    9  C   LIG     1      15.449  34.504  21.282  1.00  0.00    -0.004 C 
HETATM   10  C   LIG     1      16.759  35.053  21.839  1.00  0.00     0.005 C 
ENDBRANCH   8   9
ENDBRANCH   7   8
ENDBRANCH   1   7
TORSDOF 3
ENDMDL
MODEL 19
REMARK VINA RESULT:      -4.7     11.296     12.538
REMARK  3 active torsions:
REMARK  status: ('A' for Active; 'I' for Inactive)
REMARK    1  A    between atoms: C_2  and  C_3 
REMARK    2  A    between atoms: C_3  and  C_4 
REMARK    3  A    between atoms: C_4  and  C_5 
ROOT
HETATM    1  C   LIG     1      14.706  29.812  14.261  1.00  0.00    -0.058 A 
HETATM    2  C   LIG     1      15.488  28.732  13.813  1.00  0.00     0.007 A 
HETATM    3  C   LIG     1      14.896  27.506  13.496  1.00  0.00     0.001 A 
HETATM    4  C   LIG     1      13.515  27.342  13.623  1.00  0.00     0.000 A 
HETATM    5  C   LIG     1      12.725  28.403  14.066  1.00  0.00     0.001 A 
HETATM    6  C   LIG     1      13.310  29.632  14.385  1.00  0.00     0.007 A 
ENDROOT
BRANCH   1   7
HETATM    7  C   LIG     1      15.416  31.112  14.586  1.00  0.00     0.038 C 
BRANCH   7   8
HETATM    8  C   LIG     1      14.917  31.839  15.846  1.00  0.00     0.004 C 
BRANCH   8   9
HETATM    9  C   LIG     1      15.774  33.075  16.142  1.00  0.00    -0.004 C 
HETATM   10  C   LIG     1      14.991  34.109  16.946  1.00  0.00     0.005 C 
ENDBRANCH   8   9
ENDBRANCH   7   8
ENDBRANCH   1   7
TORSDOF 3
ENDMDL
MODEL 20
REMARK VINA RESULT:      -4.6      9.844     11.564
REMARK  3 active torsions:
REMARK  status: ('A' for Active; 'I' for Inactive)
REMARK    1  A    between atoms: C_2  and  C_3 
REMARK    2  A    between atoms: C_3  and  C_4 
REMARK    3  A    between atoms: C_4  and  C_5 
ROOT
HETATM    1  C   LIG     1      15.835  31.310  14.535  1.00  0.00    -0.058 A 
HETATM    2  C   LIG     1      16.462  31.958  15.614  1.00  0.00     0.007 A 
HETATM    3  C   LIG     1      17.288  33.066  15.399  1.00  0.00     0.001 A 
HETATM    4  C   LIG     1      17.497  33.541  14.103  1.00  0.00     0.000 A 
HETATM    5  C   LIG     1      16.882  32.910  13.021  1.00  0.00     0.001 A 
HETATM    6  C   LIG     1      16.056  31.801  13.229  1.00  0.00     0.007 A 
ENDROOT
BRANCH   1   7
HETATM    7  C   LIG     1      14.954  30.114  14.844  1.00  0.00     0.038 C 
BRANCH   7   8
HETATM    8  C   LIG     1      13.451  30.414  14.959  1.00  0.00     0.004 C 
BRANCH   8   9
HETATM    9  C   LIG     1      13.036  30.581  16.425  1.00  0.00    -0.004 C 
HETATM   10  C   LIG     1      12.988  32.054  16.821  1.00  0.00     0.005 C 
ENDBRANCH   8   9
ENDBRANCH   7   8
ENDBRANCH   1   7
TORSDOF 3
ENDMDL
