REMARK  6 active torsions:
REMARK  status: ('A' for Active; 'I' for Inactive)
REMARK    1  A    between atoms: N_1  and  C_2 
REMARK    2  A    between atoms: C_2  and  C_3 
REMARK    3  A    between atoms: C_3  and  C_4 
REMARK    4  A    between atoms: C_3  and  C_6 
REMARK    5  A    between atoms: C_6  and  C_7 
REMARK    6  A    between atoms: C_7  and  C_8 
ROOT
HETATM    1  C   LIG     1      -0.902   0.104  -0.362  1.00  0.00     0.013 C 
ENDROOT
BRANCH   1   2
HETATM    2  C   LIG     1      -1.110   1.639  -0.242  1.00  0.00     0.271 C 
BRANCH   2   3
HETATM    3  N   LIG     1      -1.865   2.007   0.957  1.00  0.00     0.078 N 
HETATM    4  H   LIG     1      -1.356   1.658   1.801  1.00  0.00     0.312 HD
HETATM    5  H   LIG     1      -2.805   1.553   0.937  1.00  0.00     0.312 HD
ENDBRANCH   2   3
ENDBRANCH   1   2
BRANCH   1   6
HETATM    6  C   LIG     1      -2.165  -0.569  -0.960  1.00  0.00     0.002 C 
HETATM    7  C   LIG     1      -2.214  -2.072  -0.675  1.00  0.00     0.005 C 
ENDBRANCH   1   6
BRANCH   1   8
HETATM    8  C   LIG     1       0.358  -0.208  -1.226  1.00  0.00     0.006 C 
BRANCH   8   9
HETATM    9  C   LIG     1       1.590  -0.597  -0.390  1.00  0.00     0.000 C 
BRANCH   9  10
HETATM   10  C   LIG     1       2.133   0.566   0.450  1.00  0.00    -0.005 C 
HETATM   11  C   LIG     1       3.418   0.171   1.171  1.00  0.00     0.005 C 
ENDBRANCH   9  10
ENDBRANCH   8   9
ENDBRANCH   1   8
TORSDOF 6
