MODEL 1
REMARK VINA RESULT:      -6.8      0.000      0.000
REMARK  2 active torsions:
REMARK  status: ('A' for Active; 'I' for Inactive)
REMARK    1  A    between atoms: C_2  and  C_3 
REMARK    2  A    between atoms: C_6  and  C_7 
ROOT
HETATM    1  C   LIG     1      17.478  38.001  22.680  1.00  0.00    -0.059 A 
HETATM    2  C   LIG     1      17.121  36.696  22.306  1.00  0.00     0.007 A 
HETATM    3  C   LIG     1      17.034  35.684  23.267  1.00  0.00     0.007 A 
HETATM    4  C   LIG     1      17.288  35.966  24.618  1.00  0.00    -0.059 A 
HETATM    5  C   LIG     1      17.653  37.269  24.993  1.00  0.00     0.007 A 
HETATM    6  C   LIG     1      17.740  38.281  24.031  1.00  0.00     0.007 A 
ENDROOT
BRANCH   1   7
HETATM    7  C   LIG     1      17.569  39.095  21.647  1.00  0.00     0.034 C 
HETATM    8  C   LIG     1      18.937  39.100  20.970  1.00  0.00     0.010 C 
ENDBRANCH   1   7
BRANCH   4   9
HETATM    9  C   LIG     1      17.226  34.870  25.648  1.00  0.00     0.034 C 
HETATM   10  C   LIG     1      18.515  34.820  26.461  1.00  0.00     0.010 C 
ENDBRANCH   4   9
TORSDOF 2
ENDMDL
MODEL 2
REMARK VINA RESULT:      -6.8      0.065      4.608
REMARK  2 active torsions:
REMARK  status: ('A' for Active; 'I' for Inactive)
REMARK    1  A    between atoms: C_2  and  C_3 
REMARK    2  A    between atoms: C_6  and  C_7 
ROOT
HETATM    1  C   LIG     1      17.292  35.954  24.560  1.00  0.00    -0.059 A 
HETATM    2  C   LIG     1      17.625  37.265  24.935  1.00  0.00     0.007 A 
HETATM    3  C   LIG     1      17.715  38.274  23.971  1.00  0.00     0.007 A 
HETATM    4  C   LIG     1      17.460  37.990  22.621  1.00  0.00    -0.059 A 
HETATM    5  C   LIG     1      17.135  36.677  22.244  1.00  0.00     0.007 A 
HETATM    6  C   LIG     1      17.044  35.668  23.208  1.00  0.00     0.007 A 
ENDROOT
BRANCH   1   7
HETATM    7  C   LIG     1      17.190  34.865  25.597  1.00  0.00     0.034 C 
HETATM    8  C   LIG     1      18.444  34.810  26.465  1.00  0.00     0.010 C 
ENDBRANCH   1   7
BRANCH   4   9
HETATM    9  C   LIG     1      17.590  39.068  21.580  1.00  0.00     0.034 C 
HETATM   10  C   LIG     1      18.990  39.069  20.975  1.00  0.00     0.010 C 
ENDBRANCH   4   9
TORSDOF 2
ENDMDL
MODEL 3
REMARK VINA RESULT:      -6.5      1.498      2.781
REMARK  2 active torsions:
REMARK  status: ('A' for Active; 'I' for Inactive)
REMARK    1  A    between atoms: C_2  and  C_3 
REMARK    2  A    between atoms: C_6  and  C_7 
ROOT
HETATM    1  C   LIG     1      16.816  35.919  21.981  1.00  0.00    -0.059 A 
HETATM    2  C   LIG     1      16.933  35.009  23.044  1.00  0.00     0.007 A 
HETATM    3  C   LIG     1      17.208  35.465  24.337  1.00  0.00     0.007 A 
HETATM    4  C   LIG     1      17.356  36.837  24.588  1.00  0.00    -0.059 A 
HETATM    5  C   LIG     1      17.246  37.748  23.525  1.00  0.00     0.007 A 
HETATM    6  C   LIG     1      16.971  37.291  22.232  1.00  0.00     0.007 A 
ENDROOT
BRANCH   1   7
HETATM    7  C   LIG     1      16.516  35.431  20.587  1.00  0.00     0.034 C 
HETATM    8  C   LIG     1      15.756  34.108  20.617  1.00  0.00     0.010 C 
ENDBRANCH   1   7
BRANCH   4   9
HETATM    9  C   LIG     1      17.684  37.325  25.973  1.00  0.00     0.034 C 
HETATM   10  C   LIG     1      18.438  36.257  26.758  1.00  0.00     0.010 C 
ENDBRANCH   4   9
TORSDOF 2
ENDMDL
MODEL 4
REMARK VINA RESULT:      -6.5      1.502      4.120
REMARK  2 active torsions:
REMARK  status: ('A' for Active; 'I' for Inactive)
REMARK    1  A    between atoms: C_2  and  C_3 
REMARK    2  A    between atoms: C_6  and  C_7 
ROOT
HETATM    1  C   LIG     1      17.383  36.842  24.554  1.00  0.00    -0.059 A 
HETATM    2  C   LIG     1      17.232  37.763  23.505  1.00  0.00     0.007 A 
HETATM    3  C   LIG     1      16.942  37.318  22.212  1.00  0.00     0.007 A 
HETATM    4  C   LIG     1      16.783  35.949  21.952  1.00  0.00    -0.059 A 
HETATM    5  C   LIG     1      16.941  35.026  22.998  1.00  0.00     0.007 A 
HETATM    6  C   LIG     1      17.232  35.471  24.292  1.00  0.00     0.007 A 
ENDROOT
BRANCH   1   7
HETATM    7  C   LIG     1      17.693  37.318  25.950  1.00  0.00     0.034 C 
HETATM    8  C   LIG     1      18.370  36.222  26.769  1.00  0.00     0.010 C 
ENDBRANCH   1   7
BRANCH   4   9
HETATM    9  C   LIG     1      16.503  35.468  20.553  1.00  0.00     0.034 C 
HETATM   10  C   LIG     1      15.762  34.136  20.578  1.00  0.00     0.010 C 
ENDBRANCH   4   9
TORSDOF 2
ENDMDL
MODEL 5
REMARK VINA RESULT:      -6.5      1.765      2.646
REMARK  2 active torsions:
REMARK  status: ('A' for Active; 'I' for Inactive)
REMARK    1  A    between atoms: C_2  and  C_3 
REMARK    2  A    between atoms: C_6  and  C_7 
ROOT
HETATM    1  C   LIG     1      18.487  37.886  20.453  1.00  0.00    -0.059 A 
HETATM    2  C   LIG     1      17.802  36.705  20.779  1.00  0.00     0.007 A 
HETATM    3  C   LIG     1      17.150  36.583  22.010  1.00  0.00     0.007 A 
HETATM    4  C   LIG     1      17.161  37.646  22.926  1.00  0.00    -0.059 A 
HETATM    5  C   LIG     1      17.853  38.825  22.604  1.00  0.00     0.007 A 
HETATM    6  C   LIG     1      18.504  38.946  21.373  1.00  0.00     0.007 A 
ENDROOT
BRANCH   1   7
HETATM    7  C   LIG     1      19.188  38.022  19.125  1.00  0.00     0.034 C 
HETATM    8  C   LIG     1      20.500  38.787  19.270  1.00  0.00     0.010 C 
ENDBRANCH   1   7
BRANCH   4   9
HETATM    9  C   LIG     1      16.488  37.502  24.264  1.00  0.00     0.034 C 
HETATM   10  C   LIG     1      17.429  37.918  25.389  1.00  0.00     0.010 C 
ENDBRANCH   4   9
TORSDOF 2
ENDMDL
MODEL 6
REMARK VINA RESULT:      -6.5      1.745      4.802
REMARK  2 active torsions:
REMARK  status: ('A' for Active; 'I' for Inactive)
REMARK    1  A    between atoms: C_2  and  C_3 
REMARK    2  A    between atoms: C_6  and  C_7 
ROOT
HETATM    1  C   LIG     1      17.190  37.659  22.954  1.00  0.00    -0.059 A 
HETATM    2  C   LIG     1      17.874  38.833  22.602  1.00  0.00     0.007 A 
HETATM    3  C   LIG     1      18.518  38.931  21.364  1.00  0.00     0.007 A 
HETATM    4  C   LIG     1      18.475  37.862  20.456  1.00  0.00    -0.059 A 
HETATM    5  C   LIG     1      17.798  36.684  20.810  1.00  0.00     0.007 A 
HETATM    6  C   LIG     1      17.154  36.587  22.047  1.00  0.00     0.007 A 
ENDROOT
BRANCH   1   7
HETATM    7  C   LIG     1      16.492  37.551  24.285  1.00  0.00     0.034 C 
HETATM    8  C   LIG     1      17.441  37.878  25.434  1.00  0.00     0.010 C 
ENDBRANCH   1   7
BRANCH   4   9
HETATM    9  C   LIG     1      19.196  37.956  19.138  1.00  0.00     0.034 C 
HETATM   10  C   LIG     1      20.445  38.822  19.266  1.00  0.00     0.010 C 
ENDBRANCH   4   9
TORSDOF 2
ENDMDL
MODEL 7
REMARK VINA RESULT:      -6.4      2.115      5.538
REMARK  2 active torsions:
REMARK  status: ('A' for Active; 'I' for Inactive)
REMARK    1  A    between atoms: C_2  and  C_3 
REMARK    2  A    between atoms: C_6  and  C_7 
ROOT
HETATM    1  C   LIG     1      17.595  37.305  21.594  1.00  0.00    -0.059 A 
HETATM    2  C   LIG     1      18.013  36.539  20.495  1.00  0.00     0.007 A 
HETATM    3  C   LIG     1      18.725  37.135  19.449  1.00  0.00     0.007 A 
HETATM    4  C   LIG     1      19.041  38.501  19.494  1.00  0.00    -0.059 A 
HETATM    5  C   LIG     1      18.616  39.270  20.590  1.00  0.00     0.007 A 
HETATM    6  C   LIG     1      17.904  38.674  21.635  1.00  0.00     0.007 A 
ENDROOT
BRANCH   1   7
HETATM    7  C   LIG     1      16.830  36.666  22.725  1.00  0.00     0.034 C 
HETATM    8  C   LIG     1      16.937  35.144  22.672  1.00  0.00     0.010 C 
ENDBRANCH   1   7
BRANCH   4   9
HETATM    9  C   LIG     1      19.778  39.149  18.353  1.00  0.00     0.034 C 
HETATM   10  C   LIG     1      18.842  39.395  17.176  1.00  0.00     0.010 C 
ENDBRANCH   4   9
TORSDOF 2
ENDMDL
MODEL 8
REMARK VINA RESULT:      -6.4      2.112      3.574
REMARK  2 active torsions:
REMARK  status: ('A' for Active; 'I' for Inactive)
REMARK    1  A    between atoms: C_2  and  C_3 
REMARK    2  A    between atoms: C_6  and  C_7 
ROOT
HETATM    1  C   LIG     1      18.983  38.492  19.515  1.00  0.00    -0.059 A 
HETATM    2  C   LIG     1      18.668  37.124  19.465  1.00  0.00     0.007 A 
HETATM    3  C   LIG     1      17.960  36.524  20.511  1.00  0.00     0.007 A 
HETATM    4  C   LIG     1      17.544  37.285  21.614  1.00  0.00    -0.059 A 
HETATM    5  C   LIG     1      17.865  38.651  21.668  1.00  0.00     0.007 A 
HETATM    6  C   LIG     1      18.573  39.251  20.622  1.00  0.00     0.007 A 
ENDROOT
BRANCH   1   7
HETATM    7  C   LIG     1      19.743  39.143  18.388  1.00  0.00     0.034 C 
HETATM    8  C   LIG     1      18.829  39.429  17.199  1.00  0.00     0.010 C 
ENDBRANCH   1   7
BRANCH   4   9
HETATM    9  C   LIG     1      16.811  36.632  22.754  1.00  0.00     0.034 C 
HETATM   10  C   LIG     1      16.925  35.114  22.671  1.00  0.00     0.010 C 
ENDBRANCH   4   9
TORSDOF 2
ENDMDL
MODEL 9
REMARK VINA RESULT:      -6.3      2.553      4.904
REMARK  2 active torsions:
REMARK  status: ('A' for Active; 'I' for Inactive)
REMARK    1  A    between atoms: C_2  and  C_3 
REMARK    2  A    between atoms: C_6  and  C_7 
ROOT
HETATM    1  C   LIG     1      16.826  36.103  21.616  1.00  0.00    -0.059 A 
HETATM    2  C   LIG     1      17.649  35.973  20.486  1.00  0.00     0.007 A 
HETATM    3  C   LIG     1      18.456  37.039  20.074  1.00  0.00     0.007 A 
HETATM    4  C   LIG     1      18.462  38.243  20.794  1.00  0.00    -0.059 A 
HETATM    5  C   LIG     1      17.634  38.376  21.920  1.00  0.00     0.007 A 
HETATM    6  C   LIG     1      16.827  37.311  22.332  1.00  0.00     0.007 A 
ENDROOT
BRANCH   1   7
HETATM    7  C   LIG     1      15.958  34.955  22.065  1.00  0.00     0.034 C 
HETATM    8  C   LIG     1      15.474  34.132  20.875  1.00  0.00     0.010 C 
ENDBRANCH   1   7
BRANCH   4   9
HETATM    9  C   LIG     1      19.305  39.400  20.332  1.00  0.00     0.034 C 
HETATM   10  C   LIG     1      20.373  38.932  19.349  1.00  0.00     0.010 C 
ENDBRANCH   4   9
TORSDOF 2
ENDMDL
MODEL 10
REMARK VINA RESULT:      -6.2      2.661      3.574
REMARK  2 active torsions:
REMARK  status: ('A' for Active; 'I' for Inactive)
REMARK    1  A    between atoms: C_2  and  C_3 
REMARK    2  A    between atoms: C_6  and  C_7 
ROOT
HETATM    1  C   LIG     1      17.970  37.995  21.307  1.00  0.00    -0.059 A 
HETATM    2  C   LIG     1      16.928  37.976  22.247  1.00  0.00     0.007 A 
HETATM    3  C   LIG     1      16.055  36.885  22.312  1.00  0.00     0.007 A 
HETATM    4  C   LIG     1      16.221  35.792  21.448  1.00  0.00    -0.059 A 
HETATM    5  C   LIG     1      17.258  35.814  20.502  1.00  0.00     0.007 A 
HETATM    6  C   LIG     1      18.131  36.905  20.437  1.00  0.00     0.007 A 
ENDROOT
BRANCH   1   7
HETATM    7  C   LIG     1      18.914  39.168  21.236  1.00  0.00     0.034 C 
HETATM    8  C   LIG     1      19.817  39.076  20.010  1.00  0.00     0.010 C 
ENDBRANCH   1   7
BRANCH   4   9
HETATM    9  C   LIG     1      15.262  34.634  21.496  1.00  0.00     0.034 C 
HETATM   10  C   LIG     1      15.555  33.643  20.375  1.00  0.00     0.010 C 
ENDBRANCH   4   9
TORSDOF 2
ENDMDL
MODEL 11
REMARK VINA RESULT:      -5.7      1.300      4.288
REMARK  2 active torsions:
REMARK  status: ('A' for Active; 'I' for Inactive)
REMARK    1  A    between atoms: C_2  and  C_3 
REMARK    2  A    between atoms: C_6  and  C_7 
ROOT
HETATM    1  C   LIG     1      17.299  35.813  24.663  1.00  0.00    -0.059 A 
HETATM    2  C   LIG     1      17.170  34.810  23.690  1.00  0.00     0.007 A 
HETATM    3  C   LIG     1      17.153  35.141  22.332  1.00  0.00     0.007 A 
HETATM    4  C   LIG     1      17.279  36.479  21.927  1.00  0.00    -0.059 A 
HETATM    5  C   LIG     1      17.400  37.484  22.900  1.00  0.00     0.007 A 
HETATM    6  C   LIG     1      17.417  37.152  24.258  1.00  0.00     0.007 A 
ENDROOT
BRANCH   1   7
HETATM    7  C   LIG     1      17.320  35.459  26.128  1.00  0.00     0.034 C 
HETATM    8  C   LIG     1      18.434  36.203  26.859  1.00  0.00     0.010 C 
ENDBRANCH   1   7
BRANCH   4   9
HETATM    9  C   LIG     1      17.228  36.839  20.467  1.00  0.00     0.034 C 
HETATM   10  C   LIG     1      18.623  36.805  19.853  1.00  0.00     0.010 C 
ENDBRANCH   4   9
TORSDOF 2
ENDMDL
MODEL 12
REMARK VINA RESULT:      -5.6      8.647     10.129
REMARK  2 active torsions:
REMARK  status: ('A' for Active; 'I' for Inactive)
REMARK    1  A    between atoms: C_2  and  C_3 
REMARK    2  A    between atoms: C_6  and  C_7 
ROOT
HETATM    1  C   LIG     1      14.303  30.616  15.239  1.00  0.00    -0.059 A 
HETATM    2  C   LIG     1      13.503  30.700  16.389  1.00  0.00     0.007 A 
HETATM    3  C   LIG     1      13.796  31.635  17.386  1.00  0.00     0.007 A 
HETATM    4  C   LIG     1      14.885  32.509  17.241  1.00  0.00    -0.059 A 
HETATM    5  C   LIG     1      15.690  32.420  16.095  1.00  0.00     0.007 A 
HETATM    6  C   LIG     1      15.397  31.485  15.098  1.00  0.00     0.007 A 
ENDROOT
BRANCH   1   7
HETATM    7  C   LIG     1      13.987  29.611  14.160  1.00  0.00     0.034 C 
HETATM    8  C   LIG     1      15.208  28.759  13.827  1.00  0.00     0.010 C 
ENDBRANCH   1   7
BRANCH   4   9
HETATM    9  C   LIG     1      15.220  33.493  18.330  1.00  0.00     0.034 C 
HETATM   10  C   LIG     1      15.387  32.781  19.668  1.00  0.00     0.010 C 
ENDBRANCH   4   9
TORSDOF 2
ENDMDL
MODEL 13
REMARK VINA RESULT:      -5.5      8.817     10.469
REMARK  2 active torsions:
REMARK  status: ('A' for Active; 'I' for Inactive)
REMARK    1  A    between atoms: C_2  and  C_3 
REMARK    2  A    between atoms: C_6  and  C_7 
ROOT
HETATM    1  C   LIG     1      15.008  32.430  16.971  1.00  0.00    -0.059 A 
HETATM    2  C   LIG     1      14.031  31.442  16.767  1.00  0.00     0.007 A 
HETATM    3  C   LIG     1      14.068  30.639  15.622  1.00  0.00     0.007 A 
HETATM    4  C   LIG     1      15.089  30.803  14.674  1.00  0.00    -0.059 A 
HETATM    5  C   LIG     1      16.062  31.795  14.873  1.00  0.00     0.007 A 
HETATM    6  C   LIG     1      16.025  32.598  16.018  1.00  0.00     0.007 A 
ENDROOT
BRANCH   1   7
HETATM    7  C   LIG     1      14.974  33.295  18.205  1.00  0.00     0.034 C 
HETATM    8  C   LIG     1      15.324  32.489  19.453  1.00  0.00     0.010 C 
ENDBRANCH   1   7
BRANCH   4   9
HETATM    9  C   LIG     1      15.109  29.961  13.427  1.00  0.00     0.034 C 
HETATM   10  C   LIG     1      15.233  28.482  13.775  1.00  0.00     0.010 C 
ENDBRANCH   4   9
TORSDOF 2
ENDMDL
MODEL 14
REMARK VINA RESULT:      -5.4      2.334      4.173
REMARK  2 active torsions:
REMARK  status: ('A' for Active; 'I' for Inactive)
REMARK    1  A    between atoms: C_2  and  C_3 
REMARK    2  A    between atoms: C_6  and  C_7 
ROOT
HETATM    1  C   LIG     1      16.038  35.527  20.489  1.00  0.00    -0.059 A 
HETATM    2  C   LIG     1      17.322  36.093  20.428  1.00  0.00     0.007 A 
HETATM    3  C   LIG     1      17.697  37.091  21.333  1.00  0.00     0.007 A 
HETATM    4  C   LIG     1      16.800  37.528  22.319  1.00  0.00    -0.059 A 
HETATM    5  C   LIG     1      15.514  36.968  22.376  1.00  0.00     0.007 A 
HETATM    6  C   LIG     1      15.138  35.970  21.472  1.00  0.00     0.007 A 
ENDROOT
BRANCH   1   7
HETATM    7  C   LIG     1      15.632  34.448  19.518  1.00  0.00     0.034 C 
HETATM    8  C   LIG     1      15.436  33.112  20.229  1.00  0.00     0.010 C 
ENDBRANCH   1   7
BRANCH   4   9
HETATM    9  C   LIG     1      17.193  38.625  23.271  1.00  0.00     0.034 C 
HETATM   10  C   LIG     1      17.606  38.048  24.620  1.00  0.00     0.010 C 
ENDBRANCH   4   9
TORSDOF 2
ENDMDL
MODEL 15
REMARK VINA RESULT:      -5.3      9.870     11.530
REMARK  2 active torsions:
REMARK  status: ('A' for Active; 'I' for Inactive)
REMARK    1  A    between atoms: C_2  and  C_3 
REMARK    2  A    between atoms: C_6  and  C_7 
ROOT
HETATM    1  C   LIG     1      13.889  29.764  14.606  1.00  0.00    -0.059 A 
HETATM    2  C   LIG     1      15.065  30.217  13.987  1.00  0.00     0.007 A 
HETATM    3  C   LIG     1      15.735  31.341  14.481  1.00  0.00     0.007 A 
HETATM    4  C   LIG     1      15.247  32.019  15.608  1.00  0.00    -0.059 A 
HETATM    5  C   LIG     1      14.067  31.572  16.223  1.00  0.00     0.007 A 
HETATM    6  C   LIG     1      13.397  30.448  15.729  1.00  0.00     0.007 A 
ENDROOT
BRANCH   1   7
HETATM    7  C   LIG     1      13.167  28.551  14.079  1.00  0.00     0.034 C 
HETATM    8  C   LIG     1      14.151  27.497  13.581  1.00  0.00     0.010 C 
ENDBRANCH   1   7
BRANCH   4   9
HETATM    9  C   LIG     1      15.949  33.248  16.119  1.00  0.00     0.034 C 
HETATM   10  C   LIG     1      15.008  34.094  16.969  1.00  0.00     0.010 C 
ENDBRANCH   4   9
TORSDOF 2
ENDMDL
MODEL 16
REMARK VINA RESULT:      -5.3      9.868     11.292
REMARK  2 active torsions:
REMARK  status: ('A' for Active; 'I' for Inactive)
REMARK    1  A    between atoms: C_2  and  C_3 
REMARK    2  A    between atoms: C_6  and  C_7 
ROOT
HETATM    1  C   LIG     1      15.278  32.052  15.559  1.00  0.00    -0.059 A 
HETATM    2  C   LIG     1      15.757  31.374  14.427  1.00  0.00     0.007 A 
HETATM    3  C   LIG     1      15.083  30.249  13.940  1.00  0.00     0.007 A 
HETATM    4  C   LIG     1      13.913  29.796  14.569  1.00  0.00    -0.059 A 
HETATM    5  C   LIG     1      13.438  30.469  15.706  1.00  0.00     0.007 A 
HETATM    6  C   LIG     1      14.112  31.593  16.193  1.00  0.00     0.007 A 
ENDROOT
BRANCH   1   7
HETATM    7  C   LIG     1      15.999  33.267  16.084  1.00  0.00     0.034 C 
HETATM    8  C   LIG     1      15.083  34.117  16.958  1.00  0.00     0.010 C 
ENDBRANCH   1   7
BRANCH   4   9
HETATM    9  C   LIG     1      13.207  28.566  14.065  1.00  0.00     0.034 C 
HETATM   10  C   LIG     1      14.210  27.544  13.542  1.00  0.00     0.010 C 
ENDBRANCH   4   9
TORSDOF 2
ENDMDL
MODEL 17
REMARK VINA RESULT:      -5.3      2.552      3.811
REMARK  2 active torsions:
REMARK  status: ('A' for Active; 'I' for Inactive)
REMARK    1  A    between atoms: C_2  and  C_3 
REMARK    2  A    between atoms: C_6  and  C_7 
ROOT
HETATM    1  C   LIG     1      16.779  37.163  22.056  1.00  0.00    -0.059 A 
HETATM    2  C   LIG     1      15.377  37.090  22.048  1.00  0.00     0.007 A 
HETATM    3  C   LIG     1      14.735  35.893  21.714  1.00  0.00     0.007 A 
HETATM    4  C   LIG     1      15.485  34.750  21.398  1.00  0.00    -0.059 A 
HETATM    5  C   LIG     1      16.887  34.825  21.398  1.00  0.00     0.007 A 
HETATM    6  C   LIG     1      17.529  36.022  21.732  1.00  0.00     0.007 A 
ENDROOT
BRANCH   1   7
HETATM    7  C   LIG     1      17.474  38.451  22.419  1.00  0.00     0.034 C 
HETATM    8  C   LIG     1      18.301  38.979  21.250  1.00  0.00     0.010 C 
ENDBRANCH   1   7
BRANCH   4   9
HETATM    9  C   LIG     1      14.794  33.472  21.007  1.00  0.00     0.034 C 
HETATM   10  C   LIG     1      15.523  32.795  19.852  1.00  0.00     0.010 C 
ENDBRANCH   4   9
TORSDOF 2
ENDMDL
MODEL 18
REMARK VINA RESULT:      -5.3      9.473     11.299
REMARK  2 active torsions:
REMARK  status: ('A' for Active; 'I' for Inactive)
REMARK    1  A    between atoms: C_2  and  C_3 
REMARK    2  A    between atoms: C_6  and  C_7 
ROOT
HETATM    1  C   LIG     1      14.914  31.156  14.809  1.00  0.00    -0.059 A 
HETATM    2  C   LIG     1      15.520  31.174  13.542  1.00  0.00     0.007 A 
HETATM    3  C   LIG     1      16.542  32.086  13.261  1.00  0.00     0.007 A 
HETATM    4  C   LIG     1      16.982  32.983  14.246  1.00  0.00    -0.059 A 
HETATM    5  C   LIG     1      16.372  32.972  15.511  1.00  0.00     0.007 A 
HETATM    6  C   LIG     1      15.350  32.060  15.791  1.00  0.00     0.007 A 
ENDROOT
BRANCH   1   7
HETATM    7  C   LIG     1      13.815  30.172  15.116  1.00  0.00     0.034 C 
HETATM    8  C   LIG     1      12.890  30.702  16.208  1.00  0.00     0.010 C 
ENDBRANCH   1   7
BRANCH   4   9
HETATM    9  C   LIG     1      18.059  33.987  13.933  1.00  0.00     0.034 C 
HETATM   10  C   LIG     1      18.662  33.721  12.558  1.00  0.00     0.010 C 
ENDBRANCH   4   9
TORSDOF 2
ENDMDL
MODEL 19
REMARK VINA RESULT:      -5.2     10.122     11.524
REMARK  2 active torsions:
REMARK  status: ('A' for Active; 'I' for Inactive)
REMARK    1  A    between atoms: C_2  and  C_3 
REMARK    2  A    between atoms: C_6  and  C_7 
ROOT
HETATM    1  C   LIG     1      15.413  31.951  15.336  1.00  0.00    -0.059 A 
HETATM    2  C   LIG     1      14.302  31.562  16.101  1.00  0.00     0.007 A 
HETATM    3  C   LIG     1      13.522  30.471  15.707  1.00  0.00     0.007 A 
HETATM    4  C   LIG     1      13.850  29.744  14.553  1.00  0.00    -0.059 A 
HETATM    5  C   LIG     1      14.956  30.137  13.783  1.00  0.00     0.007 A 
HETATM    6  C   LIG     1      15.736  31.229  14.176  1.00  0.00     0.007 A 
ENDROOT
BRANCH   1   7
HETATM    7  C   LIG     1      16.259  33.126  15.758  1.00  0.00     0.034 C 
HETATM    8  C   LIG     1      17.443  33.320  14.816  1.00  0.00     0.010 C 
ENDBRANCH   1   7
BRANCH   4   9
HETATM    9  C   LIG     1      12.991  28.590  14.112  1.00  0.00     0.034 C 
HETATM   10  C   LIG     1      13.852  27.433  13.619  1.00  0.00     0.010 C 
ENDBRANCH   4   9
TORSDOF 2
ENDMDL
MODEL 20
REMARK VINA RESULT:      -5.2      5.603      7.145
REMARK  2 active torsions:
REMARK  status: ('A' for Active; 'I' for Inactive)
REMARK    1  A    between atoms: C_2  and  C_3 
REMARK    2  A    between atoms: C_6  and  C_7 
ROOT
HETATM    1  C   LIG     1      14.968  32.737  17.665  1.00  0.00    -0.059 A 
HETATM    2  C   LIG     1      15.008  32.010  18.865  1.00  0.00     0.007 A 
HETATM    3  C   LIG     1      15.338  32.646  20.066  1.00  0.00     0.007 A 
HETATM    4  C   LIG     1      15.618  34.021  20.086  1.00  0.00    -0.059 A 
HETATM    5  C   LIG     1      15.586  34.748  18.886  1.00  0.00     0.007 A 
HETATM    6  C   LIG     1      15.256  34.111  17.685  1.00  0.00     0.007 A 
ENDROOT
BRANCH   1   7
HETATM    7  C   LIG     1      14.611  32.055  16.369  1.00  0.00     0.034 C 
HETATM    8  C   LIG     1      13.521  31.008  16.580  1.00  0.00     0.010 C 
ENDBRANCH   1   7
BRANCH   4   9
HETATM    9  C   LIG     1      16.004  34.698  21.373  1.00  0.00     0.034 C 
HETATM   10  C   LIG     1      17.017  35.808  21.116  1.00  0.00     0.010 C 
ENDBRANCH   4   9
TORSDOF 2
ENDMDL
