REMARK  4 active torsions:
REMARK  status: ('A' for Active; 'I' for Inactive)
REMARK    1  A    between atoms: C_2  and  C_3 
REMARK    2  A    between atoms: C_3  and  C_4 
REMARK    3  A    between atoms: C_4  and  O_5 
REMARK    4  A    between atoms: O_5  and  C_6 
ROOT
HETATM    1  C   LIG     1       0.117  -1.119  -0.125  1.00  0.00     0.258 C 
HETATM    2  O   LIG     1       0.477  -2.147  -0.762  1.00  0.00    -0.265 OA
ENDROOT
BRANCH   1   3
HETATM    3  C   LIG     1      -1.339  -0.827   0.057  1.00  0.00     0.111 C 
BRANCH   3   4
HETATM    4  C   LIG     1      -1.715   0.492  -0.625  1.00  0.00     0.005 C 
HETATM    5  C   LIG     1      -3.201   0.795  -0.456  1.00  0.00     0.005 C 
ENDBRANCH   3   4
ENDBRANCH   1   3
BRANCH   1   6
HETATM    6  O   LIG     1       1.067  -0.252   0.421  1.00  0.00    -0.322 OA
BRANCH   6   7
HETATM    7  C   LIG     1       2.469  -0.462   0.284  1.00  0.00     0.174 C 
HETATM    8  C   LIG     1       3.223   0.658   0.983  1.00  0.00     0.034 C 
ENDBRANCH   6   7
ENDBRANCH   1   6
TORSDOF 4
