REMARK  4 active torsions:
REMARK  status: ('A' for Active; 'I' for Inactive)
REMARK    1  A    between atoms: C_2  and  C_5 
REMARK    2  A    between atoms: C_2  and  C_3 
REMARK    3  A    between atoms: C_3  and  O_4 
REMARK    4  A    between atoms: C_5  and  C_6 
ROOT
HETATM    1  C   LIG     1      -1.781  -1.546  -0.260  1.00  0.00     0.012 C 
HETATM    2  C   LIG     1      -0.915  -0.302  -0.503  1.00  0.00     0.005 C 
ENDROOT
BRANCH   2   3
HETATM    3  C   LIG     1       0.499  -0.515   0.086  1.00  0.00     0.006 C 
BRANCH   3   4
HETATM    4  C   LIG     1       1.483   0.599  -0.306  1.00  0.00    -0.004 C 
HETATM    5  C   LIG     1       2.902   0.265   0.147  1.00  0.00     0.005 C 
ENDBRANCH   3   4
ENDBRANCH   2   3
BRANCH   2   6
HETATM    6  C   LIG     1      -1.613   0.954   0.056  1.00  0.00     0.168 C 
BRANCH   6   7
HETATM    7  O   LIG     1      -1.691   0.899   1.455  1.00  0.00    -0.400 OA
HETATM    8  H   LIG     1      -2.143   1.735   1.739  1.00  0.00     0.209 HD
ENDBRANCH   6   7
ENDBRANCH   2   6
TORSDOF 4
