MODEL 1
REMARK VINA RESULT:      -6.6      0.000      0.000
REMARK  1 active torsions:
REMARK  status: ('A' for Active; 'I' for Inactive)
REMARK    1  A    between atoms: O_1  and  C_2 
ROOT
HETATM    1  C   LIG     1      17.267  37.227  24.852  1.00  0.00     0.071 A 
HETATM    2  C   LIG     1      16.879  37.844  23.655  1.00  0.00     0.037 A 
HETATM    3  C   LIG     1      16.626  37.077  22.515  1.00  0.00     0.009 A 
HETATM    4  C   LIG     1      16.769  35.683  22.556  1.00  0.00    -0.061 A 
HETATM    5  C   LIG     1      16.455  34.855  21.344  1.00  0.00     0.048 C 
HETATM    6  C   LIG     1      17.141  35.061  23.758  1.00  0.00     0.016 A 
HETATM    7  C   LIG     1      17.405  35.828  24.906  1.00  0.00    -0.028 A 
HETATM    8  C   LIG     1      17.799  35.155  26.191  1.00  0.00     0.051 C 
ENDROOT
BRANCH   1   9
HETATM    9  O   LIG     1      17.513  37.998  25.987  1.00  0.00    -0.360 OA
HETATM   10  H   LIG     1      18.297  37.806  26.600  1.00  0.00     0.217 HD
ENDBRANCH   1   9
TORSDOF 1
ENDMDL
MODEL 2
REMARK VINA RESULT:      -6.5      1.403      3.184
REMARK  1 active torsions:
REMARK  status: ('A' for Active; 'I' for Inactive)
REMARK    1  A    between atoms: O_1  and  C_2 
ROOT
HETATM    1  C   LIG     1      16.864  37.913  23.829  1.00  0.00     0.071 A 
HETATM    2  C   LIG     1      17.358  38.195  25.110  1.00  0.00     0.037 A 
HETATM    3  C   LIG     1      17.803  37.162  25.938  1.00  0.00     0.009 A 
HETATM    4  C   LIG     1      17.750  35.831  25.498  1.00  0.00    -0.061 A 
HETATM    5  C   LIG     1      18.270  34.726  26.370  1.00  0.00     0.048 C 
HETATM    6  C   LIG     1      17.273  35.548  24.209  1.00  0.00     0.016 A 
HETATM    7  C   LIG     1      16.815  36.582  23.374  1.00  0.00    -0.028 A 
HETATM    8  C   LIG     1      16.309  36.271  21.993  1.00  0.00     0.051 C 
ENDROOT
BRANCH   1   9
HETATM    9  O   LIG     1      16.426  38.949  23.005  1.00  0.00    -0.360 OA
HETATM   10  H   LIG     1      15.547  38.893  22.503  1.00  0.00     0.217 HD
ENDBRANCH   1   9
TORSDOF 1
ENDMDL
MODEL 3
REMARK VINA RESULT:      -6.2      1.907      3.799
REMARK  1 active torsions:
REMARK  status: ('A' for Active; 'I' for Inactive)
REMARK    1  A    between atoms: O_1  and  C_2 
ROOT
HETATM    1  C   LIG     1      16.808  36.388  22.774  1.00  0.00     0.071 A 
HETATM    2  C   LIG     1      16.957  35.152  23.418  1.00  0.00     0.037 A 
HETATM    3  C   LIG     1      17.433  35.092  24.730  1.00  0.00     0.009 A 
HETATM    4  C   LIG     1      17.775  36.269  25.411  1.00  0.00    -0.061 A 
HETATM    5  C   LIG     1      18.244  36.208  26.836  1.00  0.00     0.048 C 
HETATM    6  C   LIG     1      17.611  37.509  24.775  1.00  0.00     0.016 A 
HETATM    7  C   LIG     1      17.141  37.575  23.452  1.00  0.00    -0.028 A 
HETATM    8  C   LIG     1      16.963  38.907  22.778  1.00  0.00     0.051 C 
ENDROOT
BRANCH   1   9
HETATM    9  O   LIG     1      16.329  36.441  21.466  1.00  0.00    -0.360 OA
HETATM   10  H   LIG     1      15.340  36.347  21.258  1.00  0.00     0.217 HD
ENDBRANCH   1   9
TORSDOF 1
ENDMDL
MODEL 4
REMARK VINA RESULT:      -6.1      3.232      4.451
REMARK  1 active torsions:
REMARK  status: ('A' for Active; 'I' for Inactive)
REMARK    1  A    between atoms: O_1  and  C_2 
ROOT
HETATM    1  C   LIG     1      17.199  37.014  21.510  1.00  0.00     0.071 A 
HETATM    2  C   LIG     1      17.855  36.321  20.484  1.00  0.00     0.037 A 
HETATM    3  C   LIG     1      18.867  36.940  19.748  1.00  0.00     0.009 A 
HETATM    4  C   LIG     1      19.230  38.266  20.023  1.00  0.00    -0.061 A 
HETATM    5  C   LIG     1      20.348  38.916  19.262  1.00  0.00     0.048 C 
HETATM    6  C   LIG     1      18.588  38.957  21.061  1.00  0.00     0.016 A 
HETATM    7  C   LIG     1      17.561  38.343  21.800  1.00  0.00    -0.028 A 
HETATM    8  C   LIG     1      16.880  39.088  22.914  1.00  0.00     0.051 C 
ENDROOT
BRANCH   1   9
HETATM    9  O   LIG     1      16.192  36.389  22.244  1.00  0.00    -0.360 OA
HETATM   10  H   LIG     1      16.027  35.391  22.176  1.00  0.00     0.217 HD
ENDBRANCH   1   9
TORSDOF 1
ENDMDL
MODEL 5
REMARK VINA RESULT:      -6.1      2.813      3.974
REMARK  1 active torsions:
REMARK  status: ('A' for Active; 'I' for Inactive)
REMARK    1  A    between atoms: O_1  and  C_2 
ROOT
HETATM    1  C   LIG     1      18.242  38.734  21.482  1.00  0.00     0.071 A 
HETATM    2  C   LIG     1      17.263  38.337  22.403  1.00  0.00     0.037 A 
HETATM    3  C   LIG     1      16.674  37.074  22.306  1.00  0.00     0.009 A 
HETATM    4  C   LIG     1      17.049  36.197  21.280  1.00  0.00    -0.061 A 
HETATM    5  C   LIG     1      16.448  34.824  21.202  1.00  0.00     0.048 C 
HETATM    6  C   LIG     1      18.042  36.585  20.367  1.00  0.00     0.016 A 
HETATM    7  C   LIG     1      18.633  37.857  20.453  1.00  0.00    -0.028 A 
HETATM    8  C   LIG     1      19.698  38.265  19.474  1.00  0.00     0.051 C 
ENDROOT
BRANCH   1   9
HETATM    9  O   LIG     1      18.830  39.994  21.587  1.00  0.00    -0.360 OA
HETATM   10  H   LIG     1      19.585  40.175  22.240  1.00  0.00     0.217 HD
ENDBRANCH   1   9
TORSDOF 1
ENDMDL
MODEL 6
REMARK VINA RESULT:      -6.1      2.378      3.291
REMARK  1 active torsions:
REMARK  status: ('A' for Active; 'I' for Inactive)
REMARK    1  A    between atoms: O_1  and  C_2 
ROOT
HETATM    1  C   LIG     1      16.746  37.859  22.794  1.00  0.00     0.071 A 
HETATM    2  C   LIG     1      17.380  39.071  22.491  1.00  0.00     0.037 A 
HETATM    3  C   LIG     1      18.259  39.157  21.409  1.00  0.00     0.009 A 
HETATM    4  C   LIG     1      18.524  38.027  20.623  1.00  0.00    -0.061 A 
HETATM    5  C   LIG     1      19.435  38.129  19.434  1.00  0.00     0.048 C 
HETATM    6  C   LIG     1      17.878  36.816  20.913  1.00  0.00     0.016 A 
HETATM    7  C   LIG     1      16.998  36.720  22.006  1.00  0.00    -0.028 A 
HETATM    8  C   LIG     1      16.306  35.421  22.309  1.00  0.00     0.051 C 
ENDROOT
BRANCH   1   9
HETATM    9  O   LIG     1      15.866  37.781  23.872  1.00  0.00    -0.360 OA
HETATM   10  H   LIG     1      15.375  38.599  24.218  1.00  0.00     0.217 HD
ENDBRANCH   1   9
TORSDOF 1
ENDMDL
MODEL 7
REMARK VINA RESULT:      -6.0      3.143      4.670
REMARK  1 active torsions:
REMARK  status: ('A' for Active; 'I' for Inactive)
REMARK    1  A    between atoms: O_1  and  C_2 
ROOT
HETATM    1  C   LIG     1      18.106  36.942  20.303  1.00  0.00     0.071 A 
HETATM    2  C   LIG     1      17.367  35.969  20.990  1.00  0.00     0.037 A 
HETATM    3  C   LIG     1      16.891  36.223  22.278  1.00  0.00     0.009 A 
HETATM    4  C   LIG     1      17.157  37.451  22.900  1.00  0.00    -0.061 A 
HETATM    5  C   LIG     1      16.608  37.741  24.266  1.00  0.00     0.048 C 
HETATM    6  C   LIG     1      17.881  38.434  22.208  1.00  0.00     0.016 A 
HETATM    7  C   LIG     1      18.371  38.181  20.915  1.00  0.00    -0.028 A 
HETATM    8  C   LIG     1      19.142  39.240  20.177  1.00  0.00     0.051 C 
ENDROOT
BRANCH   1   9
HETATM    9  O   LIG     1      18.574  36.683  19.016  1.00  0.00    -0.360 OA
HETATM   10  H   LIG     1      18.057  36.096  18.370  1.00  0.00     0.217 HD
ENDBRANCH   1   9
TORSDOF 1
ENDMDL
MODEL 8
REMARK VINA RESULT:      -5.7      9.009     10.435
REMARK  1 active torsions:
REMARK  status: ('A' for Active; 'I' for Inactive)
REMARK    1  A    between atoms: O_1  and  C_2 
ROOT
HETATM    1  C   LIG     1      13.490  30.926  16.286  1.00  0.00     0.071 A 
HETATM    2  C   LIG     1      14.010  32.007  17.011  1.00  0.00     0.037 A 
HETATM    3  C   LIG     1      15.173  32.650  16.582  1.00  0.00     0.009 A 
HETATM    4  C   LIG     1      15.837  32.214  15.427  1.00  0.00    -0.061 A 
HETATM    5  C   LIG     1      17.061  32.934  14.942  1.00  0.00     0.048 C 
HETATM    6  C   LIG     1      15.309  31.143  14.689  1.00  0.00     0.016 A 
HETATM    7  C   LIG     1      14.144  30.485  15.120  1.00  0.00    -0.028 A 
HETATM    8  C   LIG     1      13.582  29.342  14.323  1.00  0.00     0.051 C 
ENDROOT
BRANCH   1   9
HETATM    9  O   LIG     1      12.326  30.290  16.717  1.00  0.00    -0.360 OA
HETATM   10  H   LIG     1      12.007  30.361  17.676  1.00  0.00     0.217 HD
ENDBRANCH   1   9
TORSDOF 1
ENDMDL
MODEL 9
REMARK VINA RESULT:      -5.7      3.022      3.717
REMARK  1 active torsions:
REMARK  status: ('A' for Active; 'I' for Inactive)
REMARK    1  A    between atoms: O_1  and  C_2 
ROOT
HETATM    1  C   LIG     1      18.411  38.587  21.058  1.00  0.00     0.071 A 
HETATM    2  C   LIG     1      18.756  37.640  20.083  1.00  0.00     0.037 A 
HETATM    3  C   LIG     1      18.130  36.392  20.058  1.00  0.00     0.009 A 
HETATM    4  C   LIG     1      17.157  36.071  21.014  1.00  0.00    -0.061 A 
HETATM    5  C   LIG     1      16.452  34.747  20.960  1.00  0.00     0.048 C 
HETATM    6  C   LIG     1      16.796  37.023  21.980  1.00  0.00     0.016 A 
HETATM    7  C   LIG     1      17.429  38.277  22.017  1.00  0.00    -0.028 A 
HETATM    8  C   LIG     1      17.035  39.294  23.052  1.00  0.00     0.051 C 
ENDROOT
BRANCH   1   9
HETATM    9  O   LIG     1      19.037  39.832  21.075  1.00  0.00    -0.360 OA
HETATM   10  H   LIG     1      18.644  40.631  20.589  1.00  0.00     0.217 HD
ENDBRANCH   1   9
TORSDOF 1
ENDMDL
MODEL 10
REMARK VINA RESULT:      -5.7      1.640      2.567
REMARK  1 active torsions:
REMARK  status: ('A' for Active; 'I' for Inactive)
REMARK    1  A    between atoms: O_1  and  C_2 
ROOT
HETATM    1  C   LIG     1      17.282  35.636  24.575  1.00  0.00     0.071 A 
HETATM    2  C   LIG     1      16.888  35.523  23.234  1.00  0.00     0.037 A 
HETATM    3  C   LIG     1      16.944  36.631  22.386  1.00  0.00     0.009 A 
HETATM    4  C   LIG     1      17.385  37.870  22.871  1.00  0.00    -0.061 A 
HETATM    5  C   LIG     1      17.487  39.049  21.948  1.00  0.00     0.048 C 
HETATM    6  C   LIG     1      17.797  37.982  24.208  1.00  0.00     0.016 A 
HETATM    7  C   LIG     1      17.735  36.873  25.069  1.00  0.00    -0.028 A 
HETATM    8  C   LIG     1      18.181  37.000  26.499  1.00  0.00     0.051 C 
ENDROOT
BRANCH   1   9
HETATM    9  O   LIG     1      17.228  34.525  25.415  1.00  0.00    -0.360 OA
HETATM   10  H   LIG     1      18.065  34.138  25.839  1.00  0.00     0.217 HD
ENDBRANCH   1   9
TORSDOF 1
ENDMDL
MODEL 11
REMARK VINA RESULT:      -5.6      8.609      9.954
REMARK  1 active torsions:
REMARK  status: ('A' for Active; 'I' for Inactive)
REMARK    1  A    between atoms: O_1  and  C_2 
ROOT
HETATM    1  C   LIG     1      15.035  32.596  16.554  1.00  0.00     0.071 A 
HETATM    2  C   LIG     1      13.841  31.988  16.965  1.00  0.00     0.037 A 
HETATM    3  C   LIG     1      13.313  30.913  16.247  1.00  0.00     0.009 A 
HETATM    4  C   LIG     1      13.966  30.439  15.102  1.00  0.00    -0.061 A 
HETATM    5  C   LIG     1      13.422  29.256  14.356  1.00  0.00     0.048 C 
HETATM    6  C   LIG     1      15.171  31.034  14.697  1.00  0.00     0.016 A 
HETATM    7  C   LIG     1      15.704  32.122  15.410  1.00  0.00    -0.028 A 
HETATM    8  C   LIG     1      16.997  32.752  14.974  1.00  0.00     0.051 C 
ENDROOT
BRANCH   1   9
HETATM    9  O   LIG     1      15.560  33.666  17.278  1.00  0.00    -0.360 OA
HETATM   10  H   LIG     1      15.678  33.619  18.284  1.00  0.00     0.217 HD
ENDBRANCH   1   9
TORSDOF 1
ENDMDL
MODEL 12
REMARK VINA RESULT:      -5.5      8.784     11.079
REMARK  1 active torsions:
REMARK  status: ('A' for Active; 'I' for Inactive)
REMARK    1  A    between atoms: O_1  and  C_2 
ROOT
HETATM    1  C   LIG     1      13.412  30.052  14.944  1.00  0.00     0.071 A 
HETATM    2  C   LIG     1      12.712  30.576  16.040  1.00  0.00     0.037 A 
HETATM    3  C   LIG     1      13.267  31.601  16.808  1.00  0.00     0.009 A 
HETATM    4  C   LIG     1      14.536  32.109  16.497  1.00  0.00    -0.061 A 
HETATM    5  C   LIG     1      15.113  33.241  17.295  1.00  0.00     0.048 C 
HETATM    6  C   LIG     1      15.232  31.600  15.390  1.00  0.00     0.016 A 
HETATM    7  C   LIG     1      14.683  30.561  14.617  1.00  0.00    -0.028 A 
HETATM    8  C   LIG     1      15.432  30.023  13.431  1.00  0.00     0.051 C 
ENDROOT
BRANCH   1   9
HETATM    9  O   LIG     1      12.850  29.032  14.178  1.00  0.00    -0.360 OA
HETATM   10  H   LIG     1      12.027  28.527  14.487  1.00  0.00     0.217 HD
ENDBRANCH   1   9
TORSDOF 1
ENDMDL
MODEL 13
REMARK VINA RESULT:      -5.4      8.139     10.308
REMARK  1 active torsions:
REMARK  status: ('A' for Active; 'I' for Inactive)
REMARK    1  A    between atoms: O_1  and  C_2 
ROOT
HETATM    1  C   LIG     1      15.863  32.563  15.259  1.00  0.00     0.071 A 
HETATM    2  C   LIG     1      16.023  31.929  14.019  1.00  0.00     0.037 A 
HETATM    3  C   LIG     1      15.264  30.800  13.700  1.00  0.00     0.009 A 
HETATM    4  C   LIG     1      14.342  30.285  14.622  1.00  0.00    -0.061 A 
HETATM    5  C   LIG     1      13.495  29.100  14.261  1.00  0.00     0.048 C 
HETATM    6  C   LIG     1      14.166  30.928  15.857  1.00  0.00     0.016 A 
HETATM    7  C   LIG     1      14.933  32.059  16.188  1.00  0.00    -0.028 A 
HETATM    8  C   LIG     1      14.737  32.745  17.511  1.00  0.00     0.051 C 
ENDROOT
BRANCH   1   9
HETATM    9  O   LIG     1      16.620  33.691  15.570  1.00  0.00    -0.360 OA
HETATM   10  H   LIG     1      16.997  33.838  16.499  1.00  0.00     0.217 HD
ENDBRANCH   1   9
TORSDOF 1
ENDMDL
MODEL 14
REMARK VINA RESULT:      -5.3      9.816     10.908
REMARK  1 active torsions:
REMARK  status: ('A' for Active; 'I' for Inactive)
REMARK    1  A    between atoms: O_1  and  C_2 
ROOT
HETATM    1  C   LIG     1      16.216  31.784  13.707  1.00  0.00     0.071 A 
HETATM    2  C   LIG     1      15.334  30.715  13.495  1.00  0.00     0.037 A 
HETATM    3  C   LIG     1      14.396  30.370  14.471  1.00  0.00     0.009 A 
HETATM    4  C   LIG     1      14.336  31.082  15.676  1.00  0.00    -0.061 A 
HETATM    5  C   LIG     1      13.299  30.739  16.706  1.00  0.00     0.048 C 
HETATM    6  C   LIG     1      15.205  32.164  15.884  1.00  0.00     0.016 A 
HETATM    7  C   LIG     1      16.157  32.511  14.910  1.00  0.00    -0.028 A 
HETATM    8  C   LIG     1      17.083  33.673  15.138  1.00  0.00     0.051 C 
ENDROOT
BRANCH   1   9
HETATM    9  O   LIG     1      17.146  32.127  12.727  1.00  0.00    -0.360 OA
HETATM   10  H   LIG     1      18.019  32.587  12.961  1.00  0.00     0.217 HD
ENDBRANCH   1   9
TORSDOF 1
ENDMDL
MODEL 15
REMARK VINA RESULT:      -5.2      8.483     10.557
REMARK  1 active torsions:
REMARK  status: ('A' for Active; 'I' for Inactive)
REMARK    1  A    between atoms: O_1  and  C_2 
ROOT
HETATM    1  C   LIG     1      13.366  31.480  16.421  1.00  0.00     0.071 A 
HETATM    2  C   LIG     1      12.766  30.382  15.788  1.00  0.00     0.037 A 
HETATM    3  C   LIG     1      13.444  29.691  14.781  1.00  0.00     0.009 A 
HETATM    4  C   LIG     1      14.726  30.097  14.386  1.00  0.00    -0.061 A 
HETATM    5  C   LIG     1      15.471  29.327  13.335  1.00  0.00     0.048 C 
HETATM    6  C   LIG     1      15.336  31.184  15.030  1.00  0.00     0.016 A 
HETATM    7  C   LIG     1      14.657  31.890  16.038  1.00  0.00    -0.028 A 
HETATM    8  C   LIG     1      15.318  33.051  16.726  1.00  0.00     0.051 C 
ENDROOT
BRANCH   1   9
HETATM    9  O   LIG     1      12.687  32.163  17.429  1.00  0.00    -0.360 OA
HETATM   10  H   LIG     1      13.181  32.634  18.178  1.00  0.00     0.217 HD
ENDBRANCH   1   9
TORSDOF 1
ENDMDL
MODEL 16
REMARK VINA RESULT:      -5.1      9.872     10.886
REMARK  1 active torsions:
REMARK  status: ('A' for Active; 'I' for Inactive)
REMARK    1  A    between atoms: O_1  and  C_2 
ROOT
HETATM    1  C   LIG     1      14.001  30.399  14.868  1.00  0.00     0.071 A 
HETATM    2  C   LIG     1      14.880  30.365  13.776  1.00  0.00     0.037 A 
HETATM    3  C   LIG     1      15.968  31.238  13.718  1.00  0.00     0.009 A 
HETATM    4  C   LIG     1      16.186  32.164  14.748  1.00  0.00    -0.061 A 
HETATM    5  C   LIG     1      17.381  33.071  14.707  1.00  0.00     0.048 C 
HETATM    6  C   LIG     1      15.319  32.189  15.851  1.00  0.00     0.016 A 
HETATM    7  C   LIG     1      14.217  31.319  15.911  1.00  0.00    -0.028 A 
HETATM    8  C   LIG     1      13.294  31.348  17.098  1.00  0.00     0.051 C 
ENDROOT
BRANCH   1   9
HETATM    9  O   LIG     1      12.919  29.522  14.922  1.00  0.00    -0.360 OA
HETATM   10  H   LIG     1      12.052  29.717  14.434  1.00  0.00     0.217 HD
ENDBRANCH   1   9
TORSDOF 1
ENDMDL
MODEL 17
REMARK VINA RESULT:      -5.1      9.904     11.898
REMARK  1 active torsions:
REMARK  status: ('A' for Active; 'I' for Inactive)
REMARK    1  A    between atoms: O_1  and  C_2 
ROOT
HETATM    1  C   LIG     1      14.951  29.627  13.872  1.00  0.00     0.071 A 
HETATM    2  C   LIG     1      15.698  30.708  14.362  1.00  0.00     0.037 A 
HETATM    3  C   LIG     1      15.180  31.524  15.370  1.00  0.00     0.009 A 
HETATM    4  C   LIG     1      13.904  31.276  15.893  1.00  0.00    -0.061 A 
HETATM    5  C   LIG     1      13.366  32.126  17.007  1.00  0.00     0.048 C 
HETATM    6  C   LIG     1      13.161  30.185  15.418  1.00  0.00     0.016 A 
HETATM    7  C   LIG     1      13.672  29.364  14.397  1.00  0.00    -0.028 A 
HETATM    8  C   LIG     1      12.873  28.194  13.895  1.00  0.00     0.051 C 
ENDROOT
BRANCH   1   9
HETATM    9  O   LIG     1      15.476  28.813  12.869  1.00  0.00    -0.360 OA
HETATM   10  H   LIG     1      15.324  29.015  11.887  1.00  0.00     0.217 HD
ENDBRANCH   1   9
TORSDOF 1
ENDMDL
MODEL 18
REMARK VINA RESULT:      -5.0      7.805      9.917
REMARK  1 active torsions:
REMARK  status: ('A' for Active; 'I' for Inactive)
REMARK    1  A    between atoms: O_1  and  C_2 
ROOT
HETATM    1  C   LIG     1      13.989  31.613  16.977  1.00  0.00     0.071 A 
HETATM    2  C   LIG     1      13.581  30.486  16.250  1.00  0.00     0.037 A 
HETATM    3  C   LIG     1      14.124  30.222  14.991  1.00  0.00     0.009 A 
HETATM    4  C   LIG     1      15.077  31.089  14.438  1.00  0.00    -0.061 A 
HETATM    5  C   LIG     1      15.694  30.782  13.104  1.00  0.00     0.048 C 
HETATM    6  C   LIG     1      15.501  32.208  15.170  1.00  0.00     0.016 A 
HETATM    7  C   LIG     1      14.951  32.485  16.434  1.00  0.00    -0.028 A 
HETATM    8  C   LIG     1      15.413  33.683  17.214  1.00  0.00     0.051 C 
ENDROOT
BRANCH   1   9
HETATM    9  O   LIG     1      13.446  31.868  18.235  1.00  0.00    -0.360 OA
HETATM   10  H   LIG     1      13.970  32.360  18.950  1.00  0.00     0.217 HD
ENDBRANCH   1   9
TORSDOF 1
ENDMDL
MODEL 19
REMARK VINA RESULT:      -4.8      8.421     10.654
REMARK  1 active torsions:
REMARK  status: ('A' for Active; 'I' for Inactive)
REMARK    1  A    between atoms: O_1  and  C_2 
ROOT
HETATM    1  C   LIG     1      15.423  31.042  14.290  1.00  0.00     0.071 A 
HETATM    2  C   LIG     1      16.241  32.085  14.747  1.00  0.00     0.037 A 
HETATM    3  C   LIG     1      15.963  32.721  15.959  1.00  0.00     0.009 A 
HETATM    4  C   LIG     1      14.857  32.328  16.725  1.00  0.00    -0.061 A 
HETATM    5  C   LIG     1      14.584  32.982  18.049  1.00  0.00     0.048 C 
HETATM    6  C   LIG     1      14.046  31.273  16.280  1.00  0.00     0.016 A 
HETATM    7  C   LIG     1      14.315  30.634  15.056  1.00  0.00    -0.028 A 
HETATM    8  C   LIG     1      13.445  29.502  14.587  1.00  0.00     0.051 C 
ENDROOT
BRANCH   1   9
HETATM    9  O   LIG     1      15.709  30.408  13.082  1.00  0.00    -0.360 OA
HETATM   10  H   LIG     1      16.355  30.809  12.411  1.00  0.00     0.217 HD
ENDBRANCH   1   9
TORSDOF 1
ENDMDL
MODEL 20
REMARK VINA RESULT:      -4.2     10.888     12.911
REMARK  1 active torsions:
REMARK  status: ('A' for Active; 'I' for Inactive)
REMARK    1  A    between atoms: O_1  and  C_2 
ROOT
HETATM    1  C   LIG     1      13.387  29.464  14.621  1.00  0.00     0.071 A 
HETATM    2  C   LIG     1      12.968  28.214  14.144  1.00  0.00     0.037 A 
HETATM    3  C   LIG     1      13.843  27.409  13.412  1.00  0.00     0.009 A 
HETATM    4  C   LIG     1      15.146  27.847  13.138  1.00  0.00    -0.061 A 
HETATM    5  C   LIG     1      16.100  26.963  12.390  1.00  0.00     0.048 C 
HETATM    6  C   LIG     1      15.574  29.090  13.629  1.00  0.00     0.016 A 
HETATM    7  C   LIG     1      14.696  29.910  14.359  1.00  0.00    -0.028 A 
HETATM    8  C   LIG     1      15.163  31.239  14.885  1.00  0.00     0.051 C 
ENDROOT
BRANCH   1   9
HETATM    9  O   LIG     1      12.511  30.261  15.355  1.00  0.00    -0.360 OA
HETATM   10  H   LIG     1      11.565  29.959  15.564  1.00  0.00     0.217 HD
ENDBRANCH   1   9
TORSDOF 1
ENDMDL
