MODEL 1
REMARK VINA RESULT:      -5.0      0.000      0.000
REMARK  4 active torsions:
REMARK  status: ('A' for Active; 'I' for Inactive)
REMARK    1  A    between atoms: C_2  and  C_3 
REMARK    2  A    between atoms: C_3  and  C_4 
REMARK    3  A    between atoms: C_4  and  O_5 
REMARK    4  A    between atoms: O_5  and  C_6 
ROOT
HETATM    1  C   LIG     1      17.563  37.734  24.990  1.00  0.00     0.258 C 
HETATM    2  O   LIG     1      16.844  38.599  25.562  1.00  0.00    -0.265 OA
ENDROOT
BRANCH   1   3
HETATM    3  C   LIG     1      18.711  37.115  25.725  1.00  0.00     0.111 C 
BRANCH   3   4
HETATM    4  C   LIG     1      18.207  36.118  26.772  1.00  0.00     0.005 C 
HETATM    5  C   LIG     1      17.765  34.811  26.120  1.00  0.00     0.005 C 
ENDBRANCH   3   4
ENDBRANCH   1   3
BRANCH   1   6
HETATM    6  O   LIG     1      17.293  37.339  23.677  1.00  0.00    -0.322 OA
BRANCH   6   7
HETATM    7  C   LIG     1      16.813  38.243  22.686  1.00  0.00     0.174 C 
HETATM    8  C   LIG     1      17.988  38.932  22.012  1.00  0.00     0.034 C 
ENDBRANCH   6   7
ENDBRANCH   1   6
TORSDOF 4
ENDMDL
MODEL 2
REMARK VINA RESULT:      -4.9      1.059      4.064
REMARK  4 active torsions:
REMARK  status: ('A' for Active; 'I' for Inactive)
REMARK    1  A    between atoms: C_2  and  C_3 
REMARK    2  A    between atoms: C_3  and  C_4 
REMARK    3  A    between atoms: C_4  and  O_5 
REMARK    4  A    between atoms: O_5  and  C_6 
ROOT
HETATM    1  C   LIG     1      17.106  37.956  24.646  1.00  0.00     0.258 C 
HETATM    2  O   LIG     1      15.905  37.928  24.261  1.00  0.00    -0.265 OA
ENDROOT
BRANCH   1   3
HETATM    3  C   LIG     1      18.186  38.357  23.691  1.00  0.00     0.111 C 
BRANCH   3   4
HETATM    4  C   LIG     1      17.630  38.483  22.269  1.00  0.00     0.005 C 
HETATM    5  C   LIG     1      18.564  39.304  21.384  1.00  0.00     0.005 C 
ENDBRANCH   3   4
ENDBRANCH   1   3
BRANCH   1   6
HETATM    6  O   LIG     1      17.439  37.625  25.962  1.00  0.00    -0.322 OA
BRANCH   6   7
HETATM    7  C   LIG     1      18.428  36.652  26.284  1.00  0.00     0.174 C 
HETATM    8  C   LIG     1      17.865  35.258  26.058  1.00  0.00     0.034 C 
ENDBRANCH   6   7
ENDBRANCH   1   6
TORSDOF 4
ENDMDL
MODEL 3
REMARK VINA RESULT:      -4.9      1.667      1.977
REMARK  4 active torsions:
REMARK  status: ('A' for Active; 'I' for Inactive)
REMARK    1  A    between atoms: C_2  and  C_3 
REMARK    2  A    between atoms: C_3  and  C_4 
REMARK    3  A    between atoms: C_4  and  O_5 
REMARK    4  A    between atoms: O_5  and  C_6 
ROOT
HETATM    1  C   LIG     1      16.744  37.552  24.259  1.00  0.00     0.258 C 
HETATM    2  O   LIG     1      15.620  38.045  23.967  1.00  0.00    -0.265 OA
ENDROOT
BRANCH   1   3
HETATM    3  C   LIG     1      17.356  37.833  25.595  1.00  0.00     0.111 C 
BRANCH   3   4
HETATM    4  C   LIG     1      18.560  36.918  25.840  1.00  0.00     0.005 C 
HETATM    5  C   LIG     1      18.143  35.639  26.560  1.00  0.00     0.005 C 
ENDBRANCH   3   4
ENDBRANCH   1   3
BRANCH   1   6
HETATM    6  O   LIG     1      17.421  36.737  23.348  1.00  0.00    -0.322 OA
BRANCH   6   7
HETATM    7  C   LIG     1      16.855  35.544  22.814  1.00  0.00     0.174 C 
HETATM    8  C   LIG     1      16.929  35.579  21.296  1.00  0.00     0.034 C 
ENDBRANCH   6   7
ENDBRANCH   1   6
TORSDOF 4
ENDMDL
MODEL 4
REMARK VINA RESULT:      -4.7      1.976      3.724
REMARK  4 active torsions:
REMARK  status: ('A' for Active; 'I' for Inactive)
REMARK    1  A    between atoms: C_2  and  C_3 
REMARK    2  A    between atoms: C_3  and  C_4 
REMARK    3  A    between atoms: C_4  and  O_5 
REMARK    4  A    between atoms: O_5  and  C_6 
ROOT
HETATM    1  C   LIG     1      17.043  37.354  24.051  1.00  0.00     0.258 C 
HETATM    2  O   LIG     1      16.009  37.962  24.440  1.00  0.00    -0.265 OA
ENDROOT
BRANCH   1   3
HETATM    3  C   LIG     1      17.111  36.814  22.657  1.00  0.00     0.111 C 
BRANCH   3   4
HETATM    4  C   LIG     1      16.840  35.307  22.648  1.00  0.00     0.005 C 
HETATM    5  C   LIG     1      16.399  34.835  21.265  1.00  0.00     0.005 C 
ENDBRANCH   3   4
ENDBRANCH   1   3
BRANCH   1   6
HETATM    6  O   LIG     1      18.134  37.186  24.908  1.00  0.00    -0.322 OA
BRANCH   6   7
HETATM    7  C   LIG     1      18.007  36.637  26.216  1.00  0.00     0.174 C 
HETATM    8  C   LIG     1      18.007  35.119  26.134  1.00  0.00     0.034 C 
ENDBRANCH   6   7
ENDBRANCH   1   6
TORSDOF 4
ENDMDL
MODEL 5
REMARK VINA RESULT:      -4.5      1.286      4.339
REMARK  4 active torsions:
REMARK  status: ('A' for Active; 'I' for Inactive)
REMARK    1  A    between atoms: C_2  and  C_3 
REMARK    2  A    between atoms: C_3  and  C_4 
REMARK    3  A    between atoms: C_4  and  O_5 
REMARK    4  A    between atoms: O_5  and  C_6 
ROOT
HETATM    1  C   LIG     1      16.904  37.455  22.707  1.00  0.00     0.258 C 
HETATM    2  O   LIG     1      16.507  36.764  21.728  1.00  0.00    -0.265 OA
ENDROOT
BRANCH   1   3
HETATM    3  C   LIG     1      17.230  38.902  22.514  1.00  0.00     0.111 C 
BRANCH   3   4
HETATM    4  C   LIG     1      18.685  39.073  22.065  1.00  0.00     0.005 C 
HETATM    5  C   LIG     1      18.769  39.343  20.566  1.00  0.00     0.005 C 
ENDBRANCH   3   4
ENDBRANCH   1   3
BRANCH   1   6
HETATM    6  O   LIG     1      17.035  36.882  23.975  1.00  0.00    -0.322 OA
BRANCH   6   7
HETATM    7  C   LIG     1      17.286  37.653  25.145  1.00  0.00     0.174 C 
HETATM    8  C   LIG     1      18.250  36.905  26.052  1.00  0.00     0.034 C 
ENDBRANCH   6   7
ENDBRANCH   1   6
TORSDOF 4
ENDMDL
MODEL 6
REMARK VINA RESULT:      -4.5      2.643      3.998
REMARK  4 active torsions:
REMARK  status: ('A' for Active; 'I' for Inactive)
REMARK    1  A    between atoms: C_2  and  C_3 
REMARK    2  A    between atoms: C_3  and  C_4 
REMARK    3  A    between atoms: C_4  and  O_5 
REMARK    4  A    between atoms: O_5  and  C_6 
ROOT
HETATM    1  C   LIG     1      16.658  37.882  23.233  1.00  0.00     0.258 C 
HETATM    2  O   LIG     1      15.867  38.015  24.207  1.00  0.00    -0.265 OA
ENDROOT
BRANCH   1   3
HETATM    3  C   LIG     1      17.023  39.071  22.402  1.00  0.00     0.111 C 
BRANCH   3   4
HETATM    4  C   LIG     1      18.518  39.058  22.068  1.00  0.00     0.005 C 
HETATM    5  C   LIG     1      18.747  39.199  20.566  1.00  0.00     0.005 C 
ENDBRANCH   3   4
ENDBRANCH   1   3
BRANCH   1   6
HETATM    6  O   LIG     1      17.205  36.633  22.927  1.00  0.00    -0.322 OA
BRANCH   6   7
HETATM    7  C   LIG     1      16.507  35.654  22.164  1.00  0.00     0.174 C 
HETATM    8  C   LIG     1      16.941  35.737  20.709  1.00  0.00     0.034 C 
ENDBRANCH   6   7
ENDBRANCH   1   6
TORSDOF 4
ENDMDL
MODEL 7
REMARK VINA RESULT:      -4.3      3.463      5.308
REMARK  4 active torsions:
REMARK  status: ('A' for Active; 'I' for Inactive)
REMARK    1  A    between atoms: C_2  and  C_3 
REMARK    2  A    between atoms: C_3  and  C_4 
REMARK    3  A    between atoms: C_4  and  O_5 
REMARK    4  A    between atoms: O_5  and  C_6 
ROOT
HETATM    1  C   LIG     1      17.649  36.345  20.544  1.00  0.00     0.258 C 
HETATM    2  O   LIG     1      16.805  35.573  20.011  1.00  0.00    -0.265 OA
ENDROOT
BRANCH   1   3
HETATM    3  C   LIG     1      18.812  36.843  19.745  1.00  0.00     0.111 C 
BRANCH   3   4
HETATM    4  C   LIG     1      18.943  38.364  19.873  1.00  0.00     0.005 C 
HETATM    5  C   LIG     1      20.333  38.833  19.453  1.00  0.00     0.005 C 
ENDBRANCH   3   4
ENDBRANCH   1   3
BRANCH   1   6
HETATM    6  O   LIG     1      17.504  36.747  21.874  1.00  0.00    -0.322 OA
BRANCH   6   7
HETATM    7  C   LIG     1      16.299  37.314  22.380  1.00  0.00     0.174 C 
HETATM    8  C   LIG     1      16.493  38.804  22.609  1.00  0.00     0.034 C 
ENDBRANCH   6   7
ENDBRANCH   1   6
TORSDOF 4
ENDMDL
MODEL 8
REMARK VINA RESULT:      -4.3      2.473      3.196
REMARK  4 active torsions:
REMARK  status: ('A' for Active; 'I' for Inactive)
REMARK    1  A    between atoms: C_2  and  C_3 
REMARK    2  A    between atoms: C_3  and  C_4 
REMARK    3  A    between atoms: C_4  and  O_5 
REMARK    4  A    between atoms: O_5  and  C_6 
ROOT
HETATM    1  C   LIG     1      17.118  38.170  23.465  1.00  0.00     0.258 C 
HETATM    2  O   LIG     1      16.835  38.540  24.637  1.00  0.00    -0.265 OA
ENDROOT
BRANCH   1   3
HETATM    3  C   LIG     1      16.178  37.277  22.718  1.00  0.00     0.111 C 
BRANCH   3   4
HETATM    4  C   LIG     1      16.870  35.968  22.327  1.00  0.00     0.005 C 
HETATM    5  C   LIG     1      17.139  35.915  20.826  1.00  0.00     0.005 C 
ENDBRANCH   3   4
ENDBRANCH   1   3
BRANCH   1   6
HETATM    6  O   LIG     1      18.300  38.592  22.851  1.00  0.00    -0.322 OA
BRANCH   6   7
HETATM    7  C   LIG     1      18.313  39.464  21.725  1.00  0.00     0.174 C 
HETATM    8  C   LIG     1      19.348  38.983  20.720  1.00  0.00     0.034 C 
ENDBRANCH   6   7
ENDBRANCH   1   6
TORSDOF 4
ENDMDL
MODEL 9
REMARK VINA RESULT:      -4.3      9.900     11.223
REMARK  4 active torsions:
REMARK  status: ('A' for Active; 'I' for Inactive)
REMARK    1  A    between atoms: C_2  and  C_3 
REMARK    2  A    between atoms: C_3  and  C_4 
REMARK    3  A    between atoms: C_4  and  O_5 
REMARK    4  A    between atoms: O_5  and  C_6 
ROOT
HETATM    1  C   LIG     1      13.585  31.072  16.889  1.00  0.00     0.258 C 
HETATM    2  O   LIG     1      12.384  30.716  16.738  1.00  0.00    -0.265 OA
ENDROOT
BRANCH   1   3
HETATM    3  C   LIG     1      14.495  31.148  15.704  1.00  0.00     0.111 C 
BRANCH   3   4
HETATM    4  C   LIG     1      14.100  30.107  14.652  1.00  0.00     0.005 C 
HETATM    5  C   LIG     1      15.320  29.619  13.876  1.00  0.00     0.005 C 
ENDBRANCH   3   4
ENDBRANCH   1   3
BRANCH   1   6
HETATM    6  O   LIG     1      14.074  31.406  18.155  1.00  0.00    -0.322 OA
BRANCH   6   7
HETATM    7  C   LIG     1      15.046  32.426  18.361  1.00  0.00     0.174 C 
HETATM    8  C   LIG     1      15.505  32.409  19.810  1.00  0.00     0.034 C 
ENDBRANCH   6   7
ENDBRANCH   1   6
TORSDOF 4
ENDMDL
MODEL 10
REMARK VINA RESULT:      -4.1      5.175      6.061
REMARK  4 active torsions:
REMARK  status: ('A' for Active; 'I' for Inactive)
REMARK    1  A    between atoms: C_2  and  C_3 
REMARK    2  A    between atoms: C_3  and  C_4 
REMARK    3  A    between atoms: C_4  and  O_5 
REMARK    4  A    between atoms: O_5  and  C_6 
ROOT
HETATM    1  C   LIG     1      15.556  34.205  20.863  1.00  0.00     0.258 C 
HETATM    2  O   LIG     1      14.537  34.039  21.588  1.00  0.00    -0.265 OA
ENDROOT
BRANCH   1   3
HETATM    3  C   LIG     1      16.526  35.299  21.181  1.00  0.00     0.111 C 
BRANCH   3   4
HETATM    4  C   LIG     1      16.918  35.261  22.661  1.00  0.00     0.005 C 
HETATM    5  C   LIG     1      16.900  36.660  23.271  1.00  0.00     0.005 C 
ENDBRANCH   3   4
ENDBRANCH   1   3
BRANCH   1   6
HETATM    6  O   LIG     1      15.795  33.369  19.769  1.00  0.00    -0.322 OA
BRANCH   6   7
HETATM    7  C   LIG     1      15.295  32.037  19.695  1.00  0.00     0.174 C 
HETATM    8  C   LIG     1      14.513  31.858  18.403  1.00  0.00     0.034 C 
ENDBRANCH   6   7
ENDBRANCH   1   6
TORSDOF 4
ENDMDL
MODEL 11
REMARK VINA RESULT:      -4.1      9.658     11.094
REMARK  4 active torsions:
REMARK  status: ('A' for Active; 'I' for Inactive)
REMARK    1  A    between atoms: C_2  and  C_3 
REMARK    2  A    between atoms: C_3  and  C_4 
REMARK    3  A    between atoms: C_4  and  O_5 
REMARK    4  A    between atoms: O_5  and  C_6 
ROOT
HETATM    1  C   LIG     1      16.602  32.637  15.211  1.00  0.00     0.258 C 
HETATM    2  O   LIG     1      17.761  32.201  15.451  1.00  0.00    -0.265 OA
ENDROOT
BRANCH   1   3
HETATM    3  C   LIG     1      15.781  32.013  14.127  1.00  0.00     0.111 C 
BRANCH   3   4
HETATM    4  C   LIG     1      15.493  30.543  14.446  1.00  0.00     0.005 C 
HETATM    5  C   LIG     1      14.077  30.364  14.985  1.00  0.00     0.005 C 
ENDBRANCH   3   4
ENDBRANCH   1   3
BRANCH   1   6
HETATM    6  O   LIG     1      16.073  33.696  15.954  1.00  0.00    -0.322 OA
BRANCH   6   7
HETATM    7  C   LIG     1      14.891  33.569  16.739  1.00  0.00     0.174 C 
HETATM    8  C   LIG     1      15.129  32.570  17.860  1.00  0.00     0.034 C 
ENDBRANCH   6   7
ENDBRANCH   1   6
TORSDOF 4
ENDMDL
MODEL 12
REMARK VINA RESULT:      -4.1      9.338     10.414
REMARK  4 active torsions:
REMARK  status: ('A' for Active; 'I' for Inactive)
REMARK    1  A    between atoms: C_2  and  C_3 
REMARK    2  A    between atoms: C_3  and  C_4 
REMARK    3  A    between atoms: C_4  and  O_5 
REMARK    4  A    between atoms: O_5  and  C_6 
ROOT
HETATM    1  C   LIG     1      15.357  33.192  16.742  1.00  0.00     0.258 C 
HETATM    2  O   LIG     1      15.090  34.413  16.571  1.00  0.00    -0.265 OA
ENDROOT
BRANCH   1   3
HETATM    3  C   LIG     1      14.469  32.349  17.602  1.00  0.00     0.111 C 
BRANCH   3   4
HETATM    4  C   LIG     1      13.186  31.977  16.853  1.00  0.00     0.005 C 
HETATM    5  C   LIG     1      13.389  30.728  15.999  1.00  0.00     0.005 C 
ENDBRANCH   3   4
ENDBRANCH   1   3
BRANCH   1   6
HETATM    6  O   LIG     1      16.471  32.615  16.128  1.00  0.00    -0.322 OA
BRANCH   6   7
HETATM    7  C   LIG     1      16.888  32.960  14.811  1.00  0.00     0.174 C 
HETATM    8  C   LIG     1      16.097  32.149  13.797  1.00  0.00     0.034 C 
ENDBRANCH   6   7
ENDBRANCH   1   6
TORSDOF 4
ENDMDL
MODEL 13
REMARK VINA RESULT:      -4.1      8.509      9.908
REMARK  4 active torsions:
REMARK  status: ('A' for Active; 'I' for Inactive)
REMARK    1  A    between atoms: C_2  and  C_3 
REMARK    2  A    between atoms: C_3  and  C_4 
REMARK    3  A    between atoms: C_4  and  O_5 
REMARK    4  A    between atoms: O_5  and  C_6 
ROOT
HETATM    1  C   LIG     1      14.782  32.983  17.220  1.00  0.00     0.258 C 
HETATM    2  O   LIG     1      14.840  34.102  16.640  1.00  0.00    -0.265 OA
ENDROOT
BRANCH   1   3
HETATM    3  C   LIG     1      13.724  31.998  16.834  1.00  0.00     0.111 C 
BRANCH   3   4
HETATM    4  C   LIG     1      14.257  31.015  15.787  1.00  0.00     0.005 C 
HETATM    5  C   LIG     1      13.127  30.183  15.187  1.00  0.00     0.005 C 
ENDBRANCH   3   4
ENDBRANCH   1   3
BRANCH   1   6
HETATM    6  O   LIG     1      15.703  32.650  18.216  1.00  0.00    -0.322 OA
BRANCH   6   7
HETATM    7  C   LIG     1      15.325  32.432  19.572  1.00  0.00     0.174 C 
HETATM    8  C   LIG     1      15.602  33.687  20.385  1.00  0.00     0.034 C 
ENDBRANCH   6   7
ENDBRANCH   1   6
TORSDOF 4
ENDMDL
MODEL 14
REMARK VINA RESULT:      -4.1      8.555      9.521
REMARK  4 active torsions:
REMARK  status: ('A' for Active; 'I' for Inactive)
REMARK    1  A    between atoms: C_2  and  C_3 
REMARK    2  A    between atoms: C_3  and  C_4 
REMARK    3  A    between atoms: C_4  and  O_5 
REMARK    4  A    between atoms: O_5  and  C_6 
ROOT
HETATM    1  C   LIG     1      15.278  33.458  16.854  1.00  0.00     0.258 C 
HETATM    2  O   LIG     1      15.549  34.596  17.327  1.00  0.00    -0.265 OA
ENDROOT
BRANCH   1   3
HETATM    3  C   LIG     1      14.704  32.399  17.742  1.00  0.00     0.111 C 
BRANCH   3   4
HETATM    4  C   LIG     1      15.327  32.468  19.139  1.00  0.00     0.005 C 
HETATM    5  C   LIG     1      14.858  31.307  20.010  1.00  0.00     0.005 C 
ENDBRANCH   3   4
ENDBRANCH   1   3
BRANCH   1   6
HETATM    6  O   LIG     1      15.502  33.177  15.504  1.00  0.00    -0.322 OA
BRANCH   6   7
HETATM    7  C   LIG     1      16.347  32.116  15.068  1.00  0.00     0.174 C 
HETATM    8  C   LIG     1      15.522  31.086  14.313  1.00  0.00     0.034 C 
ENDBRANCH   6   7
ENDBRANCH   1   6
TORSDOF 4
ENDMDL
MODEL 15
REMARK VINA RESULT:      -3.9      6.882      8.373
REMARK  4 active torsions:
REMARK  status: ('A' for Active; 'I' for Inactive)
REMARK    1  A    between atoms: C_2  and  C_3 
REMARK    2  A    between atoms: C_3  and  C_4 
REMARK    3  A    between atoms: C_4  and  O_5 
REMARK    4  A    between atoms: O_5  and  C_6 
ROOT
HETATM    1  C   LIG     1      14.953  31.893  19.398  1.00  0.00     0.258 C 
HETATM    2  O   LIG     1      14.643  30.940  20.164  1.00  0.00    -0.265 OA
ENDROOT
BRANCH   1   3
HETATM    3  C   LIG     1      14.367  31.965  18.023  1.00  0.00     0.111 C 
BRANCH   3   4
HETATM    4  C   LIG     1      15.347  32.631  17.052  1.00  0.00     0.005 C 
HETATM    5  C   LIG     1      14.988  34.098  16.828  1.00  0.00     0.005 C 
ENDBRANCH   3   4
ENDBRANCH   1   3
BRANCH   1   6
HETATM    6  O   LIG     1      15.833  32.891  19.824  1.00  0.00    -0.322 OA
BRANCH   6   7
HETATM    7  C   LIG     1      15.456  33.903  20.754  1.00  0.00     0.174 C 
HETATM    8  C   LIG     1      15.957  35.254  20.268  1.00  0.00     0.034 C 
ENDBRANCH   6   7
ENDBRANCH   1   6
TORSDOF 4
ENDMDL
MODEL 16
REMARK VINA RESULT:      -3.9     10.745     11.729
REMARK  4 active torsions:
REMARK  status: ('A' for Active; 'I' for Inactive)
REMARK    1  A    between atoms: C_2  and  C_3 
REMARK    2  A    between atoms: C_3  and  C_4 
REMARK    3  A    between atoms: C_4  and  O_5 
REMARK    4  A    between atoms: O_5  and  C_6 
ROOT
HETATM    1  C   LIG     1      17.694  34.394  14.177  1.00  0.00     0.258 C 
HETATM    2  O   LIG     1      17.231  35.395  14.790  1.00  0.00    -0.265 OA
ENDROOT
BRANCH   1   3
HETATM    3  C   LIG     1      17.681  33.048  14.831  1.00  0.00     0.111 C 
BRANCH   3   4
HETATM    4  C   LIG     1      16.267  32.458  14.824  1.00  0.00     0.005 C 
HETATM    5  C   LIG     1      15.946  31.814  13.479  1.00  0.00     0.005 C 
ENDBRANCH   3   4
ENDBRANCH   1   3
BRANCH   1   6
HETATM    6  O   LIG     1      18.214  34.528  12.887  1.00  0.00    -0.322 OA
BRANCH   6   7
HETATM    7  C   LIG     1      19.148  33.606  12.335  1.00  0.00     0.174 C 
HETATM    8  C   LIG     1      20.564  34.086  12.613  1.00  0.00     0.034 C 
ENDBRANCH   6   7
ENDBRANCH   1   6
TORSDOF 4
ENDMDL
MODEL 17
REMARK VINA RESULT:      -3.9      6.931      8.017
REMARK  4 active torsions:
REMARK  status: ('A' for Active; 'I' for Inactive)
REMARK    1  A    between atoms: C_2  and  C_3 
REMARK    2  A    between atoms: C_3  and  C_4 
REMARK    3  A    between atoms: C_4  and  O_5 
REMARK    4  A    between atoms: O_5  and  C_6 
ROOT
HETATM    1  C   LIG     1      15.087  32.443  19.118  1.00  0.00     0.258 C 
HETATM    2  O   LIG     1      14.396  31.390  19.048  1.00  0.00    -0.265 OA
ENDROOT
BRANCH   1   3
HETATM    3  C   LIG     1      15.274  33.125  20.436  1.00  0.00     0.111 C 
BRANCH   3   4
HETATM    4  C   LIG     1      15.788  34.555  20.237  1.00  0.00     0.005 C 
HETATM    5  C   LIG     1      15.060  35.534  21.154  1.00  0.00     0.005 C 
ENDBRANCH   3   4
ENDBRANCH   1   3
BRANCH   1   6
HETATM    6  O   LIG     1      15.689  32.976  17.975  1.00  0.00    -0.322 OA
BRANCH   6   7
HETATM    7  C   LIG     1      14.981  33.177  16.756  1.00  0.00     0.174 C 
HETATM    8  C   LIG     1      15.710  32.476  15.621  1.00  0.00     0.034 C 
ENDBRANCH   6   7
ENDBRANCH   1   6
TORSDOF 4
ENDMDL
MODEL 18
REMARK VINA RESULT:      -3.9     11.382     12.696
REMARK  4 active torsions:
REMARK  status: ('A' for Active; 'I' for Inactive)
REMARK    1  A    between atoms: C_2  and  C_3 
REMARK    2  A    between atoms: C_3  and  C_4 
REMARK    3  A    between atoms: C_4  and  O_5 
REMARK    4  A    between atoms: O_5  and  C_6 
ROOT
HETATM    1  C   LIG     1      18.159  33.985  12.654  1.00  0.00     0.258 C 
HETATM    2  O   LIG     1      17.486  34.999  12.988  1.00  0.00    -0.265 OA
ENDROOT
BRANCH   1   3
HETATM    3  C   LIG     1      19.440  34.156  11.901  1.00  0.00     0.111 C 
BRANCH   3   4
HETATM    4  C   LIG     1      20.629  33.679  12.740  1.00  0.00     0.005 C 
HETATM    5  C   LIG     1      21.743  34.722  12.759  1.00  0.00     0.005 C 
ENDBRANCH   3   4
ENDBRANCH   1   3
BRANCH   1   6
HETATM    6  O   LIG     1      17.723  32.700  12.989  1.00  0.00    -0.322 OA
BRANCH   6   7
HETATM    7  C   LIG     1      16.435  32.444  13.539  1.00  0.00     0.174 C 
HETATM    8  C   LIG     1      16.544  32.294  15.048  1.00  0.00     0.034 C 
ENDBRANCH   6   7
ENDBRANCH   1   6
TORSDOF 4
ENDMDL
MODEL 19
REMARK VINA RESULT:      -3.8      5.614      6.799
REMARK  4 active torsions:
REMARK  status: ('A' for Active; 'I' for Inactive)
REMARK    1  A    between atoms: C_2  and  C_3 
REMARK    2  A    between atoms: C_3  and  C_4 
REMARK    3  A    between atoms: C_4  and  O_5 
REMARK    4  A    between atoms: O_5  and  C_6 
ROOT
HETATM    1  C   LIG     1      15.357  33.693  20.688  1.00  0.00     0.258 C 
HETATM    2  O   LIG     1      14.457  33.921  21.543  1.00  0.00    -0.265 OA
ENDROOT
BRANCH   1   3
HETATM    3  C   LIG     1      15.321  32.432  19.885  1.00  0.00     0.111 C 
BRANCH   3   4
HETATM    4  C   LIG     1      15.176  32.746  18.393  1.00  0.00     0.005 C 
HETATM    5  C   LIG     1      14.190  31.792  17.723  1.00  0.00     0.005 C 
ENDBRANCH   3   4
ENDBRANCH   1   3
BRANCH   1   6
HETATM    6  O   LIG     1      16.387  34.614  20.478  1.00  0.00    -0.322 OA
BRANCH   6   7
HETATM    7  C   LIG     1      17.126  35.199  21.546  1.00  0.00     0.174 C 
HETATM    8  C   LIG     1      16.833  36.689  21.615  1.00  0.00     0.034 C 
ENDBRANCH   6   7
ENDBRANCH   1   6
TORSDOF 4
ENDMDL
MODEL 20
REMARK VINA RESULT:      -3.7     10.061     11.307
REMARK  4 active torsions:
REMARK  status: ('A' for Active; 'I' for Inactive)
REMARK    1  A    between atoms: C_2  and  C_3 
REMARK    2  A    between atoms: C_3  and  C_4 
REMARK    3  A    between atoms: C_4  and  O_5 
REMARK    4  A    between atoms: O_5  and  C_6 
ROOT
HETATM    1  C   LIG     1      15.566  32.545  16.054  1.00  0.00     0.258 C 
HETATM    2  O   LIG     1      15.867  32.719  17.267  1.00  0.00    -0.265 OA
ENDROOT
BRANCH   1   3
HETATM    3  C   LIG     1      14.672  31.411  15.663  1.00  0.00     0.111 C 
BRANCH   3   4
HETATM    4  C   LIG     1      15.249  30.658  14.461  1.00  0.00     0.005 C 
HETATM    5  C   LIG     1      14.429  29.410  14.148  1.00  0.00     0.005 C 
ENDBRANCH   3   4
ENDBRANCH   1   3
BRANCH   1   6
HETATM    6  O   LIG     1      16.053  33.409  15.070  1.00  0.00    -0.322 OA
BRANCH   6   7
HETATM    7  C   LIG     1      17.439  33.523  14.763  1.00  0.00     0.174 C 
HETATM    8  C   LIG     1      17.643  33.385  13.263  1.00  0.00     0.034 C 
ENDBRANCH   6   7
ENDBRANCH   1   6
TORSDOF 4
ENDMDL
