REMARK  2 active torsions:
REMARK  status: ('A' for Active; 'I' for Inactive)
REMARK    1  A    between atoms: C_2  and  C_3 
REMARK    2  A    between atoms: C_6  and  C_7 
ROOT
HETATM    1  C   LIG     1      -1.394  -0.490  -0.130  1.00  0.00    -0.059 A 
HETATM    2  C   LIG     1      -0.666  -0.741  -1.304  1.00  0.00     0.007 A 
HETATM    3  C   LIG     1       0.732  -0.724  -1.285  1.00  0.00     0.007 A 
HETATM    4  C   LIG     1       1.422  -0.470  -0.090  1.00  0.00    -0.059 A 
HETATM    5  C   LIG     1       0.695  -0.211   1.083  1.00  0.00     0.007 A 
HETATM    6  C   LIG     1      -0.703  -0.228   1.064  1.00  0.00     0.007 A 
ENDROOT
BRANCH   1   7
HETATM    7  C   LIG     1      -2.901  -0.511  -0.146  1.00  0.00     0.034 C 
HETATM    8  C   LIG     1      -3.474   0.891   0.039  1.00  0.00     0.010 C 
ENDBRANCH   1   7
BRANCH   4   9
HETATM    9  C   LIG     1       2.926  -0.419  -0.077  1.00  0.00     0.034 C 
HETATM   10  C   LIG     1       3.421   0.992  -0.374  1.00  0.00     0.010 C 
ENDBRANCH   4   9
TORSDOF 2
