REMARK  6 active torsions:
REMARK  status: ('A' for Active; 'I' for Inactive)
REMARK    1  A    between atoms: C_2  and  C_6 
REMARK    2  A    between atoms: C_2  and  O_3 
REMARK    3  A    between atoms: O_3  and  C_4 
REMARK    4  A    between atoms: C_6  and  C_7 
REMARK    5  A    between atoms: C_7  and  O_8 
REMARK    6  A    between atoms: O_8  and  C_9 
ROOT
HETATM    1  C   LIG     1      -0.203  -1.354   0.924  1.00  0.00     0.222 C 
ENDROOT
BRANCH   1   2
HETATM    2  C   LIG     1       1.202  -1.337   0.415  1.00  0.00     0.268 C 
HETATM    3  O   LIG     1       1.629  -2.301  -0.278  1.00  0.00    -0.265 OA
BRANCH   2   4
HETATM    4  O   LIG     1       2.017  -0.233   0.686  1.00  0.00    -0.321 OA
BRANCH   4   5
HETATM    5  C   LIG     1       3.336  -0.084   0.165  1.00  0.00     0.174 C 
HETATM    6  C   LIG     1       3.291   0.315  -1.306  1.00  0.00     0.034 C 
ENDBRANCH   4   5
ENDBRANCH   2   4
ENDBRANCH   1   2
BRANCH   1   7
HETATM    7  C   LIG     1      -1.085  -0.553   0.021  1.00  0.00     0.268 C 
HETATM    8  O   LIG     1      -1.299  -0.949  -1.157  1.00  0.00    -0.265 OA
BRANCH   7   9
HETATM    9  O   LIG     1      -1.659   0.632   0.494  1.00  0.00    -0.321 OA
BRANCH   9  10
HETATM   10  C   LIG     1      -2.541   1.441  -0.282  1.00  0.00     0.174 C 
HETATM   11  C   LIG     1      -3.926   0.809  -0.356  1.00  0.00     0.034 C 
ENDBRANCH   9  10
ENDBRANCH   7   9
ENDBRANCH   1   7
TORSDOF 6
