REMARK  3 active torsions:
REMARK  status: ('A' for Active; 'I' for Inactive)
REMARK    1  A    between atoms: C_2  and  C_3 
REMARK    2  A    between atoms: C_2  and  O_5 
REMARK    3  A    between atoms: O_5  and  C_6 
ROOT
HETATM    1  O   LIG     1       0.263   1.422   0.546  1.00  0.00    -0.265 OA
HETATM    2  C   LIG     1       0.434   0.420  -0.201  1.00  0.00     0.258 C 
ENDROOT
BRANCH   2   3
HETATM    3  C   LIG     1       1.696   0.293  -0.994  1.00  0.00     0.106 C 
HETATM    4  C   LIG     1       2.749  -0.475  -0.204  1.00  0.00     0.015 C 
ENDBRANCH   2   3
BRANCH   2   5
HETATM    5  O   LIG     1      -0.520  -0.602  -0.260  1.00  0.00    -0.322 OA
BRANCH   5   6
HETATM    6  C   LIG     1      -1.760  -0.559   0.443  1.00  0.00     0.174 C 
HETATM    7  C   LIG     1      -2.736   0.391  -0.243  1.00  0.00     0.034 C 
ENDBRANCH   5   6
ENDBRANCH   2   5
TORSDOF 3
