MODEL 1
REMARK VINA RESULT:      -5.6      0.000      0.000
REMARK  5 active torsions:
REMARK  status: ('A' for Active; 'I' for Inactive)
REMARK    1  A    between atoms: C_2  and  C_3 
REMARK    2  A    between atoms: C_3  and  C_4 
REMARK    3  A    between atoms: C_4  and  O_5 
REMARK    4  A    between atoms: O_5  and  C_6 
REMARK    5  A    between atoms: C_6  and  C_7 
ROOT
HETATM    1  C   LIG     1      16.626  37.571  23.512  1.00  0.00     0.258 C 
HETATM    2  O   LIG     1      15.487  38.054  23.762  1.00  0.00    -0.265 OA
ENDROOT
BRANCH   1   3
HETATM    3  C   LIG     1      17.249  37.790  22.170  1.00  0.00     0.111 C 
BRANCH   3   4
HETATM    4  C   LIG     1      18.216  38.978  22.209  1.00  0.00     0.005 C 
HETATM    5  C   LIG     1      18.754  39.297  20.817  1.00  0.00     0.005 C 
ENDBRANCH   3   4
ENDBRANCH   1   3
BRANCH   1   6
HETATM    6  O   LIG     1      17.320  36.838  24.481  1.00  0.00    -0.322 OA
BRANCH   6   7
HETATM    7  C   LIG     1      17.679  37.366  25.757  1.00  0.00     0.178 C 
BRANCH   7   8
HETATM    8  C   LIG     1      18.408  36.318  26.605  1.00  0.00     0.022 C 
HETATM    9  C   LIG     1      18.029  34.895  26.201  1.00  0.00     0.007 C 
ENDBRANCH   7   8
ENDBRANCH   6   7
ENDBRANCH   1   6
TORSDOF 5
ENDMDL
MODEL 2
REMARK VINA RESULT:      -5.5      1.381      4.134
REMARK  5 active torsions:
REMARK  status: ('A' for Active; 'I' for Inactive)
REMARK    1  A    between atoms: C_2  and  C_3 
REMARK    2  A    between atoms: C_3  and  C_4 
REMARK    3  A    between atoms: C_4  and  O_5 
REMARK    4  A    between atoms: O_5  and  C_6 
REMARK    5  A    between atoms: C_6  and  C_7 
ROOT
HETATM    1  C   LIG     1      17.339  37.822  25.189  1.00  0.00     0.258 C 
HETATM    2  O   LIG     1      16.912  38.799  25.863  1.00  0.00    -0.265 OA
ENDROOT
BRANCH   1   3
HETATM    3  C   LIG     1      18.585  37.113  25.614  1.00  0.00     0.111 C 
BRANCH   3   4
HETATM    4  C   LIG     1      18.286  36.116  26.739  1.00  0.00     0.005 C 
HETATM    5  C   LIG     1      17.769  34.794  26.181  1.00  0.00     0.005 C 
ENDBRANCH   3   4
ENDBRANCH   1   3
BRANCH   1   6
HETATM    6  O   LIG     1      16.654  37.384  24.050  1.00  0.00    -0.322 OA
BRANCH   6   7
HETATM    7  C   LIG     1      17.020  37.754  22.721  1.00  0.00     0.178 C 
BRANCH   7   8
HETATM    8  C   LIG     1      17.008  36.540  21.785  1.00  0.00     0.022 C 
HETATM    9  C   LIG     1      16.910  35.227  22.558  1.00  0.00     0.007 C 
ENDBRANCH   7   8
ENDBRANCH   6   7
ENDBRANCH   1   6
TORSDOF 5
ENDMDL
MODEL 3
REMARK VINA RESULT:      -5.4      0.845      4.509
REMARK  5 active torsions:
REMARK  status: ('A' for Active; 'I' for Inactive)
REMARK    1  A    between atoms: C_2  and  C_3 
REMARK    2  A    between atoms: C_3  and  C_4 
REMARK    3  A    between atoms: C_4  and  O_5 
REMARK    4  A    between atoms: O_5  and  C_6 
REMARK    5  A    between atoms: C_6  and  C_7 
ROOT
HETATM    1  C   LIG     1      16.957  37.826  24.329  1.00  0.00     0.258 C 
HETATM    2  O   LIG     1      15.723  37.881  24.075  1.00  0.00    -0.265 OA
ENDROOT
BRANCH   1   3
HETATM    3  C   LIG     1      17.425  37.797  25.749  1.00  0.00     0.111 C 
BRANCH   3   4
HETATM    4  C   LIG     1      18.430  36.661  25.966  1.00  0.00     0.005 C 
HETATM    5  C   LIG     1      17.742  35.300  25.925  1.00  0.00     0.005 C 
ENDBRANCH   3   4
ENDBRANCH   1   3
BRANCH   1   6
HETATM    6  O   LIG     1      17.898  37.780  23.294  1.00  0.00    -0.322 OA
BRANCH   6   7
HETATM    7  C   LIG     1      17.628  38.223  21.965  1.00  0.00     0.178 C 
BRANCH   7   8
HETATM    8  C   LIG     1      18.524  39.405  21.581  1.00  0.00     0.022 C 
HETATM    9  C   LIG     1      19.354  39.108  20.334  1.00  0.00     0.007 C 
ENDBRANCH   7   8
ENDBRANCH   6   7
ENDBRANCH   1   6
TORSDOF 5
ENDMDL
MODEL 4
REMARK VINA RESULT:      -5.3      1.510      2.241
REMARK  5 active torsions:
REMARK  status: ('A' for Active; 'I' for Inactive)
REMARK    1  A    between atoms: C_2  and  C_3 
REMARK    2  A    between atoms: C_3  and  C_4 
REMARK    3  A    between atoms: C_4  and  O_5 
REMARK    4  A    between atoms: O_5  and  C_6 
REMARK    5  A    between atoms: C_6  and  C_7 
ROOT
HETATM    1  C   LIG     1      16.814  37.760  23.477  1.00  0.00     0.258 C 
HETATM    2  O   LIG     1      16.729  39.019  23.448  1.00  0.00    -0.265 OA
ENDROOT
BRANCH   1   3
HETATM    3  C   LIG     1      16.911  36.990  22.199  1.00  0.00     0.111 C 
BRANCH   3   4
HETATM    4  C   LIG     1      16.875  35.482  22.470  1.00  0.00     0.005 C 
HETATM    5  C   LIG     1      16.288  34.723  21.284  1.00  0.00     0.005 C 
ENDBRANCH   3   4
ENDBRANCH   1   3
BRANCH   1   6
HETATM    6  O   LIG     1      16.830  37.073  24.697  1.00  0.00    -0.322 OA
BRANCH   6   7
HETATM    7  C   LIG     1      17.611  37.482  25.819  1.00  0.00     0.178 C 
BRANCH   7   8
HETATM    8  C   LIG     1      18.418  36.310  26.389  1.00  0.00     0.022 C 
HETATM    9  C   LIG     1      17.760  34.966  26.087  1.00  0.00     0.007 C 
ENDBRANCH   7   8
ENDBRANCH   6   7
ENDBRANCH   1   6
TORSDOF 5
ENDMDL
MODEL 5
REMARK VINA RESULT:      -4.8      2.584      4.624
REMARK  5 active torsions:
REMARK  status: ('A' for Active; 'I' for Inactive)
REMARK    1  A    between atoms: C_2  and  C_3 
REMARK    2  A    between atoms: C_3  and  C_4 
REMARK    3  A    between atoms: C_4  and  O_5 
REMARK    4  A    between atoms: O_5  and  C_6 
REMARK    5  A    between atoms: C_6  and  C_7 
ROOT
HETATM    1  C   LIG     1      17.375  38.391  22.598  1.00  0.00     0.258 C 
HETATM    2  O   LIG     1      18.094  38.444  23.633  1.00  0.00    -0.265 OA
ENDROOT
BRANCH   1   3
HETATM    3  C   LIG     1      16.104  37.604  22.614  1.00  0.00     0.111 C 
BRANCH   3   4
HETATM    4  C   LIG     1      16.234  36.346  21.748  1.00  0.00     0.005 C 
HETATM    5  C   LIG     1      16.952  35.231  22.502  1.00  0.00     0.005 C 
ENDBRANCH   3   4
ENDBRANCH   1   3
BRANCH   1   6
HETATM    6  O   LIG     1      17.748  39.072  21.433  1.00  0.00    -0.322 OA
BRANCH   6   7
HETATM    7  C   LIG     1      19.076  39.066  20.910  1.00  0.00     0.178 C 
BRANCH   7   8
HETATM    8  C   LIG     1      19.115  38.461  19.503  1.00  0.00     0.022 C 
HETATM    9  C   LIG     1      19.178  36.936  19.542  1.00  0.00     0.007 C 
ENDBRANCH   7   8
ENDBRANCH   6   7
ENDBRANCH   1   6
TORSDOF 5
ENDMDL
MODEL 6
REMARK VINA RESULT:      -4.7      2.495      3.285
REMARK  5 active torsions:
REMARK  status: ('A' for Active; 'I' for Inactive)
REMARK    1  A    between atoms: C_2  and  C_3 
REMARK    2  A    between atoms: C_3  and  C_4 
REMARK    3  A    between atoms: C_4  and  O_5 
REMARK    4  A    between atoms: O_5  and  C_6 
REMARK    5  A    between atoms: C_6  and  C_7 
ROOT
HETATM    1  C   LIG     1      17.062  36.702  22.162  1.00  0.00     0.258 C 
HETATM    2  O   LIG     1      17.553  37.238  21.131  1.00  0.00    -0.265 OA
ENDROOT
BRANCH   1   3
HETATM    3  C   LIG     1      16.896  35.217  22.221  1.00  0.00     0.111 C 
BRANCH   3   4
HETATM    4  C   LIG     1      15.547  34.797  21.625  1.00  0.00     0.005 C 
HETATM    5  C   LIG     1      15.738  33.978  20.353  1.00  0.00     0.005 C 
ENDBRANCH   3   4
ENDBRANCH   1   3
BRANCH   1   6
HETATM    6  O   LIG     1      16.680  37.481  23.260  1.00  0.00    -0.322 OA
BRANCH   6   7
HETATM    7  C   LIG     1      17.610  38.127  24.127  1.00  0.00     0.178 C 
BRANCH   7   8
HETATM    8  C   LIG     1      17.384  37.719  25.587  1.00  0.00     0.022 C 
HETATM    9  C   LIG     1      18.450  36.742  26.076  1.00  0.00     0.007 C 
ENDBRANCH   7   8
ENDBRANCH   6   7
ENDBRANCH   1   6
TORSDOF 5
ENDMDL
MODEL 7
REMARK VINA RESULT:      -4.7      2.960      5.105
REMARK  5 active torsions:
REMARK  status: ('A' for Active; 'I' for Inactive)
REMARK    1  A    between atoms: C_2  and  C_3 
REMARK    2  A    between atoms: C_3  and  C_4 
REMARK    3  A    between atoms: C_4  and  O_5 
REMARK    4  A    between atoms: O_5  and  C_6 
REMARK    5  A    between atoms: C_6  and  C_7 
ROOT
HETATM    1  C   LIG     1      17.229  35.949  20.802  1.00  0.00     0.258 C 
HETATM    2  O   LIG     1      16.635  35.436  19.813  1.00  0.00    -0.265 OA
ENDROOT
BRANCH   1   3
HETATM    3  C   LIG     1      16.803  35.594  22.191  1.00  0.00     0.111 C 
BRANCH   3   4
HETATM    4  C   LIG     1      16.891  36.814  23.114  1.00  0.00     0.005 C 
HETATM    5  C   LIG     1      15.745  37.787  22.852  1.00  0.00     0.005 C 
ENDBRANCH   3   4
ENDBRANCH   1   3
BRANCH   1   6
HETATM    6  O   LIG     1      18.292  36.840  20.615  1.00  0.00    -0.322 OA
BRANCH   6   7
HETATM    7  C   LIG     1      18.869  37.118  19.340  1.00  0.00     0.178 C 
BRANCH   7   8
HETATM    8  C   LIG     1      19.208  38.606  19.199  1.00  0.00     0.022 C 
HETATM    9  C   LIG     1      18.972  39.369  20.500  1.00  0.00     0.007 C 
ENDBRANCH   7   8
ENDBRANCH   6   7
ENDBRANCH   1   6
TORSDOF 5
ENDMDL
MODEL 8
REMARK VINA RESULT:      -4.6      3.248      5.216
REMARK  5 active torsions:
REMARK  status: ('A' for Active; 'I' for Inactive)
REMARK    1  A    between atoms: C_2  and  C_3 
REMARK    2  A    between atoms: C_3  and  C_4 
REMARK    3  A    between atoms: C_4  and  O_5 
REMARK    4  A    between atoms: O_5  and  C_6 
REMARK    5  A    between atoms: C_6  and  C_7 
ROOT
HETATM    1  C   LIG     1      17.426  36.459  21.000  1.00  0.00     0.258 C 
HETATM    2  O   LIG     1      17.915  36.204  19.865  1.00  0.00    -0.265 OA
ENDROOT
BRANCH   1   3
HETATM    3  C   LIG     1      16.911  35.347  21.856  1.00  0.00     0.111 C 
BRANCH   3   4
HETATM    4  C   LIG     1      15.513  34.914  21.399  1.00  0.00     0.005 C 
HETATM    5  C   LIG     1      15.584  33.684  20.499  1.00  0.00     0.005 C 
ENDBRANCH   3   4
ENDBRANCH   1   3
BRANCH   1   6
HETATM    6  O   LIG     1      17.371  37.775  21.474  1.00  0.00    -0.322 OA
BRANCH   6   7
HETATM    7  C   LIG     1      18.524  38.594  21.658  1.00  0.00     0.178 C 
BRANCH   7   8
HETATM    8  C   LIG     1      18.838  39.402  20.394  1.00  0.00     0.022 C 
HETATM    9  C   LIG     1      20.107  38.909  19.705  1.00  0.00     0.007 C 
ENDBRANCH   7   8
ENDBRANCH   6   7
ENDBRANCH   1   6
TORSDOF 5
ENDMDL
MODEL 9
REMARK VINA RESULT:      -4.6      8.576      9.471
REMARK  5 active torsions:
REMARK  status: ('A' for Active; 'I' for Inactive)
REMARK    1  A    between atoms: C_2  and  C_3 
REMARK    2  A    between atoms: C_3  and  C_4 
REMARK    3  A    between atoms: C_4  and  O_5 
REMARK    4  A    between atoms: O_5  and  C_6 
REMARK    5  A    between atoms: C_6  and  C_7 
ROOT
HETATM    1  C   LIG     1      15.637  33.350  16.146  1.00  0.00     0.258 C 
HETATM    2  O   LIG     1      16.037  34.546  16.213  1.00  0.00    -0.265 OA
ENDROOT
BRANCH   1   3
HETATM    3  C   LIG     1      16.488  32.318  15.478  1.00  0.00     0.111 C 
BRANCH   3   4
HETATM    4  C   LIG     1      15.908  31.939  14.111  1.00  0.00     0.005 C 
HETATM    5  C   LIG     1      15.247  30.565  14.154  1.00  0.00     0.005 C 
ENDBRANCH   3   4
ENDBRANCH   1   3
BRANCH   1   6
HETATM    6  O   LIG     1      14.409  32.975  16.702  1.00  0.00    -0.322 OA
BRANCH   6   7
HETATM    7  C   LIG     1      14.273  31.966  17.701  1.00  0.00     0.178 C 
BRANCH   7   8
HETATM    8  C   LIG     1      15.123  32.289  18.935  1.00  0.00     0.022 C 
HETATM    9  C   LIG     1      14.874  31.300  20.071  1.00  0.00     0.007 C 
ENDBRANCH   7   8
ENDBRANCH   6   7
ENDBRANCH   1   6
TORSDOF 5
ENDMDL
MODEL 10
REMARK VINA RESULT:      -4.6      9.200     10.670
REMARK  5 active torsions:
REMARK  status: ('A' for Active; 'I' for Inactive)
REMARK    1  A    between atoms: C_2  and  C_3 
REMARK    2  A    between atoms: C_3  and  C_4 
REMARK    3  A    between atoms: C_4  and  O_5 
REMARK    4  A    between atoms: O_5  and  C_6 
REMARK    5  A    between atoms: C_6  and  C_7 
ROOT
HETATM    1  C   LIG     1      15.301  33.487  16.733  1.00  0.00     0.258 C 
HETATM    2  O   LIG     1      15.431  34.561  17.383  1.00  0.00    -0.265 OA
ENDROOT
BRANCH   1   3
HETATM    3  C   LIG     1      14.627  32.311  17.365  1.00  0.00     0.111 C 
BRANCH   3   4
HETATM    4  C   LIG     1      13.201  32.150  16.829  1.00  0.00     0.005 C 
HETATM    5  C   LIG     1      12.965  30.736  16.305  1.00  0.00     0.005 C 
ENDBRANCH   3   4
ENDBRANCH   1   3
BRANCH   1   6
HETATM    6  O   LIG     1      15.771  33.386  15.419  1.00  0.00    -0.322 OA
BRANCH   6   7
HETATM    7  C   LIG     1      16.459  32.242  14.916  1.00  0.00     0.178 C 
BRANCH   7   8
HETATM    8  C   LIG     1      15.768  31.683  13.668  1.00  0.00     0.022 C 
HETATM    9  C   LIG     1      15.410  30.207  13.829  1.00  0.00     0.007 C 
ENDBRANCH   7   8
ENDBRANCH   6   7
ENDBRANCH   1   6
TORSDOF 5
ENDMDL
MODEL 11
REMARK VINA RESULT:      -4.6      3.816      4.622
REMARK  5 active torsions:
REMARK  status: ('A' for Active; 'I' for Inactive)
REMARK    1  A    between atoms: C_2  and  C_3 
REMARK    2  A    between atoms: C_3  and  C_4 
REMARK    3  A    between atoms: C_4  and  O_5 
REMARK    4  A    between atoms: O_5  and  C_6 
REMARK    5  A    between atoms: C_6  and  C_7 
ROOT
HETATM    1  C   LIG     1      18.943  36.811  19.510  1.00  0.00     0.258 C 
HETATM    2  O   LIG     1      20.025  36.164  19.454  1.00  0.00    -0.265 OA
ENDROOT
BRANCH   1   3
HETATM    3  C   LIG     1      18.928  38.266  19.164  1.00  0.00     0.111 C 
BRANCH   3   4
HETATM    4  C   LIG     1      19.658  39.085  20.235  1.00  0.00     0.005 C 
HETATM    5  C   LIG     1      18.703  39.517  21.344  1.00  0.00     0.005 C 
ENDBRANCH   3   4
ENDBRANCH   1   3
BRANCH   1   6
HETATM    6  O   LIG     1      17.751  36.180  19.881  1.00  0.00    -0.322 OA
BRANCH   6   7
HETATM    7  C   LIG     1      17.155  36.321  21.170  1.00  0.00     0.178 C 
BRANCH   7   8
HETATM    8  C   LIG     1      16.656  34.972  21.701  1.00  0.00     0.022 C 
HETATM    9  C   LIG     1      15.866  34.203  20.645  1.00  0.00     0.007 C 
ENDBRANCH   7   8
ENDBRANCH   6   7
ENDBRANCH   1   6
TORSDOF 5
ENDMDL
MODEL 12
REMARK VINA RESULT:      -4.5      8.693     10.187
REMARK  5 active torsions:
REMARK  status: ('A' for Active; 'I' for Inactive)
REMARK    1  A    between atoms: C_2  and  C_3 
REMARK    2  A    between atoms: C_3  and  C_4 
REMARK    3  A    between atoms: C_4  and  O_5 
REMARK    4  A    between atoms: O_5  and  C_6 
REMARK    5  A    between atoms: C_6  and  C_7 
ROOT
HETATM    1  C   LIG     1      15.210  33.392  16.780  1.00  0.00     0.258 C 
HETATM    2  O   LIG     1      15.419  34.554  17.226  1.00  0.00    -0.265 OA
ENDROOT
BRANCH   1   3
HETATM    3  C   LIG     1      14.674  32.331  17.688  1.00  0.00     0.111 C 
BRANCH   3   4
HETATM    4  C   LIG     1      15.413  32.343  19.031  1.00  0.00     0.005 C 
HETATM    5  C   LIG     1      14.787  31.357  20.012  1.00  0.00     0.005 C 
ENDBRANCH   3   4
ENDBRANCH   1   3
BRANCH   1   6
HETATM    6  O   LIG     1      15.464  33.085  15.438  1.00  0.00    -0.322 OA
BRANCH   6   7
HETATM    7  C   LIG     1      16.278  31.989  15.023  1.00  0.00     0.178 C 
BRANCH   7   8
HETATM    8  C   LIG     1      15.636  31.234  13.853  1.00  0.00     0.022 C 
HETATM    9  C   LIG     1      14.701  30.128  14.334  1.00  0.00     0.007 C 
ENDBRANCH   7   8
ENDBRANCH   6   7
ENDBRANCH   1   6
TORSDOF 5
ENDMDL
MODEL 13
REMARK VINA RESULT:      -4.5      9.879     11.031
REMARK  5 active torsions:
REMARK  status: ('A' for Active; 'I' for Inactive)
REMARK    1  A    between atoms: C_2  and  C_3 
REMARK    2  A    between atoms: C_3  and  C_4 
REMARK    3  A    between atoms: C_4  and  O_5 
REMARK    4  A    between atoms: O_5  and  C_6 
REMARK    5  A    between atoms: C_6  and  C_7 
ROOT
HETATM    1  C   LIG     1      16.181  32.163  14.902  1.00  0.00     0.258 C 
HETATM    2  O   LIG     1      17.418  32.092  15.140  1.00  0.00    -0.265 OA
ENDROOT
BRANCH   1   3
HETATM    3  C   LIG     1      15.587  31.348  13.799  1.00  0.00     0.111 C 
BRANCH   3   4
HETATM    4  C   LIG     1      15.395  29.893  14.241  1.00  0.00     0.005 C 
HETATM    5  C   LIG     1      13.916  29.520  14.282  1.00  0.00     0.005 C 
ENDBRANCH   3   4
ENDBRANCH   1   3
BRANCH   1   6
HETATM    6  O   LIG     1      15.353  32.990  15.669  1.00  0.00    -0.322 OA
BRANCH   6   7
HETATM    7  C   LIG     1      15.170  32.833  17.076  1.00  0.00     0.178 C 
BRANCH   7   8
HETATM    8  C   LIG     1      14.164  31.719  17.383  1.00  0.00     0.022 C 
HETATM    9  C   LIG     1      12.805  31.986  16.741  1.00  0.00     0.007 C 
ENDBRANCH   7   8
ENDBRANCH   6   7
ENDBRANCH   1   6
TORSDOF 5
ENDMDL
MODEL 14
REMARK VINA RESULT:      -4.4      9.203     10.311
REMARK  5 active torsions:
REMARK  status: ('A' for Active; 'I' for Inactive)
REMARK    1  A    between atoms: C_2  and  C_3 
REMARK    2  A    between atoms: C_3  and  C_4 
REMARK    3  A    between atoms: C_4  and  O_5 
REMARK    4  A    between atoms: O_5  and  C_6 
REMARK    5  A    between atoms: C_6  and  C_7 
ROOT
HETATM    1  C   LIG     1      15.597  33.345  16.192  1.00  0.00     0.258 C 
HETATM    2  O   LIG     1      15.994  34.530  16.369  1.00  0.00    -0.265 OA
ENDROOT
BRANCH   1   3
HETATM    3  C   LIG     1      16.497  32.350  15.532  1.00  0.00     0.111 C 
BRANCH   3   4
HETATM    4  C   LIG     1      16.315  32.379  14.011  1.00  0.00     0.005 C 
HETATM    5  C   LIG     1      17.362  33.267  13.347  1.00  0.00     0.005 C 
ENDBRANCH   3   4
ENDBRANCH   1   3
BRANCH   1   6
HETATM    6  O   LIG     1      14.325  32.946  16.618  1.00  0.00    -0.322 OA
BRANCH   6   7
HETATM    7  C   LIG     1      14.044  31.654  17.153  1.00  0.00     0.178 C 
BRANCH   7   8
HETATM    8  C   LIG     1      12.934  30.954  16.362  1.00  0.00     0.022 C 
HETATM    9  C   LIG     1      13.483  30.214  15.145  1.00  0.00     0.007 C 
ENDBRANCH   7   8
ENDBRANCH   6   7
ENDBRANCH   1   6
TORSDOF 5
ENDMDL
MODEL 15
REMARK VINA RESULT:      -4.4      2.637      4.434
REMARK  5 active torsions:
REMARK  status: ('A' for Active; 'I' for Inactive)
REMARK    1  A    between atoms: C_2  and  C_3 
REMARK    2  A    between atoms: C_3  and  C_4 
REMARK    3  A    between atoms: C_4  and  O_5 
REMARK    4  A    between atoms: O_5  and  C_6 
REMARK    5  A    between atoms: C_6  and  C_7 
ROOT
HETATM    1  C   LIG     1      16.311  37.179  22.958  1.00  0.00     0.258 C 
HETATM    2  O   LIG     1      15.668  38.219  23.270  1.00  0.00    -0.265 OA
ENDROOT
BRANCH   1   3
HETATM    3  C   LIG     1      17.314  36.610  23.910  1.00  0.00     0.111 C 
BRANCH   3   4
HETATM    4  C   LIG     1      17.353  37.425  25.208  1.00  0.00     0.005 C 
HETATM    5  C   LIG     1      18.156  36.704  26.287  1.00  0.00     0.005 C 
ENDBRANCH   3   4
ENDBRANCH   1   3
BRANCH   1   6
HETATM    6  O   LIG     1      16.088  36.541  21.732  1.00  0.00    -0.322 OA
BRANCH   6   7
HETATM    7  C   LIG     1      16.466  35.191  21.468  1.00  0.00     0.178 C 
BRANCH   7   8
HETATM    8  C   LIG     1      15.237  34.311  21.214  1.00  0.00     0.022 C 
HETATM    9  C   LIG     1      15.511  33.243  20.158  1.00  0.00     0.007 C 
ENDBRANCH   7   8
ENDBRANCH   6   7
ENDBRANCH   1   6
TORSDOF 5
ENDMDL
MODEL 16
REMARK VINA RESULT:      -4.4      7.571      8.491
REMARK  5 active torsions:
REMARK  status: ('A' for Active; 'I' for Inactive)
REMARK    1  A    between atoms: C_2  and  C_3 
REMARK    2  A    between atoms: C_3  and  C_4 
REMARK    3  A    between atoms: C_4  and  O_5 
REMARK    4  A    between atoms: O_5  and  C_6 
REMARK    5  A    between atoms: C_6  and  C_7 
ROOT
HETATM    1  C   LIG     1      14.798  33.219  17.180  1.00  0.00     0.258 C 
HETATM    2  O   LIG     1      15.109  34.290  16.589  1.00  0.00    -0.265 OA
ENDROOT
BRANCH   1   3
HETATM    3  C   LIG     1      13.528  32.515  16.824  1.00  0.00     0.111 C 
BRANCH   3   4
HETATM    4  C   LIG     1      13.767  31.009  16.670  1.00  0.00     0.005 C 
HETATM    5  C   LIG     1      14.273  30.671  15.271  1.00  0.00     0.005 C 
ENDBRANCH   3   4
ENDBRANCH   1   3
BRANCH   1   6
HETATM    6  O   LIG     1      15.635  32.674  18.160  1.00  0.00    -0.322 OA
BRANCH   6   7
HETATM    7  C   LIG     1      15.363  32.753  19.559  1.00  0.00     0.178 C 
BRANCH   7   8
HETATM    8  C   LIG     1      15.745  34.126  20.122  1.00  0.00     0.022 C 
HETATM    9  C   LIG     1      15.006  34.433  21.422  1.00  0.00     0.007 C 
ENDBRANCH   7   8
ENDBRANCH   6   7
ENDBRANCH   1   6
TORSDOF 5
ENDMDL
MODEL 17
REMARK VINA RESULT:      -4.3      6.312      7.292
REMARK  5 active torsions:
REMARK  status: ('A' for Active; 'I' for Inactive)
REMARK    1  A    between atoms: C_2  and  C_3 
REMARK    2  A    between atoms: C_3  and  C_4 
REMARK    3  A    between atoms: C_4  and  O_5 
REMARK    4  A    between atoms: O_5  and  C_6 
REMARK    5  A    between atoms: C_6  and  C_7 
ROOT
HETATM    1  C   LIG     1      15.302  32.600  19.347  1.00  0.00     0.258 C 
HETATM    2  O   LIG     1      15.001  31.613  20.073  1.00  0.00    -0.265 OA
ENDROOT
BRANCH   1   3
HETATM    3  C   LIG     1      15.017  32.558  17.879  1.00  0.00     0.111 C 
BRANCH   3   4
HETATM    4  C   LIG     1      14.048  31.418  17.547  1.00  0.00     0.005 C 
HETATM    5  C   LIG     1      12.858  31.925  16.738  1.00  0.00     0.005 C 
ENDBRANCH   3   4
ENDBRANCH   1   3
BRANCH   1   6
HETATM    6  O   LIG     1      15.890  33.743  19.901  1.00  0.00    -0.322 OA
BRANCH   6   7
HETATM    7  C   LIG     1      15.466  34.328  21.130  1.00  0.00     0.178 C 
BRANCH   7   8
HETATM    8  C   LIG     1      16.610  35.093  21.804  1.00  0.00     0.022 C 
HETATM    9  C   LIG     1      17.328  36.020  20.826  1.00  0.00     0.007 C 
ENDBRANCH   7   8
ENDBRANCH   6   7
ENDBRANCH   1   6
TORSDOF 5
ENDMDL
MODEL 18
REMARK VINA RESULT:      -4.1     10.525     11.949
REMARK  5 active torsions:
REMARK  status: ('A' for Active; 'I' for Inactive)
REMARK    1  A    between atoms: C_2  and  C_3 
REMARK    2  A    between atoms: C_3  and  C_4 
REMARK    3  A    between atoms: C_4  and  O_5 
REMARK    4  A    between atoms: O_5  and  C_6 
REMARK    5  A    between atoms: C_6  and  C_7 
ROOT
HETATM    1  C   LIG     1      17.689  33.931  14.045  1.00  0.00     0.258 C 
HETATM    2  O   LIG     1      17.328  34.486  15.119  1.00  0.00    -0.265 OA
ENDROOT
BRANCH   1   3
HETATM    3  C   LIG     1      16.873  32.817  13.472  1.00  0.00     0.111 C 
BRANCH   3   4
HETATM    4  C   LIG     1      16.090  32.095  14.574  1.00  0.00     0.005 C 
HETATM    5  C   LIG     1      15.353  30.879  14.021  1.00  0.00     0.005 C 
ENDBRANCH   3   4
ENDBRANCH   1   3
BRANCH   1   6
HETATM    6  O   LIG     1      18.842  34.354  13.375  1.00  0.00    -0.322 OA
BRANCH   6   7
HETATM    7  C   LIG     1      19.429  33.637  12.290  1.00  0.00     0.178 C 
BRANCH   7   8
HETATM    8  C   LIG     1      20.681  34.349  11.766  1.00  0.00     0.022 C 
HETATM    9  C   LIG     1      21.715  34.565  12.869  1.00  0.00     0.007 C 
ENDBRANCH   7   8
ENDBRANCH   6   7
ENDBRANCH   1   6
TORSDOF 5
ENDMDL
MODEL 19
REMARK VINA RESULT:      -4.0     10.715     11.594
REMARK  5 active torsions:
REMARK  status: ('A' for Active; 'I' for Inactive)
REMARK    1  A    between atoms: C_2  and  C_3 
REMARK    2  A    between atoms: C_3  and  C_4 
REMARK    3  A    between atoms: C_4  and  O_5 
REMARK    4  A    between atoms: O_5  and  C_6 
REMARK    5  A    between atoms: C_6  and  C_7 
ROOT
HETATM    1  C   LIG     1      17.953  33.600  12.901  1.00  0.00     0.258 C 
HETATM    2  O   LIG     1      17.599  34.802  13.053  1.00  0.00    -0.265 OA
ENDROOT
BRANCH   1   3
HETATM    3  C   LIG     1      19.069  33.266  11.962  1.00  0.00     0.111 C 
BRANCH   3   4
HETATM    4  C   LIG     1      20.143  34.358  11.986  1.00  0.00     0.005 C 
HETATM    5  C   LIG     1      21.375  33.903  12.761  1.00  0.00     0.005 C 
ENDBRANCH   3   4
ENDBRANCH   1   3
BRANCH   1   6
HETATM    6  O   LIG     1      17.321  32.573  13.611  1.00  0.00    -0.322 OA
BRANCH   6   7
HETATM    7  C   LIG     1      17.019  32.651  15.003  1.00  0.00     0.178 C 
BRANCH   7   8
HETATM    8  C   LIG     1      15.649  32.035  15.308  1.00  0.00     0.022 C 
HETATM    9  C   LIG     1      15.331  30.867  14.378  1.00  0.00     0.007 C 
ENDBRANCH   7   8
ENDBRANCH   6   7
ENDBRANCH   1   6
TORSDOF 5
ENDMDL
MODEL 20
REMARK VINA RESULT:      -4.0      9.479     10.556
REMARK  5 active torsions:
REMARK  status: ('A' for Active; 'I' for Inactive)
REMARK    1  A    between atoms: C_2  and  C_3 
REMARK    2  A    between atoms: C_3  and  C_4 
REMARK    3  A    between atoms: C_4  and  O_5 
REMARK    4  A    between atoms: O_5  and  C_6 
REMARK    5  A    between atoms: C_6  and  C_7 
ROOT
HETATM    1  C   LIG     1      16.508  32.453  14.782  1.00  0.00     0.258 C 
HETATM    2  O   LIG     1      16.434  31.314  14.244  1.00  0.00    -0.265 OA
ENDROOT
BRANCH   1   3
HETATM    3  C   LIG     1      17.746  33.275  14.617  1.00  0.00     0.111 C 
BRANCH   3   4
HETATM    4  C   LIG     1      17.972  33.626  13.143  1.00  0.00     0.005 C 
HETATM    5  C   LIG     1      19.457  33.800  12.839  1.00  0.00     0.005 C 
ENDBRANCH   3   4
ENDBRANCH   1   3
BRANCH   1   6
HETATM    6  O   LIG     1      15.437  32.963  15.525  1.00  0.00    -0.322 OA
BRANCH   6   7
HETATM    7  C   LIG     1      15.134  32.547  16.855  1.00  0.00     0.178 C 
BRANCH   7   8
HETATM    8  C   LIG     1      13.686  32.055  16.967  1.00  0.00     0.022 C 
HETATM    9  C   LIG     1      13.439  30.817  16.108  1.00  0.00     0.007 C 
ENDBRANCH   7   8
ENDBRANCH   6   7
ENDBRANCH   1   6
TORSDOF 5
ENDMDL
