MODEL 1
REMARK VINA RESULT:      -4.6      0.000      0.000
REMARK  3 active torsions:
REMARK  status: ('A' for Active; 'I' for Inactive)
REMARK    1  A    between atoms: C_2  and  C_3 
REMARK    2  A    between atoms: C_2  and  O_5 
REMARK    3  A    between atoms: O_5  and  C_6 
ROOT
HETATM    1  O   LIG     1      17.109  38.530  25.521  1.00  0.00    -0.265 OA
HETATM    2  C   LIG     1      17.519  37.369  25.248  1.00  0.00     0.258 C 
ENDROOT
BRANCH   2   3
HETATM    3  C   LIG     1      18.398  36.645  26.218  1.00  0.00     0.106 C 
HETATM    4  C   LIG     1      18.072  35.156  26.227  1.00  0.00     0.015 C 
ENDBRANCH   2   3
BRANCH   2   5
HETATM    5  O   LIG     1      17.122  36.727  24.070  1.00  0.00    -0.322 OA
BRANCH   5   6
HETATM    6  C   LIG     1      16.455  37.393  23.000  1.00  0.00     0.174 C 
HETATM    7  C   LIG     1      17.464  38.006  22.034  1.00  0.00     0.034 C 
ENDBRANCH   5   6
ENDBRANCH   2   5
TORSDOF 3
ENDMDL
MODEL 2
REMARK VINA RESULT:      -4.5      1.138      3.492
REMARK  3 active torsions:
REMARK  status: ('A' for Active; 'I' for Inactive)
REMARK    1  A    between atoms: C_2  and  C_3 
REMARK    2  A    between atoms: C_2  and  O_5 
REMARK    3  A    between atoms: O_5  and  C_6 
ROOT
HETATM    1  O   LIG     1      15.913  37.898  24.222  1.00  0.00    -0.265 OA
HETATM    2  C   LIG     1      17.111  37.963  24.612  1.00  0.00     0.258 C 
ENDROOT
BRANCH   2   3
HETATM    3  C   LIG     1      18.181  38.386  23.655  1.00  0.00     0.106 C 
HETATM    4  C   LIG     1      17.572  38.799  22.321  1.00  0.00     0.015 C 
ENDBRANCH   2   3
BRANCH   2   5
HETATM    5  O   LIG     1      17.448  37.692  25.943  1.00  0.00    -0.322 OA
BRANCH   5   6
HETATM    6  C   LIG     1      18.336  36.646  26.330  1.00  0.00     0.174 C 
HETATM    7  C   LIG     1      17.767  35.285  25.943  1.00  0.00     0.034 C 
ENDBRANCH   5   6
ENDBRANCH   2   5
TORSDOF 3
ENDMDL
MODEL 3
REMARK VINA RESULT:      -4.4      1.298      3.286
REMARK  3 active torsions:
REMARK  status: ('A' for Active; 'I' for Inactive)
REMARK    1  A    between atoms: C_2  and  C_3 
REMARK    2  A    between atoms: C_2  and  O_5 
REMARK    3  A    between atoms: O_5  and  C_6 
ROOT
HETATM    1  O   LIG     1      16.062  38.045  24.419  1.00  0.00    -0.265 OA
HETATM    2  C   LIG     1      16.956  37.249  24.021  1.00  0.00     0.258 C 
ENDROOT
BRANCH   2   3
HETATM    3  C   LIG     1      16.892  36.696  22.632  1.00  0.00     0.106 C 
HETATM    4  C   LIG     1      16.967  35.174  22.659  1.00  0.00     0.015 C 
ENDBRANCH   2   3
BRANCH   2   5
HETATM    5  O   LIG     1      18.038  36.915  24.844  1.00  0.00    -0.322 OA
BRANCH   5   6
HETATM    6  C   LIG     1      17.889  36.436  26.178  1.00  0.00     0.174 C 
HETATM    7  C   LIG     1      18.126  34.930  26.240  1.00  0.00     0.034 C 
ENDBRANCH   5   6
ENDBRANCH   2   5
TORSDOF 3
ENDMDL
MODEL 4
REMARK VINA RESULT:      -4.2      1.584      2.038
REMARK  3 active torsions:
REMARK  status: ('A' for Active; 'I' for Inactive)
REMARK    1  A    between atoms: C_2  and  C_3 
REMARK    2  A    between atoms: C_2  and  O_5 
REMARK    3  A    between atoms: O_5  and  C_6 
ROOT
HETATM    1  O   LIG     1      15.788  38.088  24.156  1.00  0.00    -0.265 OA
HETATM    2  C   LIG     1      16.972  37.910  23.757  1.00  0.00     0.258 C 
ENDROOT
BRANCH   2   3
HETATM    3  C   LIG     1      18.105  38.011  24.729  1.00  0.00     0.106 C 
HETATM    4  C   LIG     1      17.900  37.045  25.890  1.00  0.00     0.015 C 
ENDBRANCH   2   3
BRANCH   2   5
HETATM    5  O   LIG     1      17.237  37.569  22.426  1.00  0.00    -0.322 OA
BRANCH   5   6
HETATM    6  C   LIG     1      16.690  36.418  21.787  1.00  0.00     0.174 C 
HETATM    7  C   LIG     1      16.967  35.163  22.609  1.00  0.00     0.034 C 
ENDBRANCH   5   6
ENDBRANCH   2   5
TORSDOF 3
ENDMDL
MODEL 5
REMARK VINA RESULT:      -3.9      2.230      2.966
REMARK  3 active torsions:
REMARK  status: ('A' for Active; 'I' for Inactive)
REMARK    1  A    between atoms: C_2  and  C_3 
REMARK    2  A    between atoms: C_2  and  O_5 
REMARK    3  A    between atoms: O_5  and  C_6 
ROOT
HETATM    1  O   LIG     1      15.639  38.980  22.810  1.00  0.00    -0.265 OA
HETATM    2  C   LIG     1      16.681  38.270  22.795  1.00  0.00     0.258 C 
ENDROOT
BRANCH   2   3
HETATM    3  C   LIG     1      16.938  37.307  23.911  1.00  0.00     0.106 C 
HETATM    4  C   LIG     1      17.347  38.051  25.176  1.00  0.00     0.015 C 
ENDBRANCH   2   3
BRANCH   2   5
HETATM    5  O   LIG     1      17.578  38.333  21.722  1.00  0.00    -0.322 OA
BRANCH   5   6
HETATM    6  C   LIG     1      18.596  39.325  21.609  1.00  0.00     0.174 C 
HETATM    7  C   LIG     1      19.453  39.079  20.372  1.00  0.00     0.034 C 
ENDBRANCH   5   6
ENDBRANCH   2   5
TORSDOF 3
ENDMDL
MODEL 6
REMARK VINA RESULT:      -3.9      7.717      9.223
REMARK  3 active torsions:
REMARK  status: ('A' for Active; 'I' for Inactive)
REMARK    1  A    between atoms: C_2  and  C_3 
REMARK    2  A    between atoms: C_2  and  O_5 
REMARK    3  A    between atoms: O_5  and  C_6 
ROOT
HETATM    1  O   LIG     1      15.103  34.361  16.638  1.00  0.00    -0.265 OA
HETATM    2  C   LIG     1      14.790  33.259  17.165  1.00  0.00     0.258 C 
ENDROOT
BRANCH   2   3
HETATM    3  C   LIG     1      13.543  32.556  16.731  1.00  0.00     0.106 C 
HETATM    4  C   LIG     1      13.830  31.088  16.441  1.00  0.00     0.015 C 
ENDBRANCH   2   3
BRANCH   2   5
HETATM    5  O   LIG     1      15.621  32.658  18.117  1.00  0.00    -0.322 OA
BRANCH   5   6
HETATM    6  C   LIG     1      15.362  32.696  19.519  1.00  0.00     0.174 C 
HETATM    7  C   LIG     1      14.885  31.335  20.016  1.00  0.00     0.034 C 
ENDBRANCH   5   6
ENDBRANCH   2   5
TORSDOF 3
ENDMDL
MODEL 7
REMARK VINA RESULT:      -3.9      8.669      9.659
REMARK  3 active torsions:
REMARK  status: ('A' for Active; 'I' for Inactive)
REMARK    1  A    between atoms: C_2  and  C_3 
REMARK    2  A    between atoms: C_2  and  O_5 
REMARK    3  A    between atoms: O_5  and  C_6 
ROOT
HETATM    1  O   LIG     1      14.487  33.189  16.881  1.00  0.00    -0.265 OA
HETATM    2  C   LIG     1      14.486  32.241  17.713  1.00  0.00     0.258 C 
ENDROOT
BRANCH   2   3
HETATM    3  C   LIG     1      15.238  32.382  18.999  1.00  0.00     0.106 C 
HETATM    4  C   LIG     1      14.841  31.280  19.974  1.00  0.00     0.015 C 
ENDBRANCH   2   3
BRANCH   2   5
HETATM    5  O   LIG     1      13.749  31.076  17.473  1.00  0.00    -0.322 OA
BRANCH   5   6
HETATM    6  C   LIG     1      13.012  30.848  16.273  1.00  0.00     0.174 C 
HETATM    7  C   LIG     1      13.919  30.290  15.181  1.00  0.00     0.034 C 
ENDBRANCH   5   6
ENDBRANCH   2   5
TORSDOF 3
ENDMDL
MODEL 8
REMARK VINA RESULT:      -3.8      2.912      4.425
REMARK  3 active torsions:
REMARK  status: ('A' for Active; 'I' for Inactive)
REMARK    1  A    between atoms: C_2  and  C_3 
REMARK    2  A    between atoms: C_2  and  O_5 
REMARK    3  A    between atoms: O_5  and  C_6 
ROOT
HETATM    1  O   LIG     1      18.374  39.377  22.072  1.00  0.00    -0.265 OA
HETATM    2  C   LIG     1      18.214  38.425  21.260  1.00  0.00     0.258 C 
ENDROOT
BRANCH   2   3
HETATM    3  C   LIG     1      19.131  38.290  20.086  1.00  0.00     0.106 C 
HETATM    4  C   LIG     1      19.089  36.869  19.536  1.00  0.00     0.015 C 
ENDBRANCH   2   3
BRANCH   2   5
HETATM    5  O   LIG     1      17.220  37.463  21.470  1.00  0.00    -0.322 OA
BRANCH   5   6
HETATM    6  C   LIG     1      16.989  36.836  22.730  1.00  0.00     0.174 C 
HETATM    7  C   LIG     1      16.918  35.320  22.573  1.00  0.00     0.034 C 
ENDBRANCH   5   6
ENDBRANCH   2   5
TORSDOF 3
ENDMDL
MODEL 9
REMARK VINA RESULT:      -3.8      3.775      4.586
REMARK  3 active torsions:
REMARK  status: ('A' for Active; 'I' for Inactive)
REMARK    1  A    between atoms: C_2  and  C_3 
REMARK    2  A    between atoms: C_2  and  O_5 
REMARK    3  A    between atoms: O_5  and  C_6 
ROOT
HETATM    1  O   LIG     1      16.858  35.556  19.756  1.00  0.00    -0.265 OA
HETATM    2  C   LIG     1      17.580  36.258  20.516  1.00  0.00     0.258 C 
ENDROOT
BRANCH   2   3
HETATM    3  C   LIG     1      17.108  36.582  21.898  1.00  0.00     0.106 C 
HETATM    4  C   LIG     1      16.937  35.308  22.716  1.00  0.00     0.015 C 
ENDBRANCH   2   3
BRANCH   2   5
HETATM    5  O   LIG     1      18.842  36.698  20.100  1.00  0.00    -0.322 OA
BRANCH   5   6
HETATM    6  C   LIG     1      19.046  37.879  19.328  1.00  0.00     0.174 C 
HETATM    7  C   LIG     1      19.457  39.044  20.223  1.00  0.00     0.034 C 
ENDBRANCH   5   6
ENDBRANCH   2   5
TORSDOF 3
ENDMDL
MODEL 10
REMARK VINA RESULT:      -3.7      2.736      3.822
REMARK  3 active torsions:
REMARK  status: ('A' for Active; 'I' for Inactive)
REMARK    1  A    between atoms: C_2  and  C_3 
REMARK    2  A    between atoms: C_2  and  O_5 
REMARK    3  A    between atoms: O_5  and  C_6 
ROOT
HETATM    1  O   LIG     1      16.545  39.062  23.072  1.00  0.00    -0.265 OA
HETATM    2  C   LIG     1      16.832  38.036  22.395  1.00  0.00     0.258 C 
ENDROOT
BRANCH   2   3
HETATM    3  C   LIG     1      17.906  38.110  21.356  1.00  0.00     0.106 C 
HETATM    4  C   LIG     1      18.638  39.444  21.437  1.00  0.00     0.015 C 
ENDBRANCH   2   3
BRANCH   2   5
HETATM    5  O   LIG     1      16.193  36.815  22.637  1.00  0.00    -0.322 OA
BRANCH   5   6
HETATM    6  C   LIG     1      16.850  35.553  22.540  1.00  0.00     0.174 C 
HETATM    7  C   LIG     1      16.329  34.766  21.342  1.00  0.00     0.034 C 
ENDBRANCH   5   6
ENDBRANCH   2   5
TORSDOF 3
ENDMDL
MODEL 11
REMARK VINA RESULT:      -3.6      2.893      4.092
REMARK  3 active torsions:
REMARK  status: ('A' for Active; 'I' for Inactive)
REMARK    1  A    between atoms: C_2  and  C_3 
REMARK    2  A    between atoms: C_2  and  O_5 
REMARK    3  A    between atoms: O_5  and  C_6 
ROOT
HETATM    1  O   LIG     1      18.404  36.356  19.869  1.00  0.00    -0.265 OA
HETATM    2  C   LIG     1      17.694  36.797  20.813  1.00  0.00     0.258 C 
ENDROOT
BRANCH   2   3
HETATM    3  C   LIG     1      16.554  35.976  21.329  1.00  0.00     0.106 C 
HETATM    4  C   LIG     1      17.043  34.977  22.371  1.00  0.00     0.015 C 
ENDBRANCH   2   3
BRANCH   2   5
HETATM    5  O   LIG     1      17.988  38.022  21.421  1.00  0.00    -0.322 OA
BRANCH   5   6
HETATM    6  C   LIG     1      17.149  38.635  22.398  1.00  0.00     0.174 C 
HETATM    7  C   LIG     1      17.664  38.352  23.805  1.00  0.00     0.034 C 
ENDBRANCH   5   6
ENDBRANCH   2   5
TORSDOF 3
ENDMDL
MODEL 12
REMARK VINA RESULT:      -3.6      5.000      6.132
REMARK  3 active torsions:
REMARK  status: ('A' for Active; 'I' for Inactive)
REMARK    1  A    between atoms: C_2  and  C_3 
REMARK    2  A    between atoms: C_2  and  O_5 
REMARK    3  A    between atoms: O_5  and  C_6 
ROOT
HETATM    1  O   LIG     1      16.060  35.004  19.393  1.00  0.00    -0.265 OA
HETATM    2  C   LIG     1      15.790  34.432  20.484  1.00  0.00     0.258 C 
ENDROOT
BRANCH   2   3
HETATM    3  C   LIG     1      16.118  35.109  21.777  1.00  0.00     0.106 C 
HETATM    4  C   LIG     1      17.225  36.138  21.576  1.00  0.00     0.015 C 
ENDBRANCH   2   3
BRANCH   2   5
HETATM    5  O   LIG     1      15.139  33.193  20.504  1.00  0.00    -0.322 OA
BRANCH   5   6
HETATM    6  C   LIG     1      15.555  32.077  19.719  1.00  0.00     0.174 C 
HETATM    7  C   LIG     1      14.598  31.851  18.554  1.00  0.00     0.034 C 
ENDBRANCH   5   6
ENDBRANCH   2   5
TORSDOF 3
ENDMDL
MODEL 13
REMARK VINA RESULT:      -3.5      9.166     10.082
REMARK  3 active torsions:
REMARK  status: ('A' for Active; 'I' for Inactive)
REMARK    1  A    between atoms: C_2  and  C_3 
REMARK    2  A    between atoms: C_2  and  O_5 
REMARK    3  A    between atoms: O_5  and  C_6 
ROOT
HETATM    1  O   LIG     1      15.599  32.588  18.006  1.00  0.00    -0.265 OA
HETATM    2  C   LIG     1      14.919  32.630  16.945  1.00  0.00     0.258 C 
ENDROOT
BRANCH   2   3
HETATM    3  C   LIG     1      13.495  32.172  16.958  1.00  0.00     0.106 C 
HETATM    4  C   LIG     1      13.368  30.801  16.304  1.00  0.00     0.015 C 
ENDBRANCH   2   3
BRANCH   2   5
HETATM    5  O   LIG     1      15.463  33.147  15.764  1.00  0.00    -0.322 OA
BRANCH   5   6
HETATM    6  C   LIG     1      16.402  32.439  14.957  1.00  0.00     0.174 C 
HETATM    7  C   LIG     1      17.637  33.293  14.692  1.00  0.00     0.034 C 
ENDBRANCH   5   6
ENDBRANCH   2   5
TORSDOF 3
ENDMDL
MODEL 14
REMARK VINA RESULT:      -3.5      9.338     10.858
REMARK  3 active torsions:
REMARK  status: ('A' for Active; 'I' for Inactive)
REMARK    1  A    between atoms: C_2  and  C_3 
REMARK    2  A    between atoms: C_2  and  O_5 
REMARK    3  A    between atoms: O_5  and  C_6 
ROOT
HETATM    1  O   LIG     1      16.935  32.127  14.407  1.00  0.00    -0.265 OA
HETATM    2  C   LIG     1      16.035  31.973  15.277  1.00  0.00     0.258 C 
ENDROOT
BRANCH   2   3
HETATM    3  C   LIG     1      14.893  31.046  15.007  1.00  0.00     0.106 C 
HETATM    4  C   LIG     1      15.297  29.980  13.995  1.00  0.00     0.015 C 
ENDBRANCH   2   3
BRANCH   2   5
HETATM    5  O   LIG     1      16.116  32.620  16.516  1.00  0.00    -0.322 OA
BRANCH   5   6
HETATM    6  C   LIG     1      14.978  32.913  17.323  1.00  0.00     0.174 C 
HETATM    7  C   LIG     1      15.190  32.424  18.752  1.00  0.00     0.034 C 
ENDBRANCH   5   6
ENDBRANCH   2   5
TORSDOF 3
ENDMDL
MODEL 15
REMARK VINA RESULT:      -3.4      4.961      6.347
REMARK  3 active torsions:
REMARK  status: ('A' for Active; 'I' for Inactive)
REMARK    1  A    between atoms: C_2  and  C_3 
REMARK    2  A    between atoms: C_2  and  O_5 
REMARK    3  A    between atoms: O_5  and  C_6 
ROOT
HETATM    1  O   LIG     1      15.757  34.346  19.047  1.00  0.00    -0.265 OA
HETATM    2  C   LIG     1      15.506  33.658  20.074  1.00  0.00     0.258 C 
ENDROOT
BRANCH   2   3
HETATM    3  C   LIG     1      15.256  32.189  19.940  1.00  0.00     0.106 C 
HETATM    4  C   LIG     1      14.616  31.876  18.593  1.00  0.00     0.015 C 
ENDBRANCH   2   3
BRANCH   2   5
HETATM    5  O   LIG     1      15.507  34.241  21.346  1.00  0.00    -0.322 OA
BRANCH   5   6
HETATM    6  C   LIG     1      15.499  35.651  21.562  1.00  0.00     0.174 C 
HETATM    7  C   LIG     1      16.878  36.139  21.992  1.00  0.00     0.034 C 
ENDBRANCH   5   6
ENDBRANCH   2   5
TORSDOF 3
ENDMDL
MODEL 16
REMARK VINA RESULT:      -3.4      9.754     11.008
REMARK  3 active torsions:
REMARK  status: ('A' for Active; 'I' for Inactive)
REMARK    1  A    between atoms: C_2  and  C_3 
REMARK    2  A    between atoms: C_2  and  O_5 
REMARK    3  A    between atoms: O_5  and  C_6 
ROOT
HETATM    1  O   LIG     1      12.815  31.185  17.010  1.00  0.00    -0.265 OA
HETATM    2  C   LIG     1      13.972  31.587  16.710  1.00  0.00     0.258 C 
ENDROOT
BRANCH   2   3
HETATM    3  C   LIG     1      14.695  32.519  17.629  1.00  0.00     0.106 C 
HETATM    4  C   LIG     1      15.019  33.828  16.918  1.00  0.00     0.015 C 
ENDBRANCH   2   3
BRANCH   2   5
HETATM    5  O   LIG     1      14.611  31.133  15.551  1.00  0.00    -0.322 OA
BRANCH   5   6
HETATM    6  C   LIG     1      14.072  30.121  14.703  1.00  0.00     0.174 C 
HETATM    7  C   LIG     1      15.184  29.402  13.946  1.00  0.00     0.034 C 
ENDBRANCH   5   6
ENDBRANCH   2   5
TORSDOF 3
ENDMDL
MODEL 17
REMARK VINA RESULT:      -3.4      9.430     10.413
REMARK  3 active torsions:
REMARK  status: ('A' for Active; 'I' for Inactive)
REMARK    1  A    between atoms: C_2  and  C_3 
REMARK    2  A    between atoms: C_2  and  O_5 
REMARK    3  A    between atoms: O_5  and  C_6 
ROOT
HETATM    1  O   LIG     1      16.458  34.546  15.848  1.00  0.00    -0.265 OA
HETATM    2  C   LIG     1      16.244  33.307  15.755  1.00  0.00     0.258 C 
ENDROOT
BRANCH   2   3
HETATM    3  C   LIG     1      16.554  32.594  14.477  1.00  0.00     0.106 C 
HETATM    4  C   LIG     1      17.605  33.358  13.680  1.00  0.00     0.015 C 
ENDBRANCH   2   3
BRANCH   2   5
HETATM    5  O   LIG     1      15.767  32.577  16.850  1.00  0.00    -0.322 OA
BRANCH   5   6
HETATM    6  C   LIG     1      14.384  32.483  17.186  1.00  0.00     0.174 C 
HETATM    7  C   LIG     1      13.790  31.178  16.665  1.00  0.00     0.034 C 
ENDBRANCH   5   6
ENDBRANCH   2   5
TORSDOF 3
ENDMDL
MODEL 18
REMARK VINA RESULT:      -3.4     11.079     12.155
REMARK  3 active torsions:
REMARK  status: ('A' for Active; 'I' for Inactive)
REMARK    1  A    between atoms: C_2  and  C_3 
REMARK    2  A    between atoms: C_2  and  O_5 
REMARK    3  A    between atoms: O_5  and  C_6 
ROOT
HETATM    1  O   LIG     1      15.671  29.543  13.750  1.00  0.00    -0.265 OA
HETATM    2  C   LIG     1      14.996  30.376  14.413  1.00  0.00     0.258 C 
ENDROOT
BRANCH   2   3
HETATM    3  C   LIG     1      13.611  30.023  14.857  1.00  0.00     0.106 C 
HETATM    4  C   LIG     1      13.257  30.762  16.142  1.00  0.00     0.015 C 
ENDBRANCH   2   3
BRANCH   2   5
HETATM    5  O   LIG     1      15.542  31.610  14.784  1.00  0.00    -0.322 OA
BRANCH   5   6
HETATM    6  C   LIG     1      16.358  32.398  13.920  1.00  0.00     0.174 C 
HETATM    7  C   LIG     1      17.463  33.093  14.708  1.00  0.00     0.034 C 
ENDBRANCH   5   6
ENDBRANCH   2   5
TORSDOF 3
ENDMDL
MODEL 19
REMARK VINA RESULT:      -3.4     10.264     11.196
REMARK  3 active torsions:
REMARK  status: ('A' for Active; 'I' for Inactive)
REMARK    1  A    between atoms: C_2  and  C_3 
REMARK    2  A    between atoms: C_2  and  O_5 
REMARK    3  A    between atoms: O_5  and  C_6 
ROOT
HETATM    1  O   LIG     1      17.255  35.274  14.770  1.00  0.00    -0.265 OA
HETATM    2  C   LIG     1      17.589  34.062  14.670  1.00  0.00     0.258 C 
ENDROOT
BRANCH   2   3
HETATM    3  C   LIG     1      18.528  33.637  13.586  1.00  0.00     0.106 C 
HETATM    4  C   LIG     1      18.141  34.282  12.261  1.00  0.00     0.015 C 
ENDBRANCH   2   3
BRANCH   2   5
HETATM    5  O   LIG     1      17.131  33.114  15.592  1.00  0.00    -0.322 OA
BRANCH   5   6
HETATM    6  C   LIG     1      15.795  32.615  15.607  1.00  0.00     0.174 C 
HETATM    7  C   LIG     1      15.632  31.480  14.602  1.00  0.00     0.034 C 
ENDBRANCH   5   6
ENDBRANCH   2   5
TORSDOF 3
ENDMDL
MODEL 20
REMARK VINA RESULT:      -3.4     10.418     11.393
REMARK  3 active torsions:
REMARK  status: ('A' for Active; 'I' for Inactive)
REMARK    1  A    between atoms: C_2  and  C_3 
REMARK    2  A    between atoms: C_2  and  O_5 
REMARK    3  A    between atoms: O_5  and  C_6 
ROOT
HETATM    1  O   LIG     1      16.179  32.848  16.388  1.00  0.00    -0.265 OA
HETATM    2  C   LIG     1      16.259  32.196  15.311  1.00  0.00     0.258 C 
ENDROOT
BRANCH   2   3
HETATM    3  C   LIG     1      15.179  31.226  14.950  1.00  0.00     0.106 C 
HETATM    4  C   LIG     1      15.374  30.713  13.528  1.00  0.00     0.015 C 
ENDBRANCH   2   3
BRANCH   2   5
HETATM    5  O   LIG     1      17.319  32.405  14.423  1.00  0.00    -0.322 OA
BRANCH   5   6
HETATM    6  C   LIG     1      17.865  33.692  14.140  1.00  0.00     0.174 C 
HETATM    7  C   LIG     1      18.769  33.637  12.913  1.00  0.00     0.034 C 
ENDBRANCH   5   6
ENDBRANCH   2   5
TORSDOF 3
ENDMDL
