MODEL 1
REMARK VINA RESULT:      -4.8      0.000      0.000
REMARK  4 active torsions:
REMARK  status: ('A' for Active; 'I' for Inactive)
REMARK    1  A    between atoms: C_2  and  C_5 
REMARK    2  A    between atoms: C_2  and  C_3 
REMARK    3  A    between atoms: C_3  and  O_4 
REMARK    4  A    between atoms: C_5  and  C_6 
ROOT
HETATM    1  C   LIG     1      16.780  35.266  22.482  1.00  0.00     0.012 C 
HETATM    2  C   LIG     1      17.119  36.627  23.105  1.00  0.00     0.005 C 
ENDROOT
BRANCH   2   3
HETATM    3  C   LIG     1      17.221  36.497  24.643  1.00  0.00     0.006 C 
BRANCH   3   4
HETATM    4  C   LIG     1      17.358  35.039  25.111  1.00  0.00    -0.004 C 
HETATM    5  C   LIG     1      18.280  34.934  26.323  1.00  0.00     0.005 C 
ENDBRANCH   3   4
ENDBRANCH   2   3
BRANCH   2   6
HETATM    6  C   LIG     1      16.095  37.690  22.661  1.00  0.00     0.168 C 
BRANCH   6   7
HETATM    7  O   LIG     1      15.212  37.997  23.706  1.00  0.00    -0.400 OA
HETATM    8  H   LIG     1      15.104  37.163  24.231  1.00  0.00     0.209 HD
ENDBRANCH   6   7
ENDBRANCH   2   6
TORSDOF 4
ENDMDL
MODEL 2
REMARK VINA RESULT:      -4.6      1.956      3.540
REMARK  4 active torsions:
REMARK  status: ('A' for Active; 'I' for Inactive)
REMARK    1  A    between atoms: C_2  and  C_5 
REMARK    2  A    between atoms: C_2  and  C_3 
REMARK    3  A    between atoms: C_3  and  O_4 
REMARK    4  A    between atoms: C_5  and  C_6 
ROOT
HETATM    1  C   LIG     1      18.221  34.842  26.302  1.00  0.00     0.012 C 
HETATM    2  C   LIG     1      17.323  35.709  25.409  1.00  0.00     0.005 C 
ENDROOT
BRANCH   2   3
HETATM    3  C   LIG     1      17.196  35.073  24.005  1.00  0.00     0.006 C 
BRANCH   3   4
HETATM    4  C   LIG     1      16.842  36.097  22.915  1.00  0.00    -0.004 C 
HETATM    5  C   LIG     1      17.112  35.535  21.522  1.00  0.00     0.005 C 
ENDBRANCH   3   4
ENDBRANCH   2   3
BRANCH   2   6
HETATM    6  C   LIG     1      17.851  37.157  25.363  1.00  0.00     0.168 C 
BRANCH   6   7
HETATM    7  O   LIG     1      18.872  37.344  26.306  1.00  0.00    -0.400 OA
HETATM    8  H   LIG     1      19.519  37.971  25.891  1.00  0.00     0.209 HD
ENDBRANCH   6   7
ENDBRANCH   2   6
TORSDOF 4
ENDMDL
MODEL 3
REMARK VINA RESULT:      -4.5      2.095      3.730
REMARK  4 active torsions:
REMARK  status: ('A' for Active; 'I' for Inactive)
REMARK    1  A    between atoms: C_2  and  C_5 
REMARK    2  A    between atoms: C_2  and  C_3 
REMARK    3  A    between atoms: C_3  and  O_4 
REMARK    4  A    between atoms: C_5  and  C_6 
ROOT
HETATM    1  C   LIG     1      16.810  35.289  22.383  1.00  0.00     0.012 C 
HETATM    2  C   LIG     1      16.605  36.790  22.135  1.00  0.00     0.005 C 
ENDROOT
BRANCH   2   3
HETATM    3  C   LIG     1      17.742  37.342  21.243  1.00  0.00     0.006 C 
BRANCH   3   4
HETATM    4  C   LIG     1      18.003  38.840  21.468  1.00  0.00    -0.004 C 
HETATM    5  C   LIG     1      19.019  39.378  20.464  1.00  0.00     0.005 C 
ENDBRANCH   3   4
ENDBRANCH   2   3
BRANCH   2   6
HETATM    6  C   LIG     1      16.477  37.542  23.475  1.00  0.00     0.168 C 
BRANCH   6   7
HETATM    7  O   LIG     1      15.187  38.069  23.629  1.00  0.00    -0.400 OA
HETATM    8  H   LIG     1      15.025  38.122  24.606  1.00  0.00     0.209 HD
ENDBRANCH   6   7
ENDBRANCH   2   6
TORSDOF 4
ENDMDL
MODEL 4
REMARK VINA RESULT:      -4.4      4.269      4.983
REMARK  4 active torsions:
REMARK  status: ('A' for Active; 'I' for Inactive)
REMARK    1  A    between atoms: C_2  and  C_5 
REMARK    2  A    between atoms: C_2  and  C_3 
REMARK    3  A    between atoms: C_3  and  O_4 
REMARK    4  A    between atoms: C_5  and  C_6 
ROOT
HETATM    1  C   LIG     1      18.507  36.919  20.014  1.00  0.00     0.012 C 
HETATM    2  C   LIG     1      19.261  38.240  20.220  1.00  0.00     0.005 C 
ENDROOT
BRANCH   2   3
HETATM    3  C   LIG     1      18.491  39.143  21.211  1.00  0.00     0.006 C 
BRANCH   3   4
HETATM    4  C   LIG     1      17.374  38.395  21.957  1.00  0.00    -0.004 C 
HETATM    5  C   LIG     1      17.639  38.365  23.460  1.00  0.00     0.005 C 
ENDBRANCH   3   4
ENDBRANCH   2   3
BRANCH   2   6
HETATM    6  C   LIG     1      19.522  38.925  18.864  1.00  0.00     0.168 C 
BRANCH   6   7
HETATM    7  O   LIG     1      20.770  39.564  18.861  1.00  0.00    -0.400 OA
HETATM    8  H   LIG     1      20.634  40.433  18.403  1.00  0.00     0.209 HD
ENDBRANCH   6   7
ENDBRANCH   2   6
TORSDOF 4
ENDMDL
MODEL 5
REMARK VINA RESULT:      -4.4      2.572      3.889
REMARK  4 active torsions:
REMARK  status: ('A' for Active; 'I' for Inactive)
REMARK    1  A    between atoms: C_2  and  C_5 
REMARK    2  A    between atoms: C_2  and  C_3 
REMARK    3  A    between atoms: C_3  and  O_4 
REMARK    4  A    between atoms: C_5  and  C_6 
ROOT
HETATM    1  C   LIG     1      16.955  35.109  22.923  1.00  0.00     0.012 C 
HETATM    2  C   LIG     1      16.600  35.340  21.448  1.00  0.00     0.005 C 
ENDROOT
BRANCH   2   3
HETATM    3  C   LIG     1      17.526  36.420  20.841  1.00  0.00     0.006 C 
BRANCH   3   4
HETATM    4  C   LIG     1      17.528  37.727  21.649  1.00  0.00    -0.004 C 
HETATM    5  C   LIG     1      18.442  38.769  21.009  1.00  0.00     0.005 C 
ENDBRANCH   3   4
ENDBRANCH   2   3
BRANCH   2   6
HETATM    6  C   LIG     1      15.104  35.685  21.305  1.00  0.00     0.168 C 
BRANCH   6   7
HETATM    7  O   LIG     1      14.308  34.555  21.539  1.00  0.00    -0.400 OA
HETATM    8  H   LIG     1      13.876  34.337  20.673  1.00  0.00     0.209 HD
ENDBRANCH   6   7
ENDBRANCH   2   6
TORSDOF 4
ENDMDL
MODEL 6
REMARK VINA RESULT:      -4.2      2.081      3.118
REMARK  4 active torsions:
REMARK  status: ('A' for Active; 'I' for Inactive)
REMARK    1  A    between atoms: C_2  and  C_5 
REMARK    2  A    between atoms: C_2  and  C_3 
REMARK    3  A    between atoms: C_3  and  O_4 
REMARK    4  A    between atoms: C_5  and  C_6 
ROOT
HETATM    1  C   LIG     1      17.471  38.994  22.078  1.00  0.00     0.012 C 
HETATM    2  C   LIG     1      17.406  37.583  22.679  1.00  0.00     0.005 C 
ENDROOT
BRANCH   2   3
HETATM    3  C   LIG     1      17.046  36.554  21.582  1.00  0.00     0.006 C 
BRANCH   3   4
HETATM    4  C   LIG     1      16.692  35.171  22.153  1.00  0.00    -0.004 C 
HETATM    5  C   LIG     1      15.528  34.542  21.391  1.00  0.00     0.005 C 
ENDBRANCH   3   4
ENDBRANCH   2   3
BRANCH   2   6
HETATM    6  C   LIG     1      16.428  37.553  23.871  1.00  0.00     0.168 C 
BRANCH   6   7
HETATM    7  O   LIG     1      15.199  38.130  23.520  1.00  0.00    -0.400 OA
HETATM    8  H   LIG     1      15.415  38.939  22.989  1.00  0.00     0.209 HD
ENDBRANCH   6   7
ENDBRANCH   2   6
TORSDOF 4
ENDMDL
MODEL 7
REMARK VINA RESULT:      -4.2      7.260      9.009
REMARK  4 active torsions:
REMARK  status: ('A' for Active; 'I' for Inactive)
REMARK    1  A    between atoms: C_2  and  C_5 
REMARK    2  A    between atoms: C_2  and  C_3 
REMARK    3  A    between atoms: C_3  and  O_4 
REMARK    4  A    between atoms: C_5  and  C_6 
ROOT
HETATM    1  C   LIG     1      14.960  33.942  16.902  1.00  0.00     0.012 C 
HETATM    2  C   LIG     1      14.757  32.470  17.287  1.00  0.00     0.005 C 
ENDROOT
BRANCH   2   3
HETATM    3  C   LIG     1      13.310  32.030  16.965  1.00  0.00     0.006 C 
BRANCH   3   4
HETATM    4  C   LIG     1      13.248  30.725  16.156  1.00  0.00    -0.004 C 
HETATM    5  C   LIG     1      14.406  30.636  15.165  1.00  0.00     0.005 C 
ENDBRANCH   3   4
ENDBRANCH   2   3
BRANCH   2   6
HETATM    6  C   LIG     1      15.135  32.246  18.765  1.00  0.00     0.168 C 
BRANCH   6   7
HETATM    7  O   LIG     1      14.144  31.506  19.426  1.00  0.00    -0.400 OA
HETATM    8  H   LIG     1      14.103  30.628  18.966  1.00  0.00     0.209 HD
ENDBRANCH   6   7
ENDBRANCH   2   6
TORSDOF 4
ENDMDL
MODEL 8
REMARK VINA RESULT:      -4.1      3.241      3.996
REMARK  4 active torsions:
REMARK  status: ('A' for Active; 'I' for Inactive)
REMARK    1  A    between atoms: C_2  and  C_5 
REMARK    2  A    between atoms: C_2  and  C_3 
REMARK    3  A    between atoms: C_3  and  O_4 
REMARK    4  A    between atoms: C_5  and  C_6 
ROOT
HETATM    1  C   LIG     1      18.716  37.165  19.084  1.00  0.00     0.012 C 
HETATM    2  C   LIG     1      18.801  37.805  20.477  1.00  0.00     0.005 C 
ENDROOT
BRANCH   2   3
HETATM    3  C   LIG     1      17.576  37.392  21.327  1.00  0.00     0.006 C 
BRANCH   3   4
HETATM    4  C   LIG     1      17.217  35.905  21.173  1.00  0.00    -0.004 C 
HETATM    5  C   LIG     1      16.934  35.264  22.529  1.00  0.00     0.005 C 
ENDBRANCH   3   4
ENDBRANCH   2   3
BRANCH   2   6
HETATM    6  C   LIG     1      18.956  39.334  20.355  1.00  0.00     0.168 C 
BRANCH   6   7
HETATM    7  O   LIG     1      18.783  39.952  21.602  1.00  0.00    -0.400 OA
HETATM    8  H   LIG     1      17.920  40.439  21.550  1.00  0.00     0.209 HD
ENDBRANCH   6   7
ENDBRANCH   2   6
TORSDOF 4
ENDMDL
MODEL 9
REMARK VINA RESULT:      -4.1      1.836      2.150
REMARK  4 active torsions:
REMARK  status: ('A' for Active; 'I' for Inactive)
REMARK    1  A    between atoms: C_2  and  C_5 
REMARK    2  A    between atoms: C_2  and  C_3 
REMARK    3  A    between atoms: C_3  and  O_4 
REMARK    4  A    between atoms: C_5  and  C_6 
ROOT
HETATM    1  C   LIG     1      15.749  37.697  22.964  1.00  0.00     0.012 C 
HETATM    2  C   LIG     1      17.182  37.638  23.511  1.00  0.00     0.005 C 
ENDROOT
BRANCH   2   3
HETATM    3  C   LIG     1      17.169  37.772  25.052  1.00  0.00     0.006 C 
BRANCH   3   4
HETATM    4  C   LIG     1      18.273  36.946  25.733  1.00  0.00    -0.004 C 
HETATM    5  C   LIG     1      17.821  35.506  25.961  1.00  0.00     0.005 C 
ENDBRANCH   3   4
ENDBRANCH   2   3
BRANCH   2   6
HETATM    6  C   LIG     1      18.062  38.702  22.825  1.00  0.00     0.168 C 
BRANCH   6   7
HETATM    7  O   LIG     1      17.668  38.890  21.493  1.00  0.00    -0.400 OA
HETATM    8  H   LIG     1      17.248  39.787  21.453  1.00  0.00     0.209 HD
ENDBRANCH   6   7
ENDBRANCH   2   6
TORSDOF 4
ENDMDL
MODEL 10
REMARK VINA RESULT:      -4.0      1.857      2.286
REMARK  4 active torsions:
REMARK  status: ('A' for Active; 'I' for Inactive)
REMARK    1  A    between atoms: C_2  and  C_5 
REMARK    2  A    between atoms: C_2  and  C_3 
REMARK    3  A    between atoms: C_3  and  O_4 
REMARK    4  A    between atoms: C_5  and  C_6 
ROOT
HETATM    1  C   LIG     1      17.869  38.594  22.362  1.00  0.00     0.012 C 
HETATM    2  C   LIG     1      16.821  37.741  23.091  1.00  0.00     0.005 C 
ENDROOT
BRANCH   2   3
HETATM    3  C   LIG     1      17.051  37.806  24.619  1.00  0.00     0.006 C 
BRANCH   3   4
HETATM    4  C   LIG     1      17.428  36.444  25.224  1.00  0.00    -0.004 C 
HETATM    5  C   LIG     1      18.502  36.597  26.298  1.00  0.00     0.005 C 
ENDBRANCH   3   4
ENDBRANCH   2   3
BRANCH   2   6
HETATM    6  C   LIG     1      16.830  36.299  22.545  1.00  0.00     0.168 C 
BRANCH   6   7
HETATM    7  O   LIG     1      17.454  36.247  21.290  1.00  0.00    -0.400 OA
HETATM    8  H   LIG     1      18.380  35.932  21.455  1.00  0.00     0.209 HD
ENDBRANCH   6   7
ENDBRANCH   2   6
TORSDOF 4
ENDMDL
MODEL 11
REMARK VINA RESULT:      -4.0      3.415      4.337
REMARK  4 active torsions:
REMARK  status: ('A' for Active; 'I' for Inactive)
REMARK    1  A    between atoms: C_2  and  C_5 
REMARK    2  A    between atoms: C_2  and  C_3 
REMARK    3  A    between atoms: C_3  and  O_4 
REMARK    4  A    between atoms: C_5  and  C_6 
ROOT
HETATM    1  C   LIG     1      17.481  38.052  22.808  1.00  0.00     0.012 C 
HETATM    2  C   LIG     1      17.815  38.242  21.322  1.00  0.00     0.005 C 
ENDROOT
BRANCH   2   3
HETATM    3  C   LIG     1      17.975  36.867  20.633  1.00  0.00     0.006 C 
BRANCH   3   4
HETATM    4  C   LIG     1      17.180  35.753  21.333  1.00  0.00    -0.004 C 
HETATM    5  C   LIG     1      16.059  35.231  20.437  1.00  0.00     0.005 C 
ENDBRANCH   3   4
ENDBRANCH   2   3
BRANCH   2   6
HETATM    6  C   LIG     1      19.060  39.139  21.164  1.00  0.00     0.168 C 
BRANCH   6   7
HETATM    7  O   LIG     1      19.095  39.720  19.888  1.00  0.00    -0.400 OA
HETATM    8  H   LIG     1      19.601  40.568  19.985  1.00  0.00     0.209 HD
ENDBRANCH   6   7
ENDBRANCH   2   6
TORSDOF 4
ENDMDL
MODEL 12
REMARK VINA RESULT:      -3.9      7.841      9.578
REMARK  4 active torsions:
REMARK  status: ('A' for Active; 'I' for Inactive)
REMARK    1  A    between atoms: C_2  and  C_5 
REMARK    2  A    between atoms: C_2  and  C_3 
REMARK    3  A    between atoms: C_3  and  O_4 
REMARK    4  A    between atoms: C_5  and  C_6 
ROOT
HETATM    1  C   LIG     1      14.904  32.240  18.480  1.00  0.00     0.012 C 
HETATM    2  C   LIG     1      14.406  32.466  17.045  1.00  0.00     0.005 C 
ENDROOT
BRANCH   2   3
HETATM    3  C   LIG     1      13.836  31.150  16.467  1.00  0.00     0.006 C 
BRANCH   3   4
HETATM    4  C   LIG     1      14.502  30.742  15.143  1.00  0.00    -0.004 C 
HETATM    5  C   LIG     1      13.716  29.632  14.450  1.00  0.00     0.005 C 
ENDBRANCH   3   4
ENDBRANCH   2   3
BRANCH   2   6
HETATM    6  C   LIG     1      15.531  33.064  16.176  1.00  0.00     0.168 C 
BRANCH   6   7
HETATM    7  O   LIG     1      15.706  34.427  16.457  1.00  0.00    -0.400 OA
HETATM    8  H   LIG     1      16.331  34.772  15.769  1.00  0.00     0.209 HD
ENDBRANCH   6   7
ENDBRANCH   2   6
TORSDOF 4
ENDMDL
MODEL 13
REMARK VINA RESULT:      -3.9     10.445     11.810
REMARK  4 active torsions:
REMARK  status: ('A' for Active; 'I' for Inactive)
REMARK    1  A    between atoms: C_2  and  C_5 
REMARK    2  A    between atoms: C_2  and  C_3 
REMARK    3  A    between atoms: C_3  and  O_4 
REMARK    4  A    between atoms: C_5  and  C_6 
ROOT
HETATM    1  C   LIG     1      15.608  31.170  14.066  1.00  0.00     0.012 C 
HETATM    2  C   LIG     1      14.572  30.044  13.941  1.00  0.00     0.005 C 
ENDROOT
BRANCH   2   3
HETATM    3  C   LIG     1      13.524  30.159  15.073  1.00  0.00     0.006 C 
BRANCH   3   4
HETATM    4  C   LIG     1      13.997  31.045  16.237  1.00  0.00    -0.004 C 
HETATM    5  C   LIG     1      12.847  31.879  16.796  1.00  0.00     0.005 C 
ENDBRANCH   3   4
ENDBRANCH   2   3
BRANCH   2   6
HETATM    6  C   LIG     1      15.273  28.671  13.911  1.00  0.00     0.168 C 
BRANCH   6   7
HETATM    7  O   LIG     1      14.433  27.696  13.355  1.00  0.00    -0.400 OA
HETATM    8  H   LIG     1      14.954  26.852  13.354  1.00  0.00     0.209 HD
ENDBRANCH   6   7
ENDBRANCH   2   6
TORSDOF 4
ENDMDL
MODEL 14
REMARK VINA RESULT:      -3.9      2.400      2.816
REMARK  4 active torsions:
REMARK  status: ('A' for Active; 'I' for Inactive)
REMARK    1  A    between atoms: C_2  and  C_5 
REMARK    2  A    between atoms: C_2  and  C_3 
REMARK    3  A    between atoms: C_3  and  O_4 
REMARK    4  A    between atoms: C_5  and  C_6 
ROOT
HETATM    1  C   LIG     1      15.488  34.740  21.427  1.00  0.00     0.012 C 
HETATM    2  C   LIG     1      16.927  35.083  21.840  1.00  0.00     0.005 C 
ENDROOT
BRANCH   2   3
HETATM    3  C   LIG     1      16.987  35.385  23.355  1.00  0.00     0.006 C 
BRANCH   3   4
HETATM    4  C   LIG     1      16.963  36.890  23.665  1.00  0.00    -0.004 C 
HETATM    5  C   LIG     1      17.521  37.175  25.057  1.00  0.00     0.005 C 
ENDBRANCH   3   4
ENDBRANCH   2   3
BRANCH   2   6
HETATM    6  C   LIG     1      17.470  36.239  20.977  1.00  0.00     0.168 C 
BRANCH   6   7
HETATM    7  O   LIG     1      17.385  35.926  19.613  1.00  0.00    -0.400 OA
HETATM    8  H   LIG     1      17.658  34.976  19.531  1.00  0.00     0.209 HD
ENDBRANCH   6   7
ENDBRANCH   2   6
TORSDOF 4
ENDMDL
MODEL 15
REMARK VINA RESULT:      -3.9      7.812      9.586
REMARK  4 active torsions:
REMARK  status: ('A' for Active; 'I' for Inactive)
REMARK    1  A    between atoms: C_2  and  C_5 
REMARK    2  A    between atoms: C_2  and  C_3 
REMARK    3  A    between atoms: C_3  and  O_4 
REMARK    4  A    between atoms: C_5  and  C_6 
ROOT
HETATM    1  C   LIG     1      13.584  31.072  16.589  1.00  0.00     0.012 C 
HETATM    2  C   LIG     1      14.421  32.330  16.862  1.00  0.00     0.005 C 
ENDROOT
BRANCH   2   3
HETATM    3  C   LIG     1      15.571  32.438  15.833  1.00  0.00     0.006 C 
BRANCH   3   4
HETATM    4  C   LIG     1      15.516  31.339  14.759  1.00  0.00    -0.004 C 
HETATM    5  C   LIG     1      16.002  31.862  13.410  1.00  0.00     0.005 C 
ENDBRANCH   3   4
ENDBRANCH   2   3
BRANCH   2   6
HETATM    6  C   LIG     1      14.921  32.334  18.320  1.00  0.00     0.168 C 
BRANCH   6   7
HETATM    7  O   LIG     1      14.144  31.479  19.115  1.00  0.00    -0.400 OA
HETATM    8  H   LIG     1      13.475  32.055  19.567  1.00  0.00     0.209 HD
ENDBRANCH   6   7
ENDBRANCH   2   6
TORSDOF 4
ENDMDL
MODEL 16
REMARK VINA RESULT:      -3.9      3.480      4.941
REMARK  4 active torsions:
REMARK  status: ('A' for Active; 'I' for Inactive)
REMARK    1  A    between atoms: C_2  and  C_5 
REMARK    2  A    between atoms: C_2  and  C_3 
REMARK    3  A    between atoms: C_3  and  O_4 
REMARK    4  A    between atoms: C_5  and  C_6 
ROOT
HETATM    1  C   LIG     1      17.389  37.761  21.715  1.00  0.00     0.012 C 
HETATM    2  C   LIG     1      17.846  36.509  20.953  1.00  0.00     0.005 C 
ENDROOT
BRANCH   2   3
HETATM    3  C   LIG     1      18.619  36.917  19.677  1.00  0.00     0.006 C 
BRANCH   3   4
HETATM    4  C   LIG     1      18.896  38.427  19.603  1.00  0.00    -0.004 C 
HETATM    5  C   LIG     1      20.396  38.710  19.565  1.00  0.00     0.005 C 
ENDBRANCH   3   4
ENDBRANCH   2   3
BRANCH   2   6
HETATM    6  C   LIG     1      16.642  35.593  20.656  1.00  0.00     0.168 C 
BRANCH   6   7
HETATM    7  O   LIG     1      16.261  34.884  21.804  1.00  0.00    -0.400 OA
HETATM    8  H   LIG     1      15.819  34.056  21.483  1.00  0.00     0.209 HD
ENDBRANCH   6   7
ENDBRANCH   2   6
TORSDOF 4
ENDMDL
MODEL 17
REMARK VINA RESULT:      -3.7      1.845      3.352
REMARK  4 active torsions:
REMARK  status: ('A' for Active; 'I' for Inactive)
REMARK    1  A    between atoms: C_2  and  C_5 
REMARK    2  A    between atoms: C_2  and  C_3 
REMARK    3  A    between atoms: C_3  and  O_4 
REMARK    4  A    between atoms: C_5  and  C_6 
ROOT
HETATM    1  C   LIG     1      17.504  34.909  25.854  1.00  0.00     0.012 C 
HETATM    2  C   LIG     1      17.539  35.752  24.572  1.00  0.00     0.005 C 
ENDROOT
BRANCH   2   3
HETATM    3  C   LIG     1      17.055  37.191  24.868  1.00  0.00     0.006 C 
BRANCH   3   4
HETATM    4  C   LIG     1      17.812  38.255  24.056  1.00  0.00    -0.004 C 
HETATM    5  C   LIG     1      16.977  38.742  22.875  1.00  0.00     0.005 C 
ENDBRANCH   3   4
ENDBRANCH   2   3
BRANCH   2   6
HETATM    6  C   LIG     1      16.726  35.066  23.456  1.00  0.00     0.168 C 
BRANCH   6   7
HETATM    7  O   LIG     1      17.414  35.118  22.235  1.00  0.00    -0.400 OA
HETATM    8  H   LIG     1      17.735  36.052  22.139  1.00  0.00     0.209 HD
ENDBRANCH   6   7
ENDBRANCH   2   6
TORSDOF 4
ENDMDL
MODEL 18
REMARK VINA RESULT:      -3.7      2.959      4.363
REMARK  4 active torsions:
REMARK  status: ('A' for Active; 'I' for Inactive)
REMARK    1  A    between atoms: C_2  and  C_5 
REMARK    2  A    between atoms: C_2  and  C_3 
REMARK    3  A    between atoms: C_3  and  O_4 
REMARK    4  A    between atoms: C_5  and  C_6 
ROOT
HETATM    1  C   LIG     1      16.904  35.573  22.723  1.00  0.00     0.012 C 
HETATM    2  C   LIG     1      16.667  36.285  21.384  1.00  0.00     0.005 C 
ENDROOT
BRANCH   2   3
HETATM    3  C   LIG     1      15.580  35.544  20.572  1.00  0.00     0.006 C 
BRANCH   3   4
HETATM    4  C   LIG     1      15.229  34.168  21.162  1.00  0.00    -0.004 C 
HETATM    5  C   LIG     1      15.473  33.055  20.146  1.00  0.00     0.005 C 
ENDBRANCH   3   4
ENDBRANCH   2   3
BRANCH   2   6
HETATM    6  C   LIG     1      17.995  36.430  20.613  1.00  0.00     0.168 C 
BRANCH   6   7
HETATM    7  O   LIG     1      17.798  36.225  19.240  1.00  0.00    -0.400 OA
HETATM    8  H   LIG     1      17.467  35.294  19.145  1.00  0.00     0.209 HD
ENDBRANCH   6   7
ENDBRANCH   2   6
TORSDOF 4
ENDMDL
MODEL 19
REMARK VINA RESULT:      -3.6     10.686     11.296
REMARK  4 active torsions:
REMARK  status: ('A' for Active; 'I' for Inactive)
REMARK    1  A    between atoms: C_2  and  C_5 
REMARK    2  A    between atoms: C_2  and  C_3 
REMARK    3  A    between atoms: C_3  and  O_4 
REMARK    4  A    between atoms: C_5  and  C_6 
ROOT
HETATM    1  C   LIG     1      15.281  29.343  14.127  1.00  0.00     0.012 C 
HETATM    2  C   LIG     1      14.704  30.715  14.504  1.00  0.00     0.005 C 
ENDROOT
BRANCH   2   3
HETATM    3  C   LIG     1      15.850  31.716  14.778  1.00  0.00     0.006 C 
BRANCH   3   4
HETATM    4  C   LIG     1      16.367  32.396  13.500  1.00  0.00    -0.004 C 
HETATM    5  C   LIG     1      17.533  33.333  13.807  1.00  0.00     0.005 C 
ENDBRANCH   3   4
ENDBRANCH   2   3
BRANCH   2   6
HETATM    6  C   LIG     1      13.732  30.578  15.692  1.00  0.00     0.168 C 
BRANCH   6   7
HETATM    7  O   LIG     1      12.513  30.023  15.277  1.00  0.00    -0.400 OA
HETATM    8  H   LIG     1      12.140  29.554  16.068  1.00  0.00     0.209 HD
ENDBRANCH   6   7
ENDBRANCH   2   6
TORSDOF 4
ENDMDL
MODEL 20
REMARK VINA RESULT:      -3.5     12.145     13.632
REMARK  4 active torsions:
REMARK  status: ('A' for Active; 'I' for Inactive)
REMARK    1  A    between atoms: C_2  and  C_5 
REMARK    2  A    between atoms: C_2  and  C_3 
REMARK    3  A    between atoms: C_3  and  O_4 
REMARK    4  A    between atoms: C_5  and  C_6 
ROOT
HETATM    1  C   LIG     1      13.595  27.300  13.534  1.00  0.00     0.012 C 
HETATM    2  C   LIG     1      15.095  27.615  13.614  1.00  0.00     0.005 C 
ENDROOT
BRANCH   2   3
HETATM    3  C   LIG     1      15.308  29.099  13.994  1.00  0.00     0.006 C 
BRANCH   3   4
HETATM    4  C   LIG     1      14.004  29.802  14.406  1.00  0.00    -0.004 C 
HETATM    5  C   LIG     1      14.252  30.814  15.521  1.00  0.00     0.005 C 
ENDBRANCH   3   4
ENDBRANCH   2   3
BRANCH   2   6
HETATM    6  C   LIG     1      15.795  27.229  12.296  1.00  0.00     0.168 C 
BRANCH   6   7
HETATM    7  O   LIG     1      14.877  26.686  11.385  1.00  0.00    -0.400 OA
HETATM    8  H   LIG     1      14.077  26.437  11.916  1.00  0.00     0.209 HD
ENDBRANCH   6   7
ENDBRANCH   2   6
TORSDOF 4
ENDMDL
