MODEL 1
REMARK VINA RESULT:      -5.6      0.000      0.000
REMARK  6 active torsions:
REMARK  status: ('A' for Active; 'I' for Inactive)
REMARK    1  A    between atoms: C_2  and  C_6 
REMARK    2  A    between atoms: C_2  and  O_3 
REMARK    3  A    between atoms: O_3  and  C_4 
REMARK    4  A    between atoms: C_6  and  C_7 
REMARK    5  A    between atoms: C_7  and  O_8 
REMARK    6  A    between atoms: O_8  and  C_9 
ROOT
HETATM    1  C   LIG     1      16.853  37.150  23.790  1.00  0.00     0.222 C 
ENDROOT
BRANCH   1   2
HETATM    2  C   LIG     1      17.508  37.788  24.973  1.00  0.00     0.268 C 
HETATM    3  O   LIG     1      17.079  38.893  25.406  1.00  0.00    -0.265 OA
BRANCH   2   4
HETATM    4  O   LIG     1      18.569  37.133  25.606  1.00  0.00    -0.321 OA
BRANCH   4   5
HETATM    5  C   LIG     1      18.403  36.284  26.739  1.00  0.00     0.174 C 
HETATM    6  C   LIG     1      18.227  34.834  26.303  1.00  0.00     0.034 C 
ENDBRANCH   4   5
ENDBRANCH   2   4
ENDBRANCH   1   2
BRANCH   1   7
HETATM    7  C   LIG     1      16.646  38.164  22.711  1.00  0.00     0.268 C 
HETATM    8  O   LIG     1      15.631  38.912  22.742  1.00  0.00    -0.265 OA
BRANCH   7   9
HETATM    9  O   LIG     1      17.579  38.264  21.674  1.00  0.00    -0.321 OA
BRANCH   9  10
HETATM   10  C   LIG     1      18.659  39.196  21.678  1.00  0.00     0.174 C 
HETATM   11  C   LIG     1      19.386  39.184  20.339  1.00  0.00     0.034 C 
ENDBRANCH   9  10
ENDBRANCH   7   9
ENDBRANCH   1   7
TORSDOF 6
ENDMDL
MODEL 2
REMARK VINA RESULT:      -5.6      0.157      4.750
REMARK  6 active torsions:
REMARK  status: ('A' for Active; 'I' for Inactive)
REMARK    1  A    between atoms: C_2  and  C_6 
REMARK    2  A    between atoms: C_2  and  O_3 
REMARK    3  A    between atoms: O_3  and  C_4 
REMARK    4  A    between atoms: C_6  and  C_7 
REMARK    5  A    between atoms: C_7  and  O_8 
REMARK    6  A    between atoms: O_8  and  C_9 
ROOT
HETATM    1  C   LIG     1      16.761  37.243  23.818  1.00  0.00     0.222 C 
ENDROOT
BRANCH   1   2
HETATM    2  C   LIG     1      16.729  38.256  22.720  1.00  0.00     0.268 C 
HETATM    3  O   LIG     1      15.815  39.125  22.696  1.00  0.00    -0.265 OA
BRANCH   2   4
HETATM    4  O   LIG     1      17.737  38.249  21.750  1.00  0.00    -0.321 OA
BRANCH   4   5
HETATM    5  C   LIG     1      18.570  39.373  21.475  1.00  0.00     0.174 C 
HETATM    6  C   LIG     1      19.475  39.092  20.281  1.00  0.00     0.034 C 
ENDBRANCH   4   5
ENDBRANCH   2   4
ENDBRANCH   1   2
BRANCH   1   7
HETATM    7  C   LIG     1      17.451  37.808  25.018  1.00  0.00     0.268 C 
HETATM    8  O   LIG     1      17.058  38.901  25.508  1.00  0.00    -0.265 OA
BRANCH   7   9
HETATM    9  O   LIG     1      18.531  37.118  25.579  1.00  0.00    -0.321 OA
BRANCH   9  10
HETATM   10  C   LIG     1      18.412  36.270  26.720  1.00  0.00     0.174 C 
HETATM   11  C   LIG     1      18.149  34.830  26.295  1.00  0.00     0.034 C 
ENDBRANCH   9  10
ENDBRANCH   7   9
ENDBRANCH   1   7
TORSDOF 6
ENDMDL
MODEL 3
REMARK VINA RESULT:      -5.5      1.506      4.641
REMARK  6 active torsions:
REMARK  status: ('A' for Active; 'I' for Inactive)
REMARK    1  A    between atoms: C_2  and  C_6 
REMARK    2  A    between atoms: C_2  and  O_3 
REMARK    3  A    between atoms: O_3  and  C_4 
REMARK    4  A    between atoms: C_6  and  C_7 
REMARK    5  A    between atoms: C_7  and  O_8 
REMARK    6  A    between atoms: O_8  and  C_9 
ROOT
HETATM    1  C   LIG     1      16.765  38.876  22.360  1.00  0.00     0.222 C 
ENDROOT
BRANCH   1   2
HETATM    2  C   LIG     1      18.159  39.060  21.853  1.00  0.00     0.268 C 
HETATM    3  O   LIG     1      19.126  39.052  22.663  1.00  0.00    -0.265 OA
BRANCH   2   4
HETATM    4  O   LIG     1      18.376  39.205  20.479  1.00  0.00    -0.321 OA
BRANCH   4   5
HETATM    5  C   LIG     1      19.313  38.419  19.745  1.00  0.00     0.174 C 
HETATM    6  C   LIG     1      18.886  36.956  19.722  1.00  0.00     0.034 C 
ENDBRANCH   4   5
ENDBRANCH   2   4
ENDBRANCH   1   2
BRANCH   1   7
HETATM    7  C   LIG     1      16.691  37.660  23.226  1.00  0.00     0.268 C 
HETATM    8  O   LIG     1      16.907  36.522  22.727  1.00  0.00    -0.265 OA
BRANCH   7   9
HETATM    9  O   LIG     1      16.377  37.799  24.582  1.00  0.00    -0.321 OA
BRANCH   9  10
HETATM   10  C   LIG     1      17.340  38.126  25.582  1.00  0.00     0.174 C 
HETATM   11  C   LIG     1      18.110  36.883  26.014  1.00  0.00     0.034 C 
ENDBRANCH   9  10
ENDBRANCH   7   9
ENDBRANCH   1   7
TORSDOF 6
ENDMDL
MODEL 4
REMARK VINA RESULT:      -5.5      1.247      4.927
REMARK  6 active torsions:
REMARK  status: ('A' for Active; 'I' for Inactive)
REMARK    1  A    between atoms: C_2  and  C_6 
REMARK    2  A    between atoms: C_2  and  O_3 
REMARK    3  A    between atoms: O_3  and  C_4 
REMARK    4  A    between atoms: C_6  and  C_7 
REMARK    5  A    between atoms: C_7  and  O_8 
REMARK    6  A    between atoms: O_8  and  C_9 
ROOT
HETATM    1  C   LIG     1      17.911  38.256  23.399  1.00  0.00     0.222 C 
ENDROOT
BRANCH   1   2
HETATM    2  C   LIG     1      17.691  37.924  21.958  1.00  0.00     0.268 C 
HETATM    3  O   LIG     1      17.347  36.755  21.630  1.00  0.00    -0.265 OA
BRANCH   2   4
HETATM    4  O   LIG     1      17.837  38.925  20.993  1.00  0.00    -0.321 OA
BRANCH   4   5
HETATM    5  C   LIG     1      19.101  39.441  20.580  1.00  0.00     0.174 C 
HETATM    6  C   LIG     1      19.763  38.501  19.578  1.00  0.00     0.034 C 
ENDBRANCH   4   5
ENDBRANCH   2   4
ENDBRANCH   1   2
BRANCH   1   7
HETATM    7  C   LIG     1      16.802  37.696  24.229  1.00  0.00     0.268 C 
HETATM    8  O   LIG     1      15.609  38.025  23.984  1.00  0.00    -0.265 OA
BRANCH   7   9
HETATM    9  O   LIG     1      17.101  36.816  25.275  1.00  0.00    -0.321 OA
BRANCH   9  10
HETATM   10  C   LIG     1      17.435  35.444  25.074  1.00  0.00     0.174 C 
HETATM   11  C   LIG     1      18.222  34.902  26.262  1.00  0.00     0.034 C 
ENDBRANCH   9  10
ENDBRANCH   7   9
ENDBRANCH   1   7
TORSDOF 6
ENDMDL
MODEL 5
REMARK VINA RESULT:      -5.4      1.620      2.203
REMARK  6 active torsions:
REMARK  status: ('A' for Active; 'I' for Inactive)
REMARK    1  A    between atoms: C_2  and  C_6 
REMARK    2  A    between atoms: C_2  and  O_3 
REMARK    3  A    between atoms: O_3  and  C_4 
REMARK    4  A    between atoms: C_6  and  C_7 
REMARK    5  A    between atoms: C_7  and  O_8 
REMARK    6  A    between atoms: O_8  and  C_9 
ROOT
HETATM    1  C   LIG     1      17.845  38.271  23.653  1.00  0.00     0.222 C 
ENDROOT
BRANCH   1   2
HETATM    2  C   LIG     1      17.773  37.985  25.118  1.00  0.00     0.268 C 
HETATM    3  O   LIG     1      16.903  38.562  25.827  1.00  0.00    -0.265 OA
BRANCH   2   4
HETATM    4  O   LIG     1      18.651  37.052  25.680  1.00  0.00    -0.321 OA
BRANCH   4   5
HETATM    5  C   LIG     1      18.238  36.033  26.587  1.00  0.00     0.174 C 
HETATM    6  C   LIG     1      17.488  34.928  25.851  1.00  0.00     0.034 C 
ENDBRANCH   4   5
ENDBRANCH   2   4
ENDBRANCH   1   2
BRANCH   1   7
HETATM    7  C   LIG     1      16.549  37.918  22.997  1.00  0.00     0.268 C 
HETATM    8  O   LIG     1      15.691  38.817  22.783  1.00  0.00    -0.265 OA
BRANCH   7   9
HETATM    9  O   LIG     1      16.302  36.590  22.633  1.00  0.00    -0.321 OA
BRANCH   9  10
HETATM   10  C   LIG     1      17.004  35.919  21.588  1.00  0.00     0.174 C 
HETATM   11  C   LIG     1      16.236  34.685  21.131  1.00  0.00     0.034 C 
ENDBRANCH   9  10
ENDBRANCH   7   9
ENDBRANCH   1   7
TORSDOF 6
ENDMDL
MODEL 6
REMARK VINA RESULT:      -5.4      1.309      2.270
REMARK  6 active torsions:
REMARK  status: ('A' for Active; 'I' for Inactive)
REMARK    1  A    between atoms: C_2  and  C_6 
REMARK    2  A    between atoms: C_2  and  O_3 
REMARK    3  A    between atoms: O_3  and  C_4 
REMARK    4  A    between atoms: C_6  and  C_7 
REMARK    5  A    between atoms: C_7  and  O_8 
REMARK    6  A    between atoms: O_8  and  C_9 
ROOT
HETATM    1  C   LIG     1      16.329  36.812  22.296  1.00  0.00     0.222 C 
ENDROOT
BRANCH   1   2
HETATM    2  C   LIG     1      16.063  37.979  23.191  1.00  0.00     0.268 C 
HETATM    3  O   LIG     1      15.589  39.044  22.708  1.00  0.00    -0.265 OA
BRANCH   2   4
HETATM    4  O   LIG     1      16.312  37.864  24.562  1.00  0.00    -0.321 OA
BRANCH   4   5
HETATM    5  C   LIG     1      17.595  38.075  25.148  1.00  0.00     0.174 C 
HETATM    6  C   LIG     1      17.998  36.880  26.005  1.00  0.00     0.034 C 
ENDBRANCH   4   5
ENDBRANCH   2   4
ENDBRANCH   1   2
BRANCH   1   7
HETATM    7  C   LIG     1      17.475  37.116  21.385  1.00  0.00     0.268 C 
HETATM    8  O   LIG     1      17.705  36.365  20.398  1.00  0.00    -0.265 OA
BRANCH   7   9
HETATM    9  O   LIG     1      18.283  38.229  21.642  1.00  0.00    -0.321 OA
BRANCH   9  10
HETATM   10  C   LIG     1      18.566  39.234  20.671  1.00  0.00     0.174 C 
HETATM   11  C   LIG     1      19.893  38.953  19.977  1.00  0.00     0.034 C 
ENDBRANCH   9  10
ENDBRANCH   7   9
ENDBRANCH   1   7
TORSDOF 6
ENDMDL
MODEL 7
REMARK VINA RESULT:      -5.3      1.490      4.317
REMARK  6 active torsions:
REMARK  status: ('A' for Active; 'I' for Inactive)
REMARK    1  A    between atoms: C_2  and  C_6 
REMARK    2  A    between atoms: C_2  and  O_3 
REMARK    3  A    between atoms: O_3  and  C_4 
REMARK    4  A    between atoms: C_6  and  C_7 
REMARK    5  A    between atoms: C_7  and  O_8 
REMARK    6  A    between atoms: O_8  and  C_9 
ROOT
HETATM    1  C   LIG     1      16.559  38.296  23.113  1.00  0.00     0.222 C 
ENDROOT
BRANCH   1   2
HETATM    2  C   LIG     1      17.671  38.168  22.123  1.00  0.00     0.268 C 
HETATM    3  O   LIG     1      18.599  39.023  22.110  1.00  0.00    -0.265 OA
BRANCH   2   4
HETATM    4  O   LIG     1      17.686  37.081  21.244  1.00  0.00    -0.321 OA
BRANCH   4   5
HETATM    5  C   LIG     1      16.616  36.145  21.135  1.00  0.00     0.174 C 
HETATM    6  C   LIG     1      16.919  34.885  21.938  1.00  0.00     0.034 C 
ENDBRANCH   4   5
ENDBRANCH   2   4
ENDBRANCH   1   2
BRANCH   1   7
HETATM    7  C   LIG     1      17.060  37.997  24.489  1.00  0.00     0.268 C 
HETATM    8  O   LIG     1      17.076  38.907  25.361  1.00  0.00    -0.265 OA
BRANCH   7   9
HETATM    9  O   LIG     1      17.511  36.707  24.791  1.00  0.00    -0.321 OA
BRANCH   9  10
HETATM   10  C   LIG     1      18.180  36.374  26.006  1.00  0.00     0.174 C 
HETATM   11  C   LIG     1      18.145  34.870  26.246  1.00  0.00     0.034 C 
ENDBRANCH   9  10
ENDBRANCH   7   9
ENDBRANCH   1   7
TORSDOF 6
ENDMDL
MODEL 8
REMARK VINA RESULT:      -5.2      2.684      4.689
REMARK  6 active torsions:
REMARK  status: ('A' for Active; 'I' for Inactive)
REMARK    1  A    between atoms: C_2  and  C_6 
REMARK    2  A    between atoms: C_2  and  O_3 
REMARK    3  A    between atoms: O_3  and  C_4 
REMARK    4  A    between atoms: C_6  and  C_7 
REMARK    5  A    between atoms: C_7  and  O_8 
REMARK    6  A    between atoms: O_8  and  C_9 
ROOT
HETATM    1  C   LIG     1      17.215  37.402  22.135  1.00  0.00     0.222 C 
ENDROOT
BRANCH   1   2
HETATM    2  C   LIG     1      17.054  35.930  21.932  1.00  0.00     0.268 C 
HETATM    3  O   LIG     1      16.986  35.164  22.932  1.00  0.00    -0.265 OA
BRANCH   2   4
HETATM    4  O   LIG     1      16.946  35.424  20.633  1.00  0.00    -0.321 OA
BRANCH   4   5
HETATM    5  C   LIG     1      15.717  34.974  20.065  1.00  0.00     0.174 C 
HETATM    6  C   LIG     1      15.569  33.465  20.230  1.00  0.00     0.034 C 
ENDBRANCH   4   5
ENDBRANCH   2   4
ENDBRANCH   1   2
BRANCH   1   7
HETATM    7  C   LIG     1      16.817  37.775  23.527  1.00  0.00     0.268 C 
HETATM    8  O   LIG     1      15.601  37.967  23.799  1.00  0.00    -0.265 OA
BRANCH   7   9
HETATM    9  O   LIG     1      17.802  37.911  24.511  1.00  0.00    -0.321 OA
BRANCH   9  10
HETATM   10  C   LIG     1      17.615  37.516  25.869  1.00  0.00     0.174 C 
HETATM   11  C   LIG     1      18.321  36.194  26.147  1.00  0.00     0.034 C 
ENDBRANCH   9  10
ENDBRANCH   7   9
ENDBRANCH   1   7
TORSDOF 6
ENDMDL
MODEL 9
REMARK VINA RESULT:      -5.0      9.456     11.116
REMARK  6 active torsions:
REMARK  status: ('A' for Active; 'I' for Inactive)
REMARK    1  A    between atoms: C_2  and  C_6 
REMARK    2  A    between atoms: C_2  and  O_3 
REMARK    3  A    between atoms: O_3  and  C_4 
REMARK    4  A    between atoms: C_6  and  C_7 
REMARK    5  A    between atoms: C_7  and  O_8 
REMARK    6  A    between atoms: O_8  and  C_9 
ROOT
HETATM    1  C   LIG     1      16.537  32.259  15.456  1.00  0.00     0.222 C 
ENDROOT
BRANCH   1   2
HETATM    2  C   LIG     1      16.168  32.142  14.012  1.00  0.00     0.268 C 
HETATM    3  O   LIG     1      16.202  33.164  13.272  1.00  0.00    -0.265 OA
BRANCH   2   4
HETATM    4  O   LIG     1      15.821  30.891  13.491  1.00  0.00    -0.321 OA
BRANCH   4   5
HETATM    5  C   LIG     1      15.375  29.802  14.296  1.00  0.00     0.174 C 
HETATM    6  C   LIG     1      13.876  29.903  14.554  1.00  0.00     0.034 C 
ENDBRANCH   4   5
ENDBRANCH   2   4
ENDBRANCH   1   2
BRANCH   1   7
HETATM    7  C   LIG     1      15.644  33.247  16.135  1.00  0.00     0.268 C 
HETATM    8  O   LIG     1      16.007  34.450  16.239  1.00  0.00    -0.265 OA
BRANCH   7   9
HETATM    9  O   LIG     1      14.416  32.821  16.653  1.00  0.00    -0.321 OA
BRANCH   9  10
HETATM   10  C   LIG     1      14.299  31.894  17.731  1.00  0.00     0.174 C 
HETATM   11  C   LIG     1      15.145  32.338  18.918  1.00  0.00     0.034 C 
ENDBRANCH   9  10
ENDBRANCH   7   9
ENDBRANCH   1   7
TORSDOF 6
ENDMDL
MODEL 10
REMARK VINA RESULT:      -5.0      9.388     10.671
REMARK  6 active torsions:
REMARK  status: ('A' for Active; 'I' for Inactive)
REMARK    1  A    between atoms: C_2  and  C_6 
REMARK    2  A    between atoms: C_2  and  O_3 
REMARK    3  A    between atoms: O_3  and  C_4 
REMARK    4  A    between atoms: C_6  and  C_7 
REMARK    5  A    between atoms: C_7  and  O_8 
REMARK    6  A    between atoms: O_8  and  C_9 
ROOT
HETATM    1  C   LIG     1      16.498  32.340  15.508  1.00  0.00     0.222 C 
ENDROOT
BRANCH   1   2
HETATM    2  C   LIG     1      15.597  33.302  16.211  1.00  0.00     0.268 C 
HETATM    3  O   LIG     1      15.926  34.517  16.303  1.00  0.00    -0.265 OA
BRANCH   2   4
HETATM    4  O   LIG     1      14.380  32.849  16.731  1.00  0.00    -0.321 OA
BRANCH   4   5
HETATM    5  C   LIG     1      14.283  31.857  17.751  1.00  0.00     0.174 C 
HETATM    6  C   LIG     1      15.058  32.284  18.992  1.00  0.00     0.034 C 
ENDBRANCH   4   5
ENDBRANCH   2   4
ENDBRANCH   1   2
BRANCH   1   7
HETATM    7  C   LIG     1      16.146  32.275  14.056  1.00  0.00     0.268 C 
HETATM    8  O   LIG     1      16.489  33.214  13.287  1.00  0.00    -0.265 OA
BRANCH   7   9
HETATM    9  O   LIG     1      15.433  31.174  13.569  1.00  0.00    -0.321 OA
BRANCH   9  10
HETATM   10  C   LIG     1      15.189  29.996  14.336  1.00  0.00     0.174 C 
HETATM   11  C   LIG     1      13.707  29.868  14.669  1.00  0.00     0.034 C 
ENDBRANCH   9  10
ENDBRANCH   7   9
ENDBRANCH   1   7
TORSDOF 6
ENDMDL
MODEL 11
REMARK VINA RESULT:      -5.0      7.483      9.205
REMARK  6 active torsions:
REMARK  status: ('A' for Active; 'I' for Inactive)
REMARK    1  A    between atoms: C_2  and  C_6 
REMARK    2  A    between atoms: C_2  and  O_3 
REMARK    3  A    between atoms: O_3  and  C_4 
REMARK    4  A    between atoms: C_6  and  C_7 
REMARK    5  A    between atoms: C_7  and  O_8 
REMARK    6  A    between atoms: O_8  and  C_9 
ROOT
HETATM    1  C   LIG     1      14.355  32.410  17.409  1.00  0.00     0.222 C 
ENDROOT
BRANCH   1   2
HETATM    2  C   LIG     1      15.298  33.306  16.673  1.00  0.00     0.268 C 
HETATM    3  O   LIG     1      15.041  34.537  16.570  1.00  0.00    -0.265 OA
BRANCH   2   4
HETATM    4  O   LIG     1      16.474  32.772  16.136  1.00  0.00    -0.321 OA
BRANCH   4   5
HETATM    5  C   LIG     1      16.760  32.750  14.739  1.00  0.00     0.174 C 
HETATM    6  C   LIG     1      15.849  31.761  14.020  1.00  0.00     0.034 C 
ENDBRANCH   4   5
ENDBRANCH   2   4
ENDBRANCH   1   2
BRANCH   1   7
HETATM    7  C   LIG     1      14.854  32.171  18.798  1.00  0.00     0.268 C 
HETATM    8  O   LIG     1      14.450  31.165  19.443  1.00  0.00    -0.265 OA
BRANCH   7   9
HETATM    9  O   LIG     1      15.760  33.072  19.368  1.00  0.00    -0.321 OA
BRANCH   9  10
HETATM   10  C   LIG     1      15.479  33.830  20.543  1.00  0.00     0.174 C 
HETATM   11  C   LIG     1      16.031  35.245  20.416  1.00  0.00     0.034 C 
ENDBRANCH   9  10
ENDBRANCH   7   9
ENDBRANCH   1   7
TORSDOF 6
ENDMDL
MODEL 12
REMARK VINA RESULT:      -4.9     10.345     11.665
REMARK  6 active torsions:
REMARK  status: ('A' for Active; 'I' for Inactive)
REMARK    1  A    between atoms: C_2  and  C_6 
REMARK    2  A    between atoms: C_2  and  O_3 
REMARK    3  A    between atoms: O_3  and  C_4 
REMARK    4  A    between atoms: C_6  and  C_7 
REMARK    5  A    between atoms: C_7  and  O_8 
REMARK    6  A    between atoms: O_8  and  C_9 
ROOT
HETATM    1  C   LIG     1      17.820  33.260  14.694  1.00  0.00     0.222 C 
ENDROOT
BRANCH   1   2
HETATM    2  C   LIG     1      16.543  32.520  14.926  1.00  0.00     0.268 C 
HETATM    3  O   LIG     1      15.580  33.098  15.501  1.00  0.00    -0.265 OA
BRANCH   2   4
HETATM    4  O   LIG     1      16.420  31.204  14.470  1.00  0.00    -0.321 OA
BRANCH   4   5
HETATM    5  C   LIG     1      15.389  30.773  13.584  1.00  0.00     0.174 C 
HETATM    6  C   LIG     1      14.406  29.858  14.306  1.00  0.00     0.034 C 
ENDBRANCH   4   5
ENDBRANCH   2   4
ENDBRANCH   1   2
BRANCH   1   7
HETATM    7  C   LIG     1      17.897  33.718  13.273  1.00  0.00     0.268 C 
HETATM    8  O   LIG     1      17.406  34.833  12.948  1.00  0.00    -0.265 OA
BRANCH   7   9
HETATM    9  O   LIG     1      18.509  32.899  12.318  1.00  0.00    -0.321 OA
BRANCH   9  10
HETATM   10  C   LIG     1      19.645  33.300  11.553  1.00  0.00     0.174 C 
HETATM   11  C   LIG     1      20.774  33.761  12.467  1.00  0.00     0.034 C 
ENDBRANCH   9  10
ENDBRANCH   7   9
ENDBRANCH   1   7
TORSDOF 6
ENDMDL
MODEL 13
REMARK VINA RESULT:      -4.9      9.121     10.047
REMARK  6 active torsions:
REMARK  status: ('A' for Active; 'I' for Inactive)
REMARK    1  A    between atoms: C_2  and  C_6 
REMARK    2  A    between atoms: C_2  and  O_3 
REMARK    3  A    between atoms: O_3  and  C_4 
REMARK    4  A    between atoms: C_6  and  C_7 
REMARK    5  A    between atoms: C_7  and  O_8 
REMARK    6  A    between atoms: O_8  and  C_9 
ROOT
HETATM    1  C   LIG     1      13.699  32.785  16.650  1.00  0.00     0.222 C 
ENDROOT
BRANCH   1   2
HETATM    2  C   LIG     1      15.021  33.304  17.116  1.00  0.00     0.268 C 
HETATM    3  O   LIG     1      15.498  34.353  16.604  1.00  0.00    -0.265 OA
BRANCH   2   4
HETATM    4  O   LIG     1      15.697  32.636  18.143  1.00  0.00    -0.321 OA
BRANCH   4   5
HETATM    5  C   LIG     1      15.320  32.719  19.515  1.00  0.00     0.174 C 
HETATM    6  C   LIG     1      14.849  31.362  20.026  1.00  0.00     0.034 C 
ENDBRANCH   4   5
ENDBRANCH   2   4
ENDBRANCH   1   2
BRANCH   1   7
HETATM    7  C   LIG     1      13.770  31.304  16.456  1.00  0.00     0.268 C 
HETATM    8  O   LIG     1      13.008  30.549  17.119  1.00  0.00    -0.265 OA
BRANCH   7   9
HETATM    9  O   LIG     1      14.687  30.773  15.542  1.00  0.00    -0.321 OA
BRANCH   9  10
HETATM   10  C   LIG     1      14.304  30.160  14.312  1.00  0.00     0.174 C 
HETATM   11  C   LIG     1      15.281  29.053  13.936  1.00  0.00     0.034 C 
ENDBRANCH   9  10
ENDBRANCH   7   9
ENDBRANCH   1   7
TORSDOF 6
ENDMDL
MODEL 14
REMARK VINA RESULT:      -4.8     10.333     12.196
REMARK  6 active torsions:
REMARK  status: ('A' for Active; 'I' for Inactive)
REMARK    1  A    between atoms: C_2  and  C_6 
REMARK    2  A    between atoms: C_2  and  O_3 
REMARK    3  A    between atoms: O_3  and  C_4 
REMARK    4  A    between atoms: C_6  and  C_7 
REMARK    5  A    between atoms: C_7  and  O_8 
REMARK    6  A    between atoms: O_8  and  C_9 
ROOT
HETATM    1  C   LIG     1      17.852  33.226  14.677  1.00  0.00     0.222 C 
ENDROOT
BRANCH   1   2
HETATM    2  C   LIG     1      17.893  33.697  13.259  1.00  0.00     0.268 C 
HETATM    3  O   LIG     1      17.382  34.808  12.953  1.00  0.00    -0.265 OA
BRANCH   2   4
HETATM    4  O   LIG     1      18.531  32.911  12.293  1.00  0.00    -0.321 OA
BRANCH   4   5
HETATM    5  C   LIG     1      19.682  33.338  11.569  1.00  0.00     0.174 C 
HETATM    6  C   LIG     1      20.761  33.840  12.522  1.00  0.00     0.034 C 
ENDBRANCH   4   5
ENDBRANCH   2   4
ENDBRANCH   1   2
BRANCH   1   7
HETATM    7  C   LIG     1      16.548  32.551  14.955  1.00  0.00     0.268 C 
HETATM    8  O   LIG     1      15.619  33.191  15.519  1.00  0.00    -0.265 OA
BRANCH   7   9
HETATM    9  O   LIG     1      16.375  31.211  14.590  1.00  0.00    -0.321 OA
BRANCH   9  10
HETATM   10  C   LIG     1      15.428  30.780  13.614  1.00  0.00     0.174 C 
HETATM   11  C   LIG     1      14.661  29.560  14.112  1.00  0.00     0.034 C 
ENDBRANCH   9  10
ENDBRANCH   7   9
ENDBRANCH   1   7
TORSDOF 6
ENDMDL
MODEL 15
REMARK VINA RESULT:      -4.8      2.065      4.290
REMARK  6 active torsions:
REMARK  status: ('A' for Active; 'I' for Inactive)
REMARK    1  A    between atoms: C_2  and  C_6 
REMARK    2  A    between atoms: C_2  and  O_3 
REMARK    3  A    between atoms: O_3  and  C_4 
REMARK    4  A    between atoms: C_6  and  C_7 
REMARK    5  A    between atoms: C_7  and  O_8 
REMARK    6  A    between atoms: O_8  and  C_9 
ROOT
HETATM    1  C   LIG     1      17.163  37.063  24.505  1.00  0.00     0.222 C 
ENDROOT
BRANCH   1   2
HETATM    2  C   LIG     1      16.869  38.013  23.390  1.00  0.00     0.268 C 
HETATM    3  O   LIG     1      15.676  38.345  23.148  1.00  0.00    -0.265 OA
BRANCH   2   4
HETATM    4  O   LIG     1      17.926  38.551  22.648  1.00  0.00    -0.321 OA
BRANCH   4   5
HETATM    5  C   LIG     1      17.990  38.506  21.225  1.00  0.00     0.174 C 
HETATM    6  C   LIG     1      19.247  39.206  20.720  1.00  0.00     0.034 C 
ENDBRANCH   4   5
ENDBRANCH   2   4
ENDBRANCH   1   2
BRANCH   1   7
HETATM    7  C   LIG     1      17.177  35.659  23.991  1.00  0.00     0.268 C 
HETATM    8  O   LIG     1      17.199  34.696  24.805  1.00  0.00    -0.265 OA
BRANCH   7   9
HETATM    9  O   LIG     1      17.169  35.431  22.611  1.00  0.00    -0.321 OA
BRANCH   9  10
HETATM   10  C   LIG     1      16.062  34.861  21.915  1.00  0.00     0.174 C 
HETATM   11  C   LIG     1      16.048  35.317  20.461  1.00  0.00     0.034 C 
ENDBRANCH   9  10
ENDBRANCH   7   9
ENDBRANCH   1   7
TORSDOF 6
ENDMDL
MODEL 16
REMARK VINA RESULT:      -4.7      8.440      9.429
REMARK  6 active torsions:
REMARK  status: ('A' for Active; 'I' for Inactive)
REMARK    1  A    between atoms: C_2  and  C_6 
REMARK    2  A    between atoms: C_2  and  O_3 
REMARK    3  A    between atoms: O_3  and  C_4 
REMARK    4  A    between atoms: C_6  and  C_7 
REMARK    5  A    between atoms: C_7  and  O_8 
REMARK    6  A    between atoms: O_8  and  C_9 
ROOT
HETATM    1  C   LIG     1      14.883  33.176  17.039  1.00  0.00     0.222 C 
ENDROOT
BRANCH   1   2
HETATM    2  C   LIG     1      14.901  32.388  18.309  1.00  0.00     0.268 C 
HETATM    3  O   LIG     1      14.147  31.384  18.434  1.00  0.00    -0.265 OA
BRANCH   2   4
HETATM    4  O   LIG     1      15.781  32.755  19.332  1.00  0.00    -0.321 OA
BRANCH   4   5
HETATM    5  C   LIG     1      15.411  33.598  20.421  1.00  0.00     0.174 C 
HETATM    6  C   LIG     1      15.833  35.038  20.154  1.00  0.00     0.034 C 
ENDBRANCH   4   5
ENDBRANCH   2   4
ENDBRANCH   1   2
BRANCH   1   7
HETATM    7  C   LIG     1      15.642  32.450  15.975  1.00  0.00     0.268 C 
HETATM    8  O   LIG     1      16.857  32.724  15.776  1.00  0.00    -0.265 OA
BRANCH   7   9
HETATM    9  O   LIG     1      14.992  31.477  15.208  1.00  0.00    -0.321 OA
BRANCH   9  10
HETATM   10  C   LIG     1      15.493  30.996  13.962  1.00  0.00     0.174 C 
HETATM   11  C   LIG     1      15.183  29.513  13.794  1.00  0.00     0.034 C 
ENDBRANCH   9  10
ENDBRANCH   7   9
ENDBRANCH   1   7
TORSDOF 6
ENDMDL
MODEL 17
REMARK VINA RESULT:      -4.7      8.936     10.361
REMARK  6 active torsions:
REMARK  status: ('A' for Active; 'I' for Inactive)
REMARK    1  A    between atoms: C_2  and  C_6 
REMARK    2  A    between atoms: C_2  and  O_3 
REMARK    3  A    between atoms: O_3  and  C_4 
REMARK    4  A    between atoms: C_6  and  C_7 
REMARK    5  A    between atoms: C_7  and  O_8 
REMARK    6  A    between atoms: O_8  and  C_9 
ROOT
HETATM    1  C   LIG     1      13.732  32.770  16.789  1.00  0.00     0.222 C 
ENDROOT
BRANCH   1   2
HETATM    2  C   LIG     1      13.910  31.335  16.412  1.00  0.00     0.268 C 
HETATM    3  O   LIG     1      13.233  30.445  16.997  1.00  0.00    -0.265 OA
BRANCH   2   4
HETATM    4  O   LIG     1      14.802  31.000  15.389  1.00  0.00    -0.321 OA
BRANCH   4   5
HETATM    5  C   LIG     1      14.427  30.254  14.233  1.00  0.00     0.174 C 
HETATM    6  C   LIG     1      15.310  29.020  14.079  1.00  0.00     0.034 C 
ENDBRANCH   4   5
ENDBRANCH   2   4
ENDBRANCH   1   2
BRANCH   1   7
HETATM    7  C   LIG     1      15.036  33.348  17.236  1.00  0.00     0.268 C 
HETATM    8  O   LIG     1      15.464  34.410  16.708  1.00  0.00    -0.265 OA
BRANCH   7   9
HETATM    9  O   LIG     1      15.771  32.698  18.234  1.00  0.00    -0.321 OA
BRANCH   9  10
HETATM   10  C   LIG     1      15.307  32.543  19.574  1.00  0.00     0.174 C 
HETATM   11  C   LIG     1      15.637  33.778  20.404  1.00  0.00     0.034 C 
ENDBRANCH   9  10
ENDBRANCH   7   9
ENDBRANCH   1   7
TORSDOF 6
ENDMDL
MODEL 18
REMARK VINA RESULT:      -4.6      8.766     10.540
REMARK  6 active torsions:
REMARK  status: ('A' for Active; 'I' for Inactive)
REMARK    1  A    between atoms: C_2  and  C_6 
REMARK    2  A    between atoms: C_2  and  O_3 
REMARK    3  A    between atoms: O_3  and  C_4 
REMARK    4  A    between atoms: C_6  and  C_7 
REMARK    5  A    between atoms: C_7  and  O_8 
REMARK    6  A    between atoms: O_8  and  C_9 
ROOT
HETATM    1  C   LIG     1      14.637  33.522  16.849  1.00  0.00     0.222 C 
ENDROOT
BRANCH   1   2
HETATM    2  C   LIG     1      15.906  33.670  16.074  1.00  0.00     0.268 C 
HETATM    3  O   LIG     1      16.501  34.782  16.052  1.00  0.00    -0.265 OA
BRANCH   2   4
HETATM    4  O   LIG     1      16.437  32.560  15.408  1.00  0.00    -0.321 OA
BRANCH   4   5
HETATM    5  C   LIG     1      16.224  32.300  14.022  1.00  0.00     0.174 C 
HETATM    6  C   LIG     1      17.262  33.028  13.174  1.00  0.00     0.034 C 
ENDBRANCH   4   5
ENDBRANCH   2   4
ENDBRANCH   1   2
BRANCH   1   7
HETATM    7  C   LIG     1      14.728  32.343  17.762  1.00  0.00     0.268 C 
HETATM    8  O   LIG     1      15.599  32.324  18.675  1.00  0.00    -0.265 OA
BRANCH   7   9
HETATM    9  O   LIG     1      13.848  31.269  17.590  1.00  0.00    -0.321 OA
BRANCH   9  10
HETATM   10  C   LIG     1      12.872  31.213  16.551  1.00  0.00     0.174 C 
HETATM   11  C   LIG     1      13.360  30.341  15.401  1.00  0.00     0.034 C 
ENDBRANCH   9  10
ENDBRANCH   7   9
ENDBRANCH   1   7
TORSDOF 6
ENDMDL
MODEL 19
REMARK VINA RESULT:      -4.6      9.068     10.261
REMARK  6 active torsions:
REMARK  status: ('A' for Active; 'I' for Inactive)
REMARK    1  A    between atoms: C_2  and  C_6 
REMARK    2  A    between atoms: C_2  and  O_3 
REMARK    3  A    between atoms: O_3  and  C_4 
REMARK    4  A    between atoms: C_6  and  C_7 
REMARK    5  A    between atoms: C_7  and  O_8 
REMARK    6  A    between atoms: O_8  and  C_9 
ROOT
HETATM    1  C   LIG     1      13.908  33.118  16.910  1.00  0.00     0.222 C 
ENDROOT
BRANCH   1   2
HETATM    2  C   LIG     1      14.080  31.697  17.338  1.00  0.00     0.268 C 
HETATM    3  O   LIG     1      14.124  31.413  18.566  1.00  0.00    -0.265 OA
BRANCH   2   4
HETATM    4  O   LIG     1      14.156  30.693  16.367  1.00  0.00    -0.321 OA
BRANCH   4   5
HETATM    5  C   LIG     1      13.092  30.389  15.467  1.00  0.00     0.174 C 
HETATM    6  C   LIG     1      13.587  29.500  14.331  1.00  0.00     0.034 C 
ENDBRANCH   4   5
ENDBRANCH   2   4
ENDBRANCH   1   2
BRANCH   1   7
HETATM    7  C   LIG     1      15.224  33.827  16.945  1.00  0.00     0.268 C 
HETATM    8  O   LIG     1      15.614  34.371  18.014  1.00  0.00    -0.265 OA
BRANCH   7   9
HETATM    9  O   LIG     1      16.006  33.883  15.786  1.00  0.00    -0.321 OA
BRANCH   9  10
HETATM   10  C   LIG     1      16.756  32.775  15.292  1.00  0.00     0.174 C 
HETATM   11  C   LIG     1      16.175  32.275  13.975  1.00  0.00     0.034 C 
ENDBRANCH   9  10
ENDBRANCH   7   9
ENDBRANCH   1   7
TORSDOF 6
ENDMDL
MODEL 20
REMARK VINA RESULT:      -4.4      9.501     11.423
REMARK  6 active torsions:
REMARK  status: ('A' for Active; 'I' for Inactive)
REMARK    1  A    between atoms: C_2  and  C_6 
REMARK    2  A    between atoms: C_2  and  O_3 
REMARK    3  A    between atoms: O_3  and  C_4 
REMARK    4  A    between atoms: C_6  and  C_7 
REMARK    5  A    between atoms: C_7  and  O_8 
REMARK    6  A    between atoms: O_8  and  C_9 
ROOT
HETATM    1  C   LIG     1      16.557  32.857  13.562  1.00  0.00     0.222 C 
ENDROOT
BRANCH   1   2
HETATM    2  C   LIG     1      17.718  33.781  13.736  1.00  0.00     0.268 C 
HETATM    3  O   LIG     1      17.534  34.934  14.214  1.00  0.00    -0.265 OA
BRANCH   2   4
HETATM    4  O   LIG     1      19.002  33.342  13.397  1.00  0.00    -0.321 OA
BRANCH   4   5
HETATM    5  C   LIG     1      19.797  33.951  12.382  1.00  0.00     0.174 C 
HETATM    6  C   LIG     1      21.277  33.880  12.743  1.00  0.00     0.034 C 
ENDBRANCH   4   5
ENDBRANCH   2   4
ENDBRANCH   1   2
BRANCH   1   7
HETATM    7  C   LIG     1      16.408  31.987  14.769  1.00  0.00     0.268 C 
HETATM    8  O   LIG     1      16.324  30.736  14.633  1.00  0.00    -0.265 OA
BRANCH   7   9
HETATM    9  O   LIG     1      16.360  32.575  16.038  1.00  0.00    -0.321 OA
BRANCH   9  10
HETATM   10  C   LIG     1      15.183  33.171  16.582  1.00  0.00     0.174 C 
HETATM   11  C   LIG     1      14.391  32.154  17.395  1.00  0.00     0.034 C 
ENDBRANCH   9  10
ENDBRANCH   7   9
ENDBRANCH   1   7
TORSDOF 6
ENDMDL
