REMARK  1 active torsions:
REMARK  status: ('A' for Active; 'I' for Inactive)
REMARK    1  A    between atoms: O_1  and  C_2 
ROOT
HETATM    1  C   LIG     1      -1.163   1.010  -0.095  1.00  0.00     0.071 A 
HETATM    2  C   LIG     1      -0.013   1.782  -0.311  1.00  0.00     0.037 A 
HETATM    3  C   LIG     1       1.251   1.189  -0.282  1.00  0.00     0.009 A 
HETATM    4  C   LIG     1       1.382  -0.183  -0.026  1.00  0.00    -0.061 A 
HETATM    5  C   LIG     1       2.737  -0.828  -0.039  1.00  0.00     0.048 C 
HETATM    6  C   LIG     1       0.232  -0.962   0.173  1.00  0.00     0.016 A 
HETATM    7  C   LIG     1      -1.043  -0.370   0.154  1.00  0.00    -0.028 A 
HETATM    8  C   LIG     1      -2.271  -1.211   0.364  1.00  0.00     0.051 C 
ENDROOT
BRANCH   1   9
HETATM    9  O   LIG     1      -2.422   1.607  -0.130  1.00  0.00    -0.360 OA
HETATM   10  H   LIG     1      -2.535   2.599  -0.308  1.00  0.00     0.217 HD
ENDBRANCH   1   9
TORSDOF 1
