MODEL 1
REMARK VINA RESULT:      -4.5      0.000      0.000
REMARK  4 active torsions:
REMARK  status: ('A' for Active; 'I' for Inactive)
REMARK    1  A    between atoms: C_2  and  O_6 
REMARK    2  A    between atoms: C_2  and  O_3 
REMARK    3  A    between atoms: O_3  and  C_4 
REMARK    4  A    between atoms: O_6  and  C_7 
ROOT
HETATM    1  C   LIG     1      17.203  38.939  22.498  1.00  0.00     0.070 C 
HETATM    2  C   LIG     1      16.509  37.704  23.121  1.00  0.00     0.255 C 
ENDROOT
BRANCH   2   3
HETATM    3  O   LIG     1      16.216  37.895  24.498  1.00  0.00    -0.362 OA
BRANCH   3   4
HETATM    4  C   LIG     1      17.369  38.192  25.259  1.00  0.00     0.166 C 
HETATM    5  C   LIG     1      17.945  36.897  25.808  1.00  0.00     0.033 C 
ENDBRANCH   3   4
ENDBRANCH   2   3
BRANCH   2   6
HETATM    6  O   LIG     1      15.419  37.108  22.414  1.00  0.00    -0.362 OA
BRANCH   6   7
HETATM    7  C   LIG     1      15.767  35.985  21.628  1.00  0.00     0.166 C 
HETATM    8  C   LIG     1      16.886  35.225  22.322  1.00  0.00     0.033 C 
ENDBRANCH   6   7
ENDBRANCH   2   6
TORSDOF 4
ENDMDL
MODEL 2
REMARK VINA RESULT:      -4.5      0.463      3.160
REMARK  4 active torsions:
REMARK  status: ('A' for Active; 'I' for Inactive)
REMARK    1  A    between atoms: C_2  and  O_6 
REMARK    2  A    between atoms: C_2  and  O_3 
REMARK    3  A    between atoms: O_3  and  C_4 
REMARK    4  A    between atoms: O_6  and  C_7 
ROOT
HETATM    1  C   LIG     1      17.263  38.876  22.365  1.00  0.00     0.070 C 
HETATM    2  C   LIG     1      16.085  38.133  23.042  1.00  0.00     0.255 C 
ENDROOT
BRANCH   2   3
HETATM    3  O   LIG     1      15.663  37.005  22.288  1.00  0.00    -0.362 OA
BRANCH   3   4
HETATM    4  C   LIG     1      16.745  36.328  21.681  1.00  0.00     0.166 C 
HETATM    5  C   LIG     1      17.027  35.051  22.457  1.00  0.00     0.033 C 
ENDBRANCH   3   4
ENDBRANCH   2   3
BRANCH   2   6
HETATM    6  O   LIG     1      16.177  37.845  24.440  1.00  0.00    -0.362 OA
BRANCH   6   7
HETATM    7  C   LIG     1      17.415  38.188  25.033  1.00  0.00     0.166 C 
HETATM    8  C   LIG     1      17.888  37.027  25.893  1.00  0.00     0.033 C 
ENDBRANCH   6   7
ENDBRANCH   2   6
TORSDOF 4
ENDMDL
MODEL 3
REMARK VINA RESULT:      -4.4      1.358      2.455
REMARK  4 active torsions:
REMARK  status: ('A' for Active; 'I' for Inactive)
REMARK    1  A    between atoms: C_2  and  O_6 
REMARK    2  A    between atoms: C_2  and  O_3 
REMARK    3  A    between atoms: O_3  and  C_4 
REMARK    4  A    between atoms: O_6  and  C_7 
ROOT
HETATM    1  C   LIG     1      16.725  36.130  22.688  1.00  0.00     0.070 C 
HETATM    2  C   LIG     1      16.480  37.610  23.070  1.00  0.00     0.255 C 
ENDROOT
BRANCH   2   3
HETATM    3  O   LIG     1      16.244  37.769  24.461  1.00  0.00    -0.362 OA
BRANCH   3   4
HETATM    4  C   LIG     1      17.396  38.202  25.157  1.00  0.00     0.166 C 
HETATM    5  C   LIG     1      17.934  37.047  25.987  1.00  0.00     0.033 C 
ENDBRANCH   3   4
ENDBRANCH   2   3
BRANCH   2   6
HETATM    6  O   LIG     1      17.374  38.600  22.555  1.00  0.00    -0.362 OA
BRANCH   6   7
HETATM    7  C   LIG     1      18.019  38.244  21.349  1.00  0.00     0.166 C 
HETATM    8  C   LIG     1      18.829  39.431  20.852  1.00  0.00     0.033 C 
ENDBRANCH   6   7
ENDBRANCH   2   6
TORSDOF 4
ENDMDL
MODEL 4
REMARK VINA RESULT:      -4.4      1.249      3.607
REMARK  4 active torsions:
REMARK  status: ('A' for Active; 'I' for Inactive)
REMARK    1  A    between atoms: C_2  and  O_6 
REMARK    2  A    between atoms: C_2  and  O_3 
REMARK    3  A    between atoms: O_3  and  C_4 
REMARK    4  A    between atoms: O_6  and  C_7 
ROOT
HETATM    1  C   LIG     1      16.739  36.016  22.712  1.00  0.00     0.070 C 
HETATM    2  C   LIG     1      17.073  37.395  23.330  1.00  0.00     0.255 C 
ENDROOT
BRANCH   2   3
HETATM    3  O   LIG     1      17.039  38.436  22.364  1.00  0.00    -0.362 OA
BRANCH   3   4
HETATM    4  C   LIG     1      18.304  39.035  22.172  1.00  0.00     0.166 C 
HETATM    5  C   LIG     1      18.586  39.128  20.681  1.00  0.00     0.033 C 
ENDBRANCH   3   4
ENDBRANCH   2   3
BRANCH   2   6
HETATM    6  O   LIG     1      16.424  37.768  24.549  1.00  0.00    -0.362 OA
BRANCH   6   7
HETATM    7  C   LIG     1      17.301  38.118  25.602  1.00  0.00     0.166 C 
HETATM    8  C   LIG     1      18.102  36.891  26.005  1.00  0.00     0.033 C 
ENDBRANCH   6   7
ENDBRANCH   2   6
TORSDOF 4
ENDMDL
MODEL 5
REMARK VINA RESULT:      -4.2      1.483      2.115
REMARK  4 active torsions:
REMARK  status: ('A' for Active; 'I' for Inactive)
REMARK    1  A    between atoms: C_2  and  O_6 
REMARK    2  A    between atoms: C_2  and  O_3 
REMARK    3  A    between atoms: O_3  and  C_4 
REMARK    4  A    between atoms: O_6  and  C_7 
ROOT
HETATM    1  C   LIG     1      18.377  38.219  24.375  1.00  0.00     0.070 C 
HETATM    2  C   LIG     1      17.120  37.316  24.377  1.00  0.00     0.255 C 
ENDROOT
BRANCH   2   3
HETATM    3  O   LIG     1      17.044  36.511  25.546  1.00  0.00    -0.362 OA
BRANCH   3   4
HETATM    4  C   LIG     1      17.467  35.183  25.314  1.00  0.00     0.166 C 
HETATM    5  C   LIG     1      18.507  34.807  26.358  1.00  0.00     0.033 C 
ENDBRANCH   3   4
ENDBRANCH   2   3
BRANCH   2   6
HETATM    6  O   LIG     1      15.861  37.904  24.043  1.00  0.00    -0.362 OA
BRANCH   6   7
HETATM    7  C   LIG     1      15.524  37.840  22.671  1.00  0.00     0.166 C 
HETATM    8  C   LIG     1      16.036  36.528  22.098  1.00  0.00     0.033 C 
ENDBRANCH   6   7
ENDBRANCH   2   6
TORSDOF 4
ENDMDL
MODEL 6
REMARK VINA RESULT:      -3.9      2.032      4.040
REMARK  4 active torsions:
REMARK  status: ('A' for Active; 'I' for Inactive)
REMARK    1  A    between atoms: C_2  and  O_6 
REMARK    2  A    between atoms: C_2  and  O_3 
REMARK    3  A    between atoms: O_3  and  C_4 
REMARK    4  A    between atoms: O_6  and  C_7 
ROOT
HETATM    1  C   LIG     1      17.324  37.108  21.776  1.00  0.00     0.070 C 
HETATM    2  C   LIG     1      16.672  36.183  22.832  1.00  0.00     0.255 C 
ENDROOT
BRANCH   2   3
HETATM    3  O   LIG     1      16.525  34.852  22.357  1.00  0.00    -0.362 OA
BRANCH   3   4
HETATM    4  C   LIG     1      15.385  34.696  21.537  1.00  0.00     0.166 C 
HETATM    5  C   LIG     1      15.719  33.738  20.404  1.00  0.00     0.033 C 
ENDBRANCH   3   4
ENDBRANCH   2   3
BRANCH   2   6
HETATM    6  O   LIG     1      17.168  36.227  24.172  1.00  0.00    -0.362 OA
BRANCH   6   7
HETATM    7  C   LIG     1      17.272  34.966  24.805  1.00  0.00     0.166 C 
HETATM    8  C   LIG     1      17.926  35.149  26.165  1.00  0.00     0.033 C 
ENDBRANCH   6   7
ENDBRANCH   2   6
TORSDOF 4
ENDMDL
MODEL 7
REMARK VINA RESULT:      -3.8      1.843      3.185
REMARK  4 active torsions:
REMARK  status: ('A' for Active; 'I' for Inactive)
REMARK    1  A    between atoms: C_2  and  O_6 
REMARK    2  A    between atoms: C_2  and  O_3 
REMARK    3  A    between atoms: O_3  and  C_4 
REMARK    4  A    between atoms: O_6  and  C_7 
ROOT
HETATM    1  C   LIG     1      16.509  35.112  21.863  1.00  0.00     0.070 C 
HETATM    2  C   LIG     1      16.830  35.689  23.264  1.00  0.00     0.255 C 
ENDROOT
BRANCH   2   3
HETATM    3  O   LIG     1      17.483  34.739  24.094  1.00  0.00    -0.362 OA
BRANCH   3   4
HETATM    4  C   LIG     1      17.096  34.852  25.449  1.00  0.00     0.166 C 
HETATM    5  C   LIG     1      18.344  34.893  26.317  1.00  0.00     0.033 C 
ENDBRANCH   3   4
ENDBRANCH   2   3
BRANCH   2   6
HETATM    6  O   LIG     1      17.435  36.982  23.343  1.00  0.00    -0.362 OA
BRANCH   6   7
HETATM    7  C   LIG     1      16.642  37.966  23.977  1.00  0.00     0.166 C 
HETATM    8  C   LIG     1      17.310  38.372  25.282  1.00  0.00     0.033 C 
ENDBRANCH   6   7
ENDBRANCH   2   6
TORSDOF 4
ENDMDL
MODEL 8
REMARK VINA RESULT:      -3.8      2.674      4.664
REMARK  4 active torsions:
REMARK  status: ('A' for Active; 'I' for Inactive)
REMARK    1  A    between atoms: C_2  and  O_6 
REMARK    2  A    between atoms: C_2  and  O_3 
REMARK    3  A    between atoms: O_3  and  C_4 
REMARK    4  A    between atoms: O_6  and  C_7 
ROOT
HETATM    1  C   LIG     1      17.010  35.144  22.768  1.00  0.00     0.070 C 
HETATM    2  C   LIG     1      17.250  35.774  21.375  1.00  0.00     0.255 C 
ENDROOT
BRANCH   2   3
HETATM    3  O   LIG     1      16.542  35.090  20.351  1.00  0.00    -0.362 OA
BRANCH   3   4
HETATM    4  C   LIG     1      15.556  34.219  20.868  1.00  0.00     0.166 C 
HETATM    5  C   LIG     1      15.481  32.981  19.989  1.00  0.00     0.033 C 
ENDBRANCH   3   4
ENDBRANCH   2   3
BRANCH   2   6
HETATM    6  O   LIG     1      17.149  37.195  21.245  1.00  0.00    -0.362 OA
BRANCH   6   7
HETATM    7  C   LIG     1      18.328  37.832  20.794  1.00  0.00     0.166 C 
HETATM    8  C   LIG     1      18.535  39.110  21.591  1.00  0.00     0.033 C 
ENDBRANCH   6   7
ENDBRANCH   2   6
TORSDOF 4
ENDMDL
MODEL 9
REMARK VINA RESULT:      -3.8      1.797      3.781
REMARK  4 active torsions:
REMARK  status: ('A' for Active; 'I' for Inactive)
REMARK    1  A    between atoms: C_2  and  O_6 
REMARK    2  A    between atoms: C_2  and  O_3 
REMARK    3  A    between atoms: O_3  and  C_4 
REMARK    4  A    between atoms: O_6  and  C_7 
ROOT
HETATM    1  C   LIG     1      18.277  36.740  20.216  1.00  0.00     0.070 C 
HETATM    2  C   LIG     1      17.340  36.837  21.445  1.00  0.00     0.255 C 
ENDROOT
BRANCH   2   3
HETATM    3  O   LIG     1      17.133  35.573  22.059  1.00  0.00    -0.362 OA
BRANCH   3   4
HETATM    4  C   LIG     1      16.174  34.793  21.374  1.00  0.00     0.166 C 
HETATM    5  C   LIG     1      14.881  35.586  21.262  1.00  0.00     0.033 C 
ENDBRANCH   3   4
ENDBRANCH   2   3
BRANCH   2   6
HETATM    6  O   LIG     1      17.583  37.870  22.404  1.00  0.00    -0.362 OA
BRANCH   6   7
HETATM    7  C   LIG     1      16.724  37.848  23.527  1.00  0.00     0.166 C 
HETATM    8  C   LIG     1      17.565  37.888  24.793  1.00  0.00     0.033 C 
ENDBRANCH   6   7
ENDBRANCH   2   6
TORSDOF 4
ENDMDL
MODEL 10
REMARK VINA RESULT:      -3.8      1.385      2.700
REMARK  4 active torsions:
REMARK  status: ('A' for Active; 'I' for Inactive)
REMARK    1  A    between atoms: C_2  and  O_6 
REMARK    2  A    between atoms: C_2  and  O_3 
REMARK    3  A    between atoms: O_3  and  C_4 
REMARK    4  A    between atoms: O_6  and  C_7 
ROOT
HETATM    1  C   LIG     1      18.112  36.839  26.273  1.00  0.00     0.070 C 
HETATM    2  C   LIG     1      17.185  36.818  25.033  1.00  0.00     0.255 C 
ENDROOT
BRANCH   2   3
HETATM    3  O   LIG     1      16.611  38.091  24.776  1.00  0.00    -0.362 OA
BRANCH   3   4
HETATM    4  C   LIG     1      17.244  38.761  23.704  1.00  0.00     0.166 C 
HETATM    5  C   LIG     1      16.257  38.900  22.557  1.00  0.00     0.033 C 
ENDBRANCH   3   4
ENDBRANCH   2   3
BRANCH   2   6
HETATM    6  O   LIG     1      17.659  36.187  23.841  1.00  0.00    -0.362 OA
BRANCH   6   7
HETATM    7  C   LIG     1      16.901  35.070  23.422  1.00  0.00     0.166 C 
HETATM    8  C   LIG     1      16.823  35.067  21.904  1.00  0.00     0.033 C 
ENDBRANCH   6   7
ENDBRANCH   2   6
TORSDOF 4
ENDMDL
MODEL 11
REMARK VINA RESULT:      -3.7      4.395      7.048
REMARK  4 active torsions:
REMARK  status: ('A' for Active; 'I' for Inactive)
REMARK    1  A    between atoms: C_2  and  O_6 
REMARK    2  A    between atoms: C_2  and  O_3 
REMARK    3  A    between atoms: O_3  and  C_4 
REMARK    4  A    between atoms: O_6  and  C_7 
ROOT
HETATM    1  C   LIG     1      14.890  31.196  19.962  1.00  0.00     0.070 C 
HETATM    2  C   LIG     1      15.415  32.652  19.979  1.00  0.00     0.255 C 
ENDROOT
BRANCH   2   3
HETATM    3  O   LIG     1      15.498  33.204  18.672  1.00  0.00    -0.362 OA
BRANCH   3   4
HETATM    4  C   LIG     1      14.773  32.450  17.722  1.00  0.00     0.166 C 
HETATM    5  C   LIG     1      15.364  32.693  16.343  1.00  0.00     0.033 C 
ENDBRANCH   3   4
ENDBRANCH   2   3
BRANCH   2   6
HETATM    6  O   LIG     1      14.847  33.568  20.918  1.00  0.00    -0.362 OA
BRANCH   6   7
HETATM    7  C   LIG     1      15.718  34.601  21.337  1.00  0.00     0.166 C 
HETATM    8  C   LIG     1      14.947  35.910  21.377  1.00  0.00     0.033 C 
ENDBRANCH   6   7
ENDBRANCH   2   6
TORSDOF 4
ENDMDL
MODEL 12
REMARK VINA RESULT:      -3.7      7.457      9.359
REMARK  4 active torsions:
REMARK  status: ('A' for Active; 'I' for Inactive)
REMARK    1  A    between atoms: C_2  and  O_6 
REMARK    2  A    between atoms: C_2  and  O_3 
REMARK    3  A    between atoms: O_3  and  C_4 
REMARK    4  A    between atoms: O_6  and  C_7 
ROOT
HETATM    1  C   LIG     1      14.909  33.924  16.960  1.00  0.00     0.070 C 
HETATM    2  C   LIG     1      14.256  32.524  16.857  1.00  0.00     0.255 C 
ENDROOT
BRANCH   2   3
HETATM    3  O   LIG     1      14.803  31.759  15.791  1.00  0.00    -0.362 OA
BRANCH   3   4
HETATM    4  C   LIG     1      14.012  30.630  15.479  1.00  0.00     0.166 C 
HETATM    5  C   LIG     1      14.664  29.874  14.332  1.00  0.00     0.033 C 
ENDBRANCH   3   4
ENDBRANCH   2   3
BRANCH   2   6
HETATM    6  O   LIG     1      14.106  31.755  18.052  1.00  0.00    -0.362 OA
BRANCH   6   7
HETATM    7  C   LIG     1      14.986  32.113  19.099  1.00  0.00     0.166 C 
HETATM    8  C   LIG     1      14.895  31.069  20.200  1.00  0.00     0.033 C 
ENDBRANCH   6   7
ENDBRANCH   2   6
TORSDOF 4
ENDMDL
MODEL 13
REMARK VINA RESULT:      -3.7      2.584      3.785
REMARK  4 active torsions:
REMARK  status: ('A' for Active; 'I' for Inactive)
REMARK    1  A    between atoms: C_2  and  O_6 
REMARK    2  A    between atoms: C_2  and  O_3 
REMARK    3  A    between atoms: O_3  and  C_4 
REMARK    4  A    between atoms: O_6  and  C_7 
ROOT
HETATM    1  C   LIG     1      16.326  34.870  20.802  1.00  0.00     0.070 C 
HETATM    2  C   LIG     1      17.203  36.145  20.871  1.00  0.00     0.255 C 
ENDROOT
BRANCH   2   3
HETATM    3  O   LIG     1      17.322  36.639  22.197  1.00  0.00    -0.362 OA
BRANCH   3   4
HETATM    4  C   LIG     1      16.307  37.569  22.519  1.00  0.00     0.166 C 
HETATM    5  C   LIG     1      16.903  38.967  22.525  1.00  0.00     0.033 C 
ENDBRANCH   3   4
ENDBRANCH   2   3
BRANCH   2   6
HETATM    6  O   LIG     1      18.454  36.146  20.179  1.00  0.00    -0.362 OA
BRANCH   6   7
HETATM    7  C   LIG     1      18.596  37.174  19.218  1.00  0.00     0.166 C 
HETATM    8  C   LIG     1      19.579  38.208  19.743  1.00  0.00     0.033 C 
ENDBRANCH   6   7
ENDBRANCH   2   6
TORSDOF 4
ENDMDL
MODEL 14
REMARK VINA RESULT:      -3.7      2.625      4.534
REMARK  4 active torsions:
REMARK  status: ('A' for Active; 'I' for Inactive)
REMARK    1  A    between atoms: C_2  and  O_6 
REMARK    2  A    between atoms: C_2  and  O_3 
REMARK    3  A    between atoms: O_3  and  C_4 
REMARK    4  A    between atoms: O_6  and  C_7 
ROOT
HETATM    1  C   LIG     1      16.006  35.169  20.824  1.00  0.00     0.070 C 
HETATM    2  C   LIG     1      17.384  35.873  20.882  1.00  0.00     0.255 C 
ENDROOT
BRANCH   2   3
HETATM    3  O   LIG     1      17.797  36.340  19.605  1.00  0.00    -0.362 OA
BRANCH   3   4
HETATM    4  C   LIG     1      19.092  36.905  19.632  1.00  0.00     0.166 C 
HETATM    5  C   LIG     1      19.040  38.289  19.005  1.00  0.00     0.033 C 
ENDBRANCH   3   4
ENDBRANCH   2   3
BRANCH   2   6
HETATM    6  O   LIG     1      17.609  36.840  21.910  1.00  0.00    -0.362 OA
BRANCH   6   7
HETATM    7  C   LIG     1      16.439  37.463  22.402  1.00  0.00     0.166 C 
HETATM    8  C   LIG     1      16.715  38.945  22.602  1.00  0.00     0.033 C 
ENDBRANCH   6   7
ENDBRANCH   2   6
TORSDOF 4
ENDMDL
MODEL 15
REMARK VINA RESULT:      -3.7      3.078      3.766
REMARK  4 active torsions:
REMARK  status: ('A' for Active; 'I' for Inactive)
REMARK    1  A    between atoms: C_2  and  O_6 
REMARK    2  A    between atoms: C_2  and  O_3 
REMARK    3  A    between atoms: O_3  and  C_4 
REMARK    4  A    between atoms: O_6  and  C_7 
ROOT
HETATM    1  C   LIG     1      17.874  37.141  21.091  1.00  0.00     0.070 C 
HETATM    2  C   LIG     1      18.169  38.649  21.280  1.00  0.00     0.255 C 
ENDROOT
BRANCH   2   3
HETATM    3  O   LIG     1      17.931  39.075  22.614  1.00  0.00    -0.362 OA
BRANCH   3   4
HETATM    4  C   LIG     1      17.004  38.247  23.287  1.00  0.00     0.166 C 
HETATM    5  C   LIG     1      17.404  38.144  24.750  1.00  0.00     0.033 C 
ENDBRANCH   3   4
ENDBRANCH   2   3
BRANCH   2   6
HETATM    6  O   LIG     1      19.392  39.172  20.756  1.00  0.00    -0.362 OA
BRANCH   6   7
HETATM    7  C   LIG     1      19.834  38.557  19.561  1.00  0.00     0.166 C 
HETATM    8  C   LIG     1      19.070  39.151  18.389  1.00  0.00     0.033 C 
ENDBRANCH   6   7
ENDBRANCH   2   6
TORSDOF 4
ENDMDL
MODEL 16
REMARK VINA RESULT:      -3.6      1.662      3.348
REMARK  4 active torsions:
REMARK  status: ('A' for Active; 'I' for Inactive)
REMARK    1  A    between atoms: C_2  and  O_6 
REMARK    2  A    between atoms: C_2  and  O_3 
REMARK    3  A    between atoms: O_3  and  C_4 
REMARK    4  A    between atoms: O_6  and  C_7 
ROOT
HETATM    1  C   LIG     1      15.842  35.109  21.858  1.00  0.00     0.070 C 
HETATM    2  C   LIG     1      17.059  35.823  22.496  1.00  0.00     0.255 C 
ENDROOT
BRANCH   2   3
HETATM    3  O   LIG     1      17.420  36.999  21.786  1.00  0.00    -0.362 OA
BRANCH   3   4
HETATM    4  C   LIG     1      17.597  38.111  22.640  1.00  0.00     0.166 C 
HETATM    5  C   LIG     1      16.436  39.074  22.444  1.00  0.00     0.033 C 
ENDBRANCH   3   4
ENDBRANCH   2   3
BRANCH   2   6
HETATM    6  O   LIG     1      17.063  36.023  23.911  1.00  0.00    -0.362 OA
BRANCH   6   7
HETATM    7  C   LIG     1      17.289  34.853  24.673  1.00  0.00     0.166 C 
HETATM    8  C   LIG     1      17.865  35.247  26.024  1.00  0.00     0.033 C 
ENDBRANCH   6   7
ENDBRANCH   2   6
TORSDOF 4
ENDMDL
MODEL 17
REMARK VINA RESULT:      -3.6      6.609      8.377
REMARK  4 active torsions:
REMARK  status: ('A' for Active; 'I' for Inactive)
REMARK    1  A    between atoms: C_2  and  O_6 
REMARK    2  A    between atoms: C_2  and  O_3 
REMARK    3  A    between atoms: O_3  and  C_4 
REMARK    4  A    between atoms: O_6  and  C_7 
ROOT
HETATM    1  C   LIG     1      14.724  31.841  16.050  1.00  0.00     0.070 C 
HETATM    2  C   LIG     1      15.255  33.231  16.478  1.00  0.00     0.255 C 
ENDROOT
BRANCH   2   3
HETATM    3  O   LIG     1      15.499  33.301  17.876  1.00  0.00    -0.362 OA
BRANCH   3   4
HETATM    4  C   LIG     1      14.914  32.224  18.580  1.00  0.00     0.166 C 
HETATM    5  C   LIG     1      15.135  32.430  20.070  1.00  0.00     0.033 C 
ENDBRANCH   3   4
ENDBRANCH   2   3
BRANCH   2   6
HETATM    6  O   LIG     1      16.312  33.818  15.715  1.00  0.00    -0.362 OA
BRANCH   6   7
HETATM    7  C   LIG     1      17.078  32.899  14.961  1.00  0.00     0.166 C 
HETATM    8  C   LIG     1      17.962  33.669  13.994  1.00  0.00     0.033 C 
ENDBRANCH   6   7
ENDBRANCH   2   6
TORSDOF 4
ENDMDL
MODEL 18
REMARK VINA RESULT:      -3.6      2.125      3.980
REMARK  4 active torsions:
REMARK  status: ('A' for Active; 'I' for Inactive)
REMARK    1  A    between atoms: C_2  and  O_6 
REMARK    2  A    between atoms: C_2  and  O_3 
REMARK    3  A    between atoms: O_3  and  C_4 
REMARK    4  A    between atoms: O_6  and  C_7 
ROOT
HETATM    1  C   LIG     1      16.502  37.850  23.336  1.00  0.00     0.070 C 
HETATM    2  C   LIG     1      17.461  37.799  22.122  1.00  0.00     0.255 C 
ENDROOT
BRANCH   2   3
HETATM    3  O   LIG     1      17.203  36.680  21.286  1.00  0.00    -0.362 OA
BRANCH   3   4
HETATM    4  C   LIG     1      15.983  36.041  21.603  1.00  0.00     0.166 C 
HETATM    5  C   LIG     1      16.039  34.601  21.117  1.00  0.00     0.033 C 
ENDBRANCH   3   4
ENDBRANCH   2   3
BRANCH   2   6
HETATM    6  O   LIG     1      17.669  38.998  21.371  1.00  0.00    -0.362 OA
BRANCH   6   7
HETATM    7  C   LIG     1      19.026  39.321  21.139  1.00  0.00     0.166 C 
HETATM    8  C   LIG     1      19.379  38.970  19.703  1.00  0.00     0.033 C 
ENDBRANCH   6   7
ENDBRANCH   2   6
TORSDOF 4
ENDMDL
MODEL 19
REMARK VINA RESULT:      -3.5      8.712     10.601
REMARK  4 active torsions:
REMARK  status: ('A' for Active; 'I' for Inactive)
REMARK    1  A    between atoms: C_2  and  O_6 
REMARK    2  A    between atoms: C_2  and  O_3 
REMARK    3  A    between atoms: O_3  and  C_4 
REMARK    4  A    between atoms: O_6  and  C_7 
ROOT
HETATM    1  C   LIG     1      15.600  31.120  13.611  1.00  0.00     0.070 C 
HETATM    2  C   LIG     1      16.279  32.510  13.555  1.00  0.00     0.255 C 
ENDROOT
BRANCH   2   3
HETATM    3  O   LIG     1      16.123  33.228  14.771  1.00  0.00    -0.362 OA
BRANCH   3   4
HETATM    4  C   LIG     1      15.605  32.422  15.810  1.00  0.00     0.166 C 
HETATM    5  C   LIG     1      14.896  33.312  16.819  1.00  0.00     0.033 C 
ENDBRANCH   3   4
ENDBRANCH   2   3
BRANCH   2   6
HETATM    6  O   LIG     1      17.611  32.596  13.044  1.00  0.00    -0.362 OA
BRANCH   6   7
HETATM    7  C   LIG     1      18.337  33.731  13.472  1.00  0.00     0.166 C 
HETATM    8  C   LIG     1      19.674  33.765  12.749  1.00  0.00     0.033 C 
ENDBRANCH   6   7
ENDBRANCH   2   6
TORSDOF 4
ENDMDL
MODEL 20
REMARK VINA RESULT:      -3.4      8.251     10.009
REMARK  4 active torsions:
REMARK  status: ('A' for Active; 'I' for Inactive)
REMARK    1  A    between atoms: C_2  and  O_6 
REMARK    2  A    between atoms: C_2  and  O_3 
REMARK    3  A    between atoms: O_3  and  C_4 
REMARK    4  A    between atoms: O_6  and  C_7 
ROOT
HETATM    1  C   LIG     1      15.357  31.065  14.511  1.00  0.00     0.070 C 
HETATM    2  C   LIG     1      16.340  32.141  15.034  1.00  0.00     0.255 C 
ENDROOT
BRANCH   2   3
HETATM    3  O   LIG     1      16.480  33.223  14.123  1.00  0.00    -0.362 OA
BRANCH   3   4
HETATM    4  C   LIG     1      17.761  33.816  14.183  1.00  0.00     0.166 C 
HETATM    5  C   LIG     1      18.439  33.662  12.831  1.00  0.00     0.033 C 
ENDBRANCH   3   4
ENDBRANCH   2   3
BRANCH   2   6
HETATM    6  O   LIG     1      16.204  32.586  16.386  1.00  0.00    -0.362 OA
BRANCH   6   7
HETATM    7  C   LIG     1      14.881  32.902  16.773  1.00  0.00     0.166 C 
HETATM    8  C   LIG     1      14.522  32.091  18.008  1.00  0.00     0.033 C 
ENDBRANCH   6   7
ENDBRANCH   2   6
TORSDOF 4
ENDMDL
