REMARK  5 active torsions:
REMARK  status: ('A' for Active; 'I' for Inactive)
REMARK    1  A    between atoms: C_2  and  C_3 
REMARK    2  A    between atoms: C_3  and  C_4 
REMARK    3  A    between atoms: C_4  and  O_5 
REMARK    4  A    between atoms: O_5  and  C_6 
REMARK    5  A    between atoms: C_6  and  C_7 
ROOT
HETATM    1  C   LIG     1       0.321  -1.109  -0.075  1.00  0.00     0.258 C 
HETATM    2  O   LIG     1       0.139  -1.764   0.988  1.00  0.00    -0.265 OA
ENDROOT
BRANCH   1   3
HETATM    3  C   LIG     1       1.688  -0.607  -0.415  1.00  0.00     0.111 C 
BRANCH   3   4
HETATM    4  C   LIG     1       2.149   0.443   0.602  1.00  0.00     0.005 C 
HETATM    5  C   LIG     1       3.532   0.982   0.249  1.00  0.00     0.005 C 
ENDBRANCH   3   4
ENDBRANCH   1   3
BRANCH   1   6
HETATM    6  O   LIG     1      -0.742  -0.855  -0.949  1.00  0.00    -0.322 OA
BRANCH   6   7
HETATM    7  C   LIG     1      -2.094  -1.214  -0.668  1.00  0.00     0.178 C 
BRANCH   7   8
HETATM    8  C   LIG     1      -2.706  -0.287   0.388  1.00  0.00     0.022 C 
HETATM    9  C   LIG     1      -2.716   1.169  -0.071  1.00  0.00     0.007 C 
ENDBRANCH   7   8
ENDBRANCH   6   7
ENDBRANCH   1   6
TORSDOF 5
