REMARK  4 active torsions:
REMARK  status: ('A' for Active; 'I' for Inactive)
REMARK    1  A    between atoms: C_2  and  N_3 
REMARK    2  A    between atoms: C_2  and  N_6 
REMARK    3  A    between atoms: N_3  and  C_4 
REMARK    4  A    between atoms: N_6  and  C_7 
ROOT
HETATM    1  S   LIG     1       1.332  -2.046  -1.041  1.00  0.00    -0.041 SA
HETATM    2  C   LIG     1       0.354  -0.936  -0.325  1.00  0.00     0.167 C 
ENDROOT
BRANCH   2   3
HETATM    3  N   LIG     1       0.877  -0.015   0.655  1.00  0.00    -0.368 N 
HETATM    4  H   LIG     1       0.213   0.540   1.239  1.00  0.00     0.161 HD
BRANCH   3   5
HETATM    5  C   LIG     1       2.304   0.177   0.920  1.00  0.00     0.117 C 
HETATM    6  C   LIG     1       2.952   0.993  -0.194  1.00  0.00     0.026 C 
ENDBRANCH   3   5
ENDBRANCH   2   3
BRANCH   2   7
HETATM    7  N   LIG     1      -1.041  -0.933  -0.667  1.00  0.00    -0.368 N 
HETATM    8  H   LIG     1      -1.380  -1.641  -1.359  1.00  0.00     0.161 HD
BRANCH   7   9
HETATM    9  C   LIG     1      -1.988   0.041  -0.123  1.00  0.00     0.117 C 
HETATM   10  C   LIG     1      -3.372  -0.138  -0.739  1.00  0.00     0.026 C 
ENDBRANCH   7   9
ENDBRANCH   2   7
TORSDOF 4
