REMARK  4 active torsions:
REMARK  status: ('A' for Active; 'I' for Inactive)
REMARK    1  A    between atoms: C_2  and  O_6 
REMARK    2  A    between atoms: C_2  and  O_3 
REMARK    3  A    between atoms: O_3  and  C_4 
REMARK    4  A    between atoms: O_6  and  C_7 
ROOT
HETATM    1  C   LIG     1       0.167  -2.066   0.545  1.00  0.00     0.070 C 
HETATM    2  C   LIG     1       0.121  -0.658   1.187  1.00  0.00     0.255 C 
ENDROOT
BRANCH   2   3
HETATM    3  O   LIG     1       1.341   0.048   1.011  1.00  0.00    -0.362 OA
BRANCH   3   4
HETATM    4  C   LIG     1       1.437   0.648  -0.265  1.00  0.00     0.166 C 
HETATM    5  C   LIG     1       2.807   1.292  -0.406  1.00  0.00     0.033 C 
ENDBRANCH   3   4
ENDBRANCH   2   3
BRANCH   2   6
HETATM    6  O   LIG     1      -1.021   0.165   0.937  1.00  0.00    -0.362 OA
BRANCH   6   7
HETATM    7  C   LIG     1      -1.732  -0.154  -0.243  1.00  0.00     0.166 C 
HETATM    8  C   LIG     1      -2.773   0.924  -0.499  1.00  0.00     0.033 C 
ENDBRANCH   6   7
ENDBRANCH   2   6
TORSDOF 4
