REMARK  1 active torsions:
REMARK  status: ('A' for Active; 'I' for Inactive)
REMARK    1  A    between atoms: C_5  and  O_6 
ROOT
HETATM    1 BR   LIG     1       3.521   0.008   0.204  1.00  0.00    -0.051 Br
HETATM    2  C   LIG     1       1.615   0.038   0.099  1.00  0.00     0.011 A 
HETATM    3  C   LIG     1       0.924   1.248   0.229  1.00  0.00     0.022 A 
HETATM    4  C   LIG     1      -0.472   1.270   0.151  1.00  0.00     0.038 A 
HETATM    5  C   LIG     1      -1.183   0.083  -0.057  1.00  0.00     0.065 A 
HETATM    6  C   LIG     1      -0.490  -1.129  -0.187  1.00  0.00     0.038 A 
HETATM    7  C   LIG     1       0.906  -1.151  -0.109  1.00  0.00     0.022 A 
ENDROOT
BRANCH   5   8
HETATM    8  O   LIG     1      -2.574   0.118  -0.132  1.00  0.00    -0.361 OA
HETATM    9  H   LIG     1      -3.117  -0.724  -0.281  1.00  0.00     0.217 HD
ENDBRANCH   5   8
TORSDOF 1
