MODEL 1
REMARK VINA RESULT:      -5.8      0.000      0.000
REMARK  0 active torsions:
REMARK  status: ('A' for Active; 'I' for Inactive)
ROOT
HETATM    1  O   LIG     1      16.671  36.664  21.875  1.00  0.00    -0.289 OA
HETATM    2  C   LIG     1      17.563  37.314  21.268  1.00  0.00     0.172 A 
HETATM    3  C   LIG     1      18.316  36.686  20.164  1.00  0.00     0.058 A 
HETATM    4  C   LIG     1      19.263  37.377  19.520  1.00  0.00     0.058 A 
HETATM    5  C   LIG     1      17.861  38.706  21.658  1.00  0.00     0.058 A 
HETATM    6  C   LIG     1      18.807  39.397  21.013  1.00  0.00     0.058 A 
HETATM    7  C   LIG     1      19.561  38.769  19.909  1.00  0.00     0.172 A 
HETATM    8  O   LIG     1      20.452  39.419  19.302  1.00  0.00    -0.289 OA
ENDROOT
TORSDOF 0
ENDMDL
MODEL 2
REMARK VINA RESULT:      -5.8      0.033      3.164
REMARK  0 active torsions:
REMARK  status: ('A' for Active; 'I' for Inactive)
ROOT
HETATM    1  O   LIG     1      20.484  39.379  19.298  1.00  0.00    -0.289 OA
HETATM    2  C   LIG     1      19.584  38.746  19.910  1.00  0.00     0.172 A 
HETATM    3  C   LIG     1      19.280  37.349  19.542  1.00  0.00     0.058 A 
HETATM    4  C   LIG     1      18.324  36.676  20.192  1.00  0.00     0.058 A 
HETATM    5  C   LIG     1      18.827  39.397  20.997  1.00  0.00     0.058 A 
HETATM    6  C   LIG     1      17.871  38.724  21.647  1.00  0.00     0.058 A 
HETATM    7  C   LIG     1      17.567  37.327  21.280  1.00  0.00     0.172 A 
HETATM    8  O   LIG     1      16.667  36.693  21.891  1.00  0.00    -0.289 OA
ENDROOT
TORSDOF 0
ENDMDL
MODEL 3
REMARK VINA RESULT:      -5.7      0.084      1.807
REMARK  0 active torsions:
REMARK  status: ('A' for Active; 'I' for Inactive)
ROOT
HETATM    1  O   LIG     1      16.753  36.562  21.825  1.00  0.00    -0.289 OA
HETATM    2  C   LIG     1      17.619  37.256  21.229  1.00  0.00     0.172 A 
HETATM    3  C   LIG     1      17.858  38.654  21.637  1.00  0.00     0.058 A 
HETATM    4  C   LIG     1      18.777  39.391  21.004  1.00  0.00     0.058 A 
HETATM    5  C   LIG     1      18.398  36.675  20.117  1.00  0.00     0.058 A 
HETATM    6  C   LIG     1      19.317  37.412  19.484  1.00  0.00     0.058 A 
HETATM    7  C   LIG     1      19.556  38.810  19.892  1.00  0.00     0.172 A 
HETATM    8  O   LIG     1      20.422  39.504  19.296  1.00  0.00    -0.289 OA
ENDROOT
TORSDOF 0
ENDMDL
MODEL 4
REMARK VINA RESULT:      -5.5      4.275      5.446
REMARK  0 active torsions:
REMARK  status: ('A' for Active; 'I' for Inactive)
ROOT
HETATM    1  O   LIG     1      18.494  34.530  26.480  1.00  0.00    -0.289 OA
HETATM    2  C   LIG     1      17.983  35.450  25.788  1.00  0.00     0.172 A 
HETATM    3  C   LIG     1      18.017  36.846  26.268  1.00  0.00     0.058 A 
HETATM    4  C   LIG     1      17.474  37.822  25.533  1.00  0.00     0.058 A 
HETATM    5  C   LIG     1      17.345  35.137  24.494  1.00  0.00     0.058 A 
HETATM    6  C   LIG     1      16.802  36.114  23.759  1.00  0.00     0.058 A 
HETATM    7  C   LIG     1      16.837  37.510  24.239  1.00  0.00     0.172 A 
HETATM    8  O   LIG     1      16.326  38.429  23.547  1.00  0.00    -0.289 OA
ENDROOT
TORSDOF 0
ENDMDL
MODEL 5
REMARK VINA RESULT:      -5.5      4.232      5.723
REMARK  0 active torsions:
REMARK  status: ('A' for Active; 'I' for Inactive)
ROOT
HETATM    1  O   LIG     1      16.348  38.481  23.528  1.00  0.00    -0.289 OA
HETATM    2  C   LIG     1      16.862  37.562  24.218  1.00  0.00     0.172 A 
HETATM    3  C   LIG     1      17.485  37.872  25.520  1.00  0.00     0.058 A 
HETATM    4  C   LIG     1      18.032  36.896  26.253  1.00  0.00     0.058 A 
HETATM    5  C   LIG     1      16.847  36.170  23.728  1.00  0.00     0.058 A 
HETATM    6  C   LIG     1      17.393  35.194  24.461  1.00  0.00     0.058 A 
HETATM    7  C   LIG     1      18.016  35.504  25.763  1.00  0.00     0.172 A 
HETATM    8  O   LIG     1      18.531  34.585  26.453  1.00  0.00    -0.289 OA
ENDROOT
TORSDOF 0
ENDMDL
MODEL 6
REMARK VINA RESULT:      -5.4      1.937      3.544
REMARK  0 active torsions:
REMARK  status: ('A' for Active; 'I' for Inactive)
ROOT
HETATM    1  O   LIG     1      18.550  36.521  19.597  1.00  0.00    -0.289 OA
HETATM    2  C   LIG     1      17.948  36.849  20.653  1.00  0.00     0.172 A 
HETATM    3  C   LIG     1      17.148  35.852  21.391  1.00  0.00     0.058 A 
HETATM    4  C   LIG     1      16.509  36.200  22.513  1.00  0.00     0.058 A 
HETATM    5  C   LIG     1      18.037  38.234  21.158  1.00  0.00     0.058 A 
HETATM    6  C   LIG     1      17.397  38.582  22.280  1.00  0.00     0.058 A 
HETATM    7  C   LIG     1      16.598  37.584  23.018  1.00  0.00     0.172 A 
HETATM    8  O   LIG     1      15.995  37.912  24.074  1.00  0.00    -0.289 OA
ENDROOT
TORSDOF 0
ENDMDL
MODEL 7
REMARK VINA RESULT:      -5.4      1.958      2.567
REMARK  0 active torsions:
REMARK  status: ('A' for Active; 'I' for Inactive)
ROOT
HETATM    1  O   LIG     1      16.116  37.860  24.175  1.00  0.00    -0.289 OA
HETATM    2  C   LIG     1      16.679  37.543  23.094  1.00  0.00     0.172 A 
HETATM    3  C   LIG     1      16.597  36.156  22.594  1.00  0.00     0.058 A 
HETATM    4  C   LIG     1      17.195  35.819  21.447  1.00  0.00     0.058 A 
HETATM    5  C   LIG     1      17.426  38.555  22.322  1.00  0.00     0.058 A 
HETATM    6  C   LIG     1      18.024  38.218  21.174  1.00  0.00     0.058 A 
HETATM    7  C   LIG     1      17.941  36.831  20.674  1.00  0.00     0.172 A 
HETATM    8  O   LIG     1      18.504  36.514  19.593  1.00  0.00    -0.289 OA
ENDROOT
TORSDOF 0
ENDMDL
MODEL 8
REMARK VINA RESULT:      -5.3      1.691      2.500
REMARK  0 active torsions:
REMARK  status: ('A' for Active; 'I' for Inactive)
ROOT
HETATM    1  O   LIG     1      16.654  39.028  23.310  1.00  0.00    -0.289 OA
HETATM    2  C   LIG     1      17.209  38.431  22.351  1.00  0.00     0.172 A 
HETATM    3  C   LIG     1      18.198  39.136  21.512  1.00  0.00     0.058 A 
HETATM    4  C   LIG     1      18.788  38.503  20.493  1.00  0.00     0.058 A 
HETATM    5  C   LIG     1      16.873  37.024  22.058  1.00  0.00     0.058 A 
HETATM    6  C   LIG     1      17.463  36.390  21.039  1.00  0.00     0.058 A 
HETATM    7  C   LIG     1      18.452  37.095  20.200  1.00  0.00     0.172 A 
HETATM    8  O   LIG     1      19.008  36.498  19.240  1.00  0.00    -0.289 OA
ENDROOT
TORSDOF 0
ENDMDL
MODEL 9
REMARK VINA RESULT:      -5.1      3.546      4.582
REMARK  0 active torsions:
REMARK  status: ('A' for Active; 'I' for Inactive)
ROOT
HETATM    1  O   LIG     1      17.167  38.540  25.468  1.00  0.00    -0.289 OA
HETATM    2  C   LIG     1      17.078  37.639  24.593  1.00  0.00     0.172 A 
HETATM    3  C   LIG     1      16.768  37.993  23.193  1.00  0.00     0.058 A 
HETATM    4  C   LIG     1      16.674  37.036  22.264  1.00  0.00     0.058 A 
HETATM    5  C   LIG     1      17.282  36.224  24.961  1.00  0.00     0.058 A 
HETATM    6  C   LIG     1      17.188  35.267  24.032  1.00  0.00     0.058 A 
HETATM    7  C   LIG     1      16.877  35.621  22.632  1.00  0.00     0.172 A 
HETATM    8  O   LIG     1      16.788  34.720  21.757  1.00  0.00    -0.289 OA
ENDROOT
TORSDOF 0
ENDMDL
MODEL 10
REMARK VINA RESULT:      -5.1      3.498      4.477
REMARK  0 active torsions:
REMARK  status: ('A' for Active; 'I' for Inactive)
ROOT
HETATM    1  O   LIG     1      16.805  34.799  21.688  1.00  0.00    -0.289 OA
HETATM    2  C   LIG     1      16.891  35.677  22.587  1.00  0.00     0.172 A 
HETATM    3  C   LIG     1      16.707  37.103  22.251  1.00  0.00     0.058 A 
HETATM    4  C   LIG     1      16.799  38.035  23.205  1.00  0.00     0.058 A 
HETATM    5  C   LIG     1      17.178  35.285  23.981  1.00  0.00     0.058 A 
HETATM    6  C   LIG     1      17.270  36.218  24.935  1.00  0.00     0.058 A 
HETATM    7  C   LIG     1      17.086  37.644  24.599  1.00  0.00     0.172 A 
HETATM    8  O   LIG     1      17.172  38.522  25.498  1.00  0.00    -0.289 OA
ENDROOT
TORSDOF 0
ENDMDL
MODEL 11
REMARK VINA RESULT:      -4.9      8.552      9.591
REMARK  0 active torsions:
REMARK  status: ('A' for Active; 'I' for Inactive)
ROOT
HETATM    1  O   LIG     1      13.059  30.705  17.059  1.00  0.00    -0.289 OA
HETATM    2  C   LIG     1      13.907  30.982  16.171  1.00  0.00     0.172 A 
HETATM    3  C   LIG     1      14.824  32.125  16.350  1.00  0.00     0.058 A 
HETATM    4  C   LIG     1      15.725  32.418  15.406  1.00  0.00     0.058 A 
HETATM    5  C   LIG     1      13.989  30.165  14.944  1.00  0.00     0.058 A 
HETATM    6  C   LIG     1      14.890  30.458  14.000  1.00  0.00     0.058 A 
HETATM    7  C   LIG     1      15.807  31.601  14.179  1.00  0.00     0.172 A 
HETATM    8  O   LIG     1      16.655  31.877  13.291  1.00  0.00    -0.289 OA
ENDROOT
TORSDOF 0
ENDMDL
MODEL 12
REMARK VINA RESULT:      -4.9      8.473     10.018
REMARK  0 active torsions:
REMARK  status: ('A' for Active; 'I' for Inactive)
ROOT
HETATM    1  O   LIG     1      16.792  32.074  13.526  1.00  0.00    -0.289 OA
HETATM    2  C   LIG     1      15.887  31.722  14.328  1.00  0.00     0.172 A 
HETATM    3  C   LIG     1      15.669  32.477  15.578  1.00  0.00     0.058 A 
HETATM    4  C   LIG     1      14.707  32.103  16.429  1.00  0.00     0.058 A 
HETATM    5  C   LIG     1      15.040  30.552  14.023  1.00  0.00     0.058 A 
HETATM    6  C   LIG     1      14.078  30.179  14.874  1.00  0.00     0.058 A 
HETATM    7  C   LIG     1      13.860  30.933  16.124  1.00  0.00     0.172 A 
HETATM    8  O   LIG     1      12.955  30.582  16.925  1.00  0.00    -0.289 OA
ENDROOT
TORSDOF 0
ENDMDL
MODEL 13
REMARK VINA RESULT:      -4.9      8.434      9.830
REMARK  0 active torsions:
REMARK  status: ('A' for Active; 'I' for Inactive)
ROOT
HETATM    1  O   LIG     1      16.742  32.172  13.412  1.00  0.00    -0.289 OA
HETATM    2  C   LIG     1      15.883  31.800  14.254  1.00  0.00     0.172 A 
HETATM    3  C   LIG     1      15.015  30.641  13.965  1.00  0.00     0.058 A 
HETATM    4  C   LIG     1      14.103  30.245  14.860  1.00  0.00     0.058 A 
HETATM    5  C   LIG     1      15.738  32.522  15.534  1.00  0.00     0.058 A 
HETATM    6  C   LIG     1      14.826  32.126  16.428  1.00  0.00     0.058 A 
HETATM    7  C   LIG     1      13.958  30.967  16.140  1.00  0.00     0.172 A 
HETATM    8  O   LIG     1      13.099  30.594  16.982  1.00  0.00    -0.289 OA
ENDROOT
TORSDOF 0
ENDMDL
MODEL 14
REMARK VINA RESULT:      -4.8      8.539      9.767
REMARK  0 active torsions:
REMARK  status: ('A' for Active; 'I' for Inactive)
ROOT
HETATM    1  O   LIG     1      13.094  29.188  14.285  1.00  0.00    -0.289 OA
HETATM    2  C   LIG     1      13.722  30.114  14.861  1.00  0.00     0.172 A 
HETATM    3  C   LIG     1      13.198  30.704  16.108  1.00  0.00     0.058 A 
HETATM    4  C   LIG     1      13.866  31.688  16.719  1.00  0.00     0.058 A 
HETATM    5  C   LIG     1      14.987  30.618  14.290  1.00  0.00     0.058 A 
HETATM    6  C   LIG     1      15.655  31.603  14.901  1.00  0.00     0.058 A 
HETATM    7  C   LIG     1      15.131  32.192  16.148  1.00  0.00     0.172 A 
HETATM    8  O   LIG     1      15.759  33.119  16.724  1.00  0.00    -0.289 OA
ENDROOT
TORSDOF 0
ENDMDL
MODEL 15
REMARK VINA RESULT:      -4.8      8.216      9.602
REMARK  0 active torsions:
REMARK  status: ('A' for Active; 'I' for Inactive)
ROOT
HETATM    1  O   LIG     1      15.443  33.431  17.187  1.00  0.00    -0.289 OA
HETATM    2  C   LIG     1      14.968  32.474  16.520  1.00  0.00     0.172 A 
HETATM    3  C   LIG     1      15.665  31.996  15.309  1.00  0.00     0.058 A 
HETATM    4  C   LIG     1      15.161  30.980  14.601  1.00  0.00     0.058 A 
HETATM    5  C   LIG     1      13.712  31.825  16.944  1.00  0.00     0.058 A 
HETATM    6  C   LIG     1      13.208  30.809  16.236  1.00  0.00     0.058 A 
HETATM    7  C   LIG     1      13.904  30.331  15.025  1.00  0.00     0.172 A 
HETATM    8  O   LIG     1      13.430  29.374  14.358  1.00  0.00    -0.289 OA
ENDROOT
TORSDOF 0
ENDMDL
MODEL 16
REMARK VINA RESULT:      -4.8      1.599      2.035
REMARK  0 active torsions:
REMARK  status: ('A' for Active; 'I' for Inactive)
ROOT
HETATM    1  O   LIG     1      16.709  34.908  20.525  1.00  0.00    -0.289 OA
HETATM    2  C   LIG     1      17.161  36.049  20.804  1.00  0.00     0.172 A 
HETATM    3  C   LIG     1      18.250  36.634  19.996  1.00  0.00     0.058 A 
HETATM    4  C   LIG     1      18.730  37.847  20.293  1.00  0.00     0.058 A 
HETATM    5  C   LIG     1      16.607  36.809  21.943  1.00  0.00     0.058 A 
HETATM    6  C   LIG     1      17.087  38.021  22.239  1.00  0.00     0.058 A 
HETATM    7  C   LIG     1      18.176  38.606  21.431  1.00  0.00     0.172 A 
HETATM    8  O   LIG     1      18.628  39.747  21.711  1.00  0.00    -0.289 OA
ENDROOT
TORSDOF 0
ENDMDL
MODEL 17
REMARK VINA RESULT:      -4.8      8.325      9.803
REMARK  0 active torsions:
REMARK  status: ('A' for Active; 'I' for Inactive)
ROOT
HETATM    1  O   LIG     1      15.663  33.332  16.942  1.00  0.00    -0.289 OA
HETATM    2  C   LIG     1      15.108  32.382  16.329  1.00  0.00     0.172 A 
HETATM    3  C   LIG     1      13.849  31.805  16.840  1.00  0.00     0.058 A 
HETATM    4  C   LIG     1      13.260  30.795  16.189  1.00  0.00     0.058 A 
HETATM    5  C   LIG     1      15.716  31.838  15.099  1.00  0.00     0.058 A 
HETATM    6  C   LIG     1      15.127  30.828  14.448  1.00  0.00     0.058 A 
HETATM    7  C   LIG     1      13.867  30.251  14.958  1.00  0.00     0.172 A 
HETATM    8  O   LIG     1      13.313  29.301  14.346  1.00  0.00    -0.289 OA
ENDROOT
TORSDOF 0
ENDMDL
MODEL 18
REMARK VINA RESULT:      -4.8      1.611      3.485
REMARK  0 active torsions:
REMARK  status: ('A' for Active; 'I' for Inactive)
ROOT
HETATM    1  O   LIG     1      18.656  39.737  21.783  1.00  0.00    -0.289 OA
HETATM    2  C   LIG     1      18.198  38.607  21.468  1.00  0.00     0.172 A 
HETATM    3  C   LIG     1      17.107  38.002  22.257  1.00  0.00     0.058 A 
HETATM    4  C   LIG     1      16.622  36.802  21.922  1.00  0.00     0.058 A 
HETATM    5  C   LIG     1      18.752  37.881  20.308  1.00  0.00     0.058 A 
HETATM    6  C   LIG     1      18.266  36.681  19.973  1.00  0.00     0.058 A 
HETATM    7  C   LIG     1      17.175  36.075  20.762  1.00  0.00     0.172 A 
HETATM    8  O   LIG     1      16.718  34.945  20.446  1.00  0.00    -0.289 OA
ENDROOT
TORSDOF 0
ENDMDL
MODEL 19
REMARK VINA RESULT:      -4.6      2.707      3.678
REMARK  0 active torsions:
REMARK  status: ('A' for Active; 'I' for Inactive)
ROOT
HETATM    1  O   LIG     1      16.212  34.556  20.038  1.00  0.00    -0.289 OA
HETATM    2  C   LIG     1      16.297  35.577  20.769  1.00  0.00     0.172 A 
HETATM    3  C   LIG     1      15.154  35.985  21.610  1.00  0.00     0.058 A 
HETATM    4  C   LIG     1      15.245  37.070  22.387  1.00  0.00     0.058 A 
HETATM    5  C   LIG     1      17.540  36.374  20.789  1.00  0.00     0.058 A 
HETATM    6  C   LIG     1      17.631  37.458  21.566  1.00  0.00     0.058 A 
HETATM    7  C   LIG     1      16.488  37.866  22.407  1.00  0.00     0.172 A 
HETATM    8  O   LIG     1      16.573  38.887  23.138  1.00  0.00    -0.289 OA
ENDROOT
TORSDOF 0
ENDMDL
MODEL 20
REMARK VINA RESULT:      -4.5      2.339      4.126
REMARK  0 active torsions:
REMARK  status: ('A' for Active; 'I' for Inactive)
ROOT
HETATM    1  O   LIG     1      17.685  38.953  21.209  1.00  0.00    -0.289 OA
HETATM    2  C   LIG     1      17.515  37.965  21.971  1.00  0.00     0.172 A 
HETATM    3  C   LIG     1      17.309  36.617  21.404  1.00  0.00     0.058 A 
HETATM    4  C   LIG     1      17.129  35.568  22.214  1.00  0.00     0.058 A 
HETATM    5  C   LIG     1      17.520  38.149  23.436  1.00  0.00     0.058 A 
HETATM    6  C   LIG     1      17.340  37.100  24.245  1.00  0.00     0.058 A 
HETATM    7  C   LIG     1      17.133  35.753  23.679  1.00  0.00     0.172 A 
HETATM    8  O   LIG     1      16.964  34.765  24.441  1.00  0.00    -0.289 OA
ENDROOT
TORSDOF 0
ENDMDL
