REMARK  0 active torsions:
REMARK  status: ('A' for Active; 'I' for Inactive)
ROOT
HETATM    1 BR   LIG     1      -3.279  -0.454   0.010  1.00  0.00    -0.051 Br
HETATM    2  C   LIG     1      -1.387  -0.192   0.004  1.00  0.00     0.011 A 
HETATM    3  C   LIG     1      -0.527  -1.296   0.003  1.00  0.00     0.020 A 
HETATM    4  C   LIG     1       0.859  -1.104  -0.001  1.00  0.00     0.020 A 
HETATM    5  C   LIG     1       1.387   0.192  -0.004  1.00  0.00     0.011 A 
HETATM    6 BR   LIG     1       3.279   0.454  -0.010  1.00  0.00    -0.051 Br
HETATM    7  C   LIG     1       0.527   1.296  -0.003  1.00  0.00     0.020 A 
HETATM    8  C   LIG     1      -0.859   1.104   0.001  1.00  0.00     0.020 A 
ENDROOT
TORSDOF 0
