REMARK  1 active torsions:
REMARK  status: ('A' for Active; 'I' for Inactive)
REMARK    1  A    between atoms: C_2  and  C_3 
ROOT
HETATM    1  C   LIG     1      -1.819   0.046  -0.106  1.00  0.00     0.011 C 
HETATM    2  C   LIG     1      -0.549  -0.063  -0.485  1.00  0.00    -0.011 C 
ENDROOT
BRANCH   2   3
HETATM    3  C   LIG     1       0.549   0.063   0.485  1.00  0.00    -0.011 C 
HETATM    4  C   LIG     1       1.819  -0.046   0.106  1.00  0.00     0.011 C 
ENDBRANCH   2   3
TORSDOF 1
