MODEL 1
REMARK VINA RESULT:      -5.5      0.000      0.000
REMARK  2 active torsions:
REMARK  status: ('A' for Active; 'I' for Inactive)
REMARK    1  A    between atoms: N_1  and  C_2 
REMARK    2  A    between atoms: C_5  and  N_6 
ROOT
HETATM    1  C   LIG     1      17.616  37.419  21.302  1.00  0.00     0.025 A 
HETATM    2  C   LIG     1      17.916  38.773  21.503  1.00  0.00     0.031 A 
HETATM    3  C   LIG     1      18.878  39.407  20.711  1.00  0.00     0.031 A 
HETATM    4  C   LIG     1      19.551  38.691  19.710  1.00  0.00     0.025 A 
HETATM    5  C   LIG     1      19.250  37.336  19.508  1.00  0.00     0.031 A 
HETATM    6  C   LIG     1      18.288  36.703  20.301  1.00  0.00     0.031 A 
ENDROOT
BRANCH   1   7
HETATM    7  N   LIG     1      16.631  36.771  22.113  1.00  0.00    -0.399 N 
HETATM    8  H   LIG     1      15.969  36.079  21.698  1.00  0.00     0.156 HD
HETATM    9  H   LIG     1      16.558  36.981  23.133  1.00  0.00     0.156 HD
ENDBRANCH   1   7
BRANCH   4  10
HETATM   10  N   LIG     1      20.535  39.338  18.899  1.00  0.00    -0.399 N 
HETATM   11  H   LIG     1      20.815  38.937  17.977  1.00  0.00     0.156 HD
HETATM   12  H   LIG     1      20.991  40.223  19.216  1.00  0.00     0.156 HD
ENDBRANCH   4  10
TORSDOF 2
ENDMDL
MODEL 2
REMARK VINA RESULT:      -5.5      0.063      3.316
REMARK  2 active torsions:
REMARK  status: ('A' for Active; 'I' for Inactive)
REMARK    1  A    between atoms: N_1  and  C_2 
REMARK    2  A    between atoms: C_5  and  N_6 
ROOT
HETATM    1  C   LIG     1      19.523  38.680  19.726  1.00  0.00     0.025 A 
HETATM    2  C   LIG     1      18.875  39.361  20.767  1.00  0.00     0.031 A 
HETATM    3  C   LIG     1      17.923  38.704  21.554  1.00  0.00     0.031 A 
HETATM    4  C   LIG     1      17.609  37.360  21.306  1.00  0.00     0.025 A 
HETATM    5  C   LIG     1      18.257  36.680  20.265  1.00  0.00     0.031 A 
HETATM    6  C   LIG     1      19.209  37.336  19.478  1.00  0.00     0.031 A 
ENDROOT
BRANCH   1   7
HETATM    7  N   LIG     1      20.496  39.353  18.922  1.00  0.00    -0.399 N 
HETATM    8  H   LIG     1      21.477  39.000  18.865  1.00  0.00     0.156 HD
HETATM    9  H   LIG     1      20.242  40.207  18.379  1.00  0.00     0.156 HD
ENDBRANCH   1   7
BRANCH   4  10
HETATM   10  N   LIG     1      16.636  36.688  22.110  1.00  0.00    -0.399 N 
HETATM   11  H   LIG     1      16.834  35.745  22.511  1.00  0.00     0.156 HD
HETATM   12  H   LIG     1      15.711  37.129  22.309  1.00  0.00     0.156 HD
ENDBRANCH   4  10
TORSDOF 2
ENDMDL
MODEL 3
REMARK VINA RESULT:      -5.5      0.070      1.714
REMARK  2 active torsions:
REMARK  status: ('A' for Active; 'I' for Inactive)
REMARK    1  A    between atoms: N_1  and  C_2 
REMARK    2  A    between atoms: C_5  and  N_6 
ROOT
HETATM    1  C   LIG     1      17.609  37.355  21.311  1.00  0.00     0.025 A 
HETATM    2  C   LIG     1      18.251  36.677  20.265  1.00  0.00     0.031 A 
HETATM    3  C   LIG     1      19.200  37.335  19.477  1.00  0.00     0.031 A 
HETATM    4  C   LIG     1      19.515  38.679  19.726  1.00  0.00     0.025 A 
HETATM    5  C   LIG     1      18.873  39.357  20.772  1.00  0.00     0.031 A 
HETATM    6  C   LIG     1      17.923  38.699  21.560  1.00  0.00     0.031 A 
ENDROOT
BRANCH   1   7
HETATM    7  N   LIG     1      16.638  36.681  22.117  1.00  0.00    -0.399 N 
HETATM    8  H   LIG     1      16.873  35.785  22.598  1.00  0.00     0.156 HD
HETATM    9  H   LIG     1      15.679  37.075  22.239  1.00  0.00     0.156 HD
ENDBRANCH   1   7
BRANCH   4  10
HETATM   10  N   LIG     1      20.485  39.353  18.920  1.00  0.00    -0.399 N 
HETATM   11  H   LIG     1      21.505  39.254  19.118  1.00  0.00     0.156 HD
HETATM   12  H   LIG     1      20.190  39.955  18.120  1.00  0.00     0.156 HD
ENDBRANCH   4  10
TORSDOF 2
ENDMDL
MODEL 4
REMARK VINA RESULT:      -5.5      0.063      3.732
REMARK  2 active torsions:
REMARK  status: ('A' for Active; 'I' for Inactive)
REMARK    1  A    between atoms: N_1  and  C_2 
REMARK    2  A    between atoms: C_5  and  N_6 
ROOT
HETATM    1  C   LIG     1      19.524  38.680  19.726  1.00  0.00     0.025 A 
HETATM    2  C   LIG     1      19.210  37.335  19.480  1.00  0.00     0.031 A 
HETATM    3  C   LIG     1      18.257  36.679  20.265  1.00  0.00     0.031 A 
HETATM    4  C   LIG     1      17.610  37.360  21.305  1.00  0.00     0.025 A 
HETATM    5  C   LIG     1      17.923  38.704  21.552  1.00  0.00     0.031 A 
HETATM    6  C   LIG     1      18.876  39.361  20.767  1.00  0.00     0.031 A 
ENDROOT
BRANCH   1   7
HETATM    7  N   LIG     1      20.498  39.350  18.922  1.00  0.00    -0.399 N 
HETATM    8  H   LIG     1      20.935  40.242  19.246  1.00  0.00     0.156 HD
HETATM    9  H   LIG     1      20.789  38.960  17.999  1.00  0.00     0.156 HD
ENDBRANCH   1   7
BRANCH   4  10
HETATM   10  N   LIG     1      16.635  36.689  22.109  1.00  0.00    -0.399 N 
HETATM   11  H   LIG     1      15.718  37.138  22.322  1.00  0.00     0.156 HD
HETATM   12  H   LIG     1      16.826  35.738  22.497  1.00  0.00     0.156 HD
ENDBRANCH   4  10
TORSDOF 2
ENDMDL
MODEL 5
REMARK VINA RESULT:      -5.1      1.797      3.568
REMARK  2 active torsions:
REMARK  status: ('A' for Active; 'I' for Inactive)
REMARK    1  A    between atoms: N_1  and  C_2 
REMARK    2  A    between atoms: C_5  and  N_6 
ROOT
HETATM    1  C   LIG     1      18.124  37.002  20.467  1.00  0.00     0.025 A 
HETATM    2  C   LIG     1      18.310  38.277  21.021  1.00  0.00     0.031 A 
HETATM    3  C   LIG     1      17.720  38.606  22.246  1.00  0.00     0.031 A 
HETATM    4  C   LIG     1      16.937  37.664  22.927  1.00  0.00     0.025 A 
HETATM    5  C   LIG     1      16.751  36.389  22.373  1.00  0.00     0.031 A 
HETATM    6  C   LIG     1      17.341  36.060  21.149  1.00  0.00     0.031 A 
ENDROOT
BRANCH   1   7
HETATM    7  N   LIG     1      18.729  36.666  19.215  1.00  0.00    -0.399 N 
HETATM    8  H   LIG     1      19.367  37.337  18.733  1.00  0.00     0.156 HD
HETATM    9  H   LIG     1      18.541  35.745  18.762  1.00  0.00     0.156 HD
ENDBRANCH   1   7
BRANCH   4  10
HETATM   10  N   LIG     1      16.332  38.000  24.179  1.00  0.00    -0.399 N 
HETATM   11  H   LIG     1      15.314  38.218  24.239  1.00  0.00     0.156 HD
HETATM   12  H   LIG     1      16.901  38.031  25.055  1.00  0.00     0.156 HD
ENDBRANCH   4  10
TORSDOF 2
ENDMDL
MODEL 6
REMARK VINA RESULT:      -5.1      1.827      2.329
REMARK  2 active torsions:
REMARK  status: ('A' for Active; 'I' for Inactive)
REMARK    1  A    between atoms: N_1  and  C_2 
REMARK    2  A    between atoms: C_5  and  N_6 
ROOT
HETATM    1  C   LIG     1      17.004  37.782  22.970  1.00  0.00     0.025 A 
HETATM    2  C   LIG     1      17.774  38.692  22.230  1.00  0.00     0.031 A 
HETATM    3  C   LIG     1      18.325  38.313  21.002  1.00  0.00     0.031 A 
HETATM    4  C   LIG     1      18.115  37.020  20.503  1.00  0.00     0.025 A 
HETATM    5  C   LIG     1      17.345  36.110  21.242  1.00  0.00     0.031 A 
HETATM    6  C   LIG     1      16.793  36.489  22.470  1.00  0.00     0.031 A 
ENDROOT
BRANCH   1   7
HETATM    7  N   LIG     1      16.440  38.171  24.225  1.00  0.00    -0.399 N 
HETATM    8  H   LIG     1      15.657  38.861  24.268  1.00  0.00     0.156 HD
HETATM    9  H   LIG     1      16.800  37.771  25.119  1.00  0.00     0.156 HD
ENDBRANCH   1   7
BRANCH   4  10
HETATM   10  N   LIG     1      18.679  36.632  19.247  1.00  0.00    -0.399 N 
HETATM   11  H   LIG     1      19.100  35.685  19.121  1.00  0.00     0.156 HD
HETATM   12  H   LIG     1      18.679  37.289  18.436  1.00  0.00     0.156 HD
ENDBRANCH   4  10
TORSDOF 2
ENDMDL
MODEL 7
REMARK VINA RESULT:      -5.1      1.817      2.710
REMARK  2 active torsions:
REMARK  status: ('A' for Active; 'I' for Inactive)
REMARK    1  A    between atoms: N_1  and  C_2 
REMARK    2  A    between atoms: C_5  and  N_6 
ROOT
HETATM    1  C   LIG     1      17.002  37.804  22.980  1.00  0.00     0.025 A 
HETATM    2  C   LIG     1      16.809  36.509  22.479  1.00  0.00     0.031 A 
HETATM    3  C   LIG     1      17.364  36.138  21.251  1.00  0.00     0.031 A 
HETATM    4  C   LIG     1      18.116  37.060  20.509  1.00  0.00     0.025 A 
HETATM    5  C   LIG     1      18.309  38.356  21.010  1.00  0.00     0.031 A 
HETATM    6  C   LIG     1      17.754  38.727  22.239  1.00  0.00     0.031 A 
ENDROOT
BRANCH   1   7
HETATM    7  N   LIG     1      16.434  38.182  24.238  1.00  0.00    -0.399 N 
HETATM    8  H   LIG     1      16.563  37.583  25.083  1.00  0.00     0.156 HD
HETATM    9  H   LIG     1      15.882  39.063  24.331  1.00  0.00     0.156 HD
ENDBRANCH   1   7
BRANCH   4  10
HETATM   10  N   LIG     1      18.684  36.683  19.252  1.00  0.00    -0.399 N 
HETATM   11  H   LIG     1      18.730  35.680  18.967  1.00  0.00     0.156 HD
HETATM   12  H   LIG     1      19.060  37.404  18.598  1.00  0.00     0.156 HD
ENDBRANCH   4  10
TORSDOF 2
ENDMDL
MODEL 8
REMARK VINA RESULT:      -5.1      3.996      5.368
REMARK  2 active torsions:
REMARK  status: ('A' for Active; 'I' for Inactive)
REMARK    1  A    between atoms: N_1  and  C_2 
REMARK    2  A    between atoms: C_5  and  N_6 
ROOT
HETATM    1  C   LIG     1      16.890  37.863  23.861  1.00  0.00     0.025 A 
HETATM    2  C   LIG     1      17.401  38.142  25.137  1.00  0.00     0.031 A 
HETATM    3  C   LIG     1      17.839  37.103  25.964  1.00  0.00     0.031 A 
HETATM    4  C   LIG     1      17.767  35.773  25.524  1.00  0.00     0.025 A 
HETATM    5  C   LIG     1      17.256  35.494  24.248  1.00  0.00     0.031 A 
HETATM    6  C   LIG     1      16.818  36.533  23.421  1.00  0.00     0.031 A 
ENDROOT
BRANCH   1   7
HETATM    7  N   LIG     1      16.443  38.926  23.016  1.00  0.00    -0.399 N 
HETATM    8  H   LIG     1      17.121  39.619  22.626  1.00  0.00     0.156 HD
HETATM    9  H   LIG     1      15.433  39.028  22.775  1.00  0.00     0.156 HD
ENDBRANCH   1   7
BRANCH   4  10
HETATM   10  N   LIG     1      18.214  34.709  26.369  1.00  0.00    -0.399 N 
HETATM   11  H   LIG     1      17.551  34.227  27.016  1.00  0.00     0.156 HD
HETATM   12  H   LIG     1      19.210  34.397  26.353  1.00  0.00     0.156 HD
ENDBRANCH   4  10
TORSDOF 2
ENDMDL
MODEL 9
REMARK VINA RESULT:      -5.1      4.060      5.194
REMARK  2 active torsions:
REMARK  status: ('A' for Active; 'I' for Inactive)
REMARK    1  A    between atoms: N_1  and  C_2 
REMARK    2  A    between atoms: C_5  and  N_6 
ROOT
HETATM    1  C   LIG     1      17.816  35.763  25.567  1.00  0.00     0.025 A 
HETATM    2  C   LIG     1      17.287  35.471  24.301  1.00  0.00     0.031 A 
HETATM    3  C   LIG     1      16.813  36.499  23.481  1.00  0.00     0.031 A 
HETATM    4  C   LIG     1      16.861  37.830  23.920  1.00  0.00     0.025 A 
HETATM    5  C   LIG     1      17.390  38.122  25.185  1.00  0.00     0.031 A 
HETATM    6  C   LIG     1      17.864  37.094  26.005  1.00  0.00     0.031 A 
ENDROOT
BRANCH   1   7
HETATM    7  N   LIG     1      18.302  34.710  26.405  1.00  0.00    -0.399 N 
HETATM    8  H   LIG     1      19.197  34.221  26.183  1.00  0.00     0.156 HD
HETATM    9  H   LIG     1      17.769  34.413  27.251  1.00  0.00     0.156 HD
ENDBRANCH   1   7
BRANCH   4  10
HETATM   10  N   LIG     1      16.376  38.883  23.082  1.00  0.00    -0.399 N 
HETATM   11  H   LIG     1      16.987  39.308  22.350  1.00  0.00     0.156 HD
HETATM   12  H   LIG     1      15.402  39.244  23.189  1.00  0.00     0.156 HD
ENDBRANCH   4  10
TORSDOF 2
ENDMDL
MODEL 10
REMARK VINA RESULT:      -5.1      3.967      4.843
REMARK  2 active torsions:
REMARK  status: ('A' for Active; 'I' for Inactive)
REMARK    1  A    between atoms: N_1  and  C_2 
REMARK    2  A    between atoms: C_5  and  N_6 
ROOT
HETATM    1  C   LIG     1      17.722  35.795  25.493  1.00  0.00     0.025 A 
HETATM    2  C   LIG     1      17.811  37.117  25.953  1.00  0.00     0.031 A 
HETATM    3  C   LIG     1      17.405  38.176  25.135  1.00  0.00     0.031 A 
HETATM    4  C   LIG     1      16.908  37.923  23.848  1.00  0.00     0.025 A 
HETATM    5  C   LIG     1      16.819  36.601  23.389  1.00  0.00     0.031 A 
HETATM    6  C   LIG     1      17.225  35.542  24.207  1.00  0.00     0.031 A 
ENDROOT
BRANCH   1   7
HETATM    7  N   LIG     1      18.137  34.712  26.331  1.00  0.00    -0.399 N 
HETATM    8  H   LIG     1      17.486  34.304  27.038  1.00  0.00     0.156 HD
HETATM    9  H   LIG     1      19.098  34.312  26.249  1.00  0.00     0.156 HD
ENDBRANCH   1   7
BRANCH   4  10
HETATM   10  N   LIG     1      16.492  39.005  23.011  1.00  0.00    -0.399 N 
HETATM   11  H   LIG     1      16.969  39.932  23.061  1.00  0.00     0.156 HD
HETATM   12  H   LIG     1      15.706  38.886  22.334  1.00  0.00     0.156 HD
ENDBRANCH   4  10
TORSDOF 2
ENDMDL
MODEL 11
REMARK VINA RESULT:      -5.1      3.964      5.594
REMARK  2 active torsions:
REMARK  status: ('A' for Active; 'I' for Inactive)
REMARK    1  A    between atoms: N_1  and  C_2 
REMARK    2  A    between atoms: C_5  and  N_6 
ROOT
HETATM    1  C   LIG     1      16.919  37.891  23.845  1.00  0.00     0.025 A 
HETATM    2  C   LIG     1      16.837  36.564  23.399  1.00  0.00     0.031 A 
HETATM    3  C   LIG     1      17.248  35.515  24.227  1.00  0.00     0.031 A 
HETATM    4  C   LIG     1      17.748  35.783  25.509  1.00  0.00     0.025 A 
HETATM    5  C   LIG     1      17.830  37.110  25.956  1.00  0.00     0.031 A 
HETATM    6  C   LIG     1      17.419  38.159  25.127  1.00  0.00     0.031 A 
ENDROOT
BRANCH   1   7
HETATM    7  N   LIG     1      16.498  38.963  22.997  1.00  0.00    -0.399 N 
HETATM    8  H   LIG     1      17.180  39.681  22.666  1.00  0.00     0.156 HD
HETATM    9  H   LIG     1      15.502  39.045  22.696  1.00  0.00     0.156 HD
ENDBRANCH   1   7
BRANCH   4  10
HETATM   10  N   LIG     1      18.169  34.711  26.357  1.00  0.00    -0.399 N 
HETATM   11  H   LIG     1      17.493  33.978  26.667  1.00  0.00     0.156 HD
HETATM   12  H   LIG     1      19.160  34.643  26.680  1.00  0.00     0.156 HD
ENDBRANCH   4  10
TORSDOF 2
ENDMDL
MODEL 12
REMARK VINA RESULT:      -5.0      2.611      4.146
REMARK  2 active torsions:
REMARK  status: ('A' for Active; 'I' for Inactive)
REMARK    1  A    between atoms: N_1  and  C_2 
REMARK    2  A    between atoms: C_5  and  N_6 
ROOT
HETATM    1  C   LIG     1      17.250  36.566  21.602  1.00  0.00     0.025 A 
HETATM    2  C   LIG     1      16.978  35.845  22.774  1.00  0.00     0.031 A 
HETATM    3  C   LIG     1      16.992  36.488  24.015  1.00  0.00     0.031 A 
HETATM    4  C   LIG     1      17.280  37.858  24.098  1.00  0.00     0.025 A 
HETATM    5  C   LIG     1      17.553  38.578  22.926  1.00  0.00     0.031 A 
HETATM    6  C   LIG     1      17.539  37.935  21.684  1.00  0.00     0.031 A 
ENDROOT
BRANCH   1   7
HETATM    7  N   LIG     1      17.235  35.907  20.332  1.00  0.00    -0.399 N 
HETATM    8  H   LIG     1      18.119  35.551  19.905  1.00  0.00     0.156 HD
HETATM    9  H   LIG     1      16.341  35.772  19.811  1.00  0.00     0.156 HD
ENDBRANCH   1   7
BRANCH   4  10
HETATM   10  N   LIG     1      17.295  38.516  25.367  1.00  0.00    -0.399 N 
HETATM   11  H   LIG     1      17.527  39.531  25.439  1.00  0.00     0.156 HD
HETATM   12  H   LIG     1      17.074  37.992  26.243  1.00  0.00     0.156 HD
ENDBRANCH   4  10
TORSDOF 2
ENDMDL
MODEL 13
REMARK VINA RESULT:      -5.0      3.679      4.535
REMARK  2 active torsions:
REMARK  status: ('A' for Active; 'I' for Inactive)
REMARK    1  A    between atoms: N_1  and  C_2 
REMARK    2  A    between atoms: C_5  and  N_6 
ROOT
HETATM    1  C   LIG     1      17.144  37.567  24.656  1.00  0.00     0.025 A 
HETATM    2  C   LIG     1      16.798  38.000  23.368  1.00  0.00     0.031 A 
HETATM    3  C   LIG     1      16.625  37.073  22.335  1.00  0.00     0.031 A 
HETATM    4  C   LIG     1      16.798  35.703  22.581  1.00  0.00     0.025 A 
HETATM    5  C   LIG     1      17.144  35.270  23.869  1.00  0.00     0.031 A 
HETATM    6  C   LIG     1      17.317  36.197  24.901  1.00  0.00     0.031 A 
ENDROOT
BRANCH   1   7
HETATM    7  N   LIG     1      17.320  38.516  25.711  1.00  0.00    -0.399 N 
HETATM    8  H   LIG     1      16.883  39.463  25.657  1.00  0.00     0.156 HD
HETATM    9  H   LIG     1      17.888  38.278  26.554  1.00  0.00     0.156 HD
ENDBRANCH   1   7
BRANCH   4  10
HETATM   10  N   LIG     1      16.622  34.754  21.525  1.00  0.00    -0.399 N 
HETATM   11  H   LIG     1      16.023  33.910  21.661  1.00  0.00     0.156 HD
HETATM   12  H   LIG     1      17.089  34.890  20.601  1.00  0.00     0.156 HD
ENDBRANCH   4  10
TORSDOF 2
ENDMDL
MODEL 14
REMARK VINA RESULT:      -5.0      8.958      9.975
REMARK  2 active torsions:
REMARK  status: ('A' for Active; 'I' for Inactive)
REMARK    1  A    between atoms: N_1  and  C_2 
REMARK    2  A    between atoms: C_5  and  N_6 
ROOT
HETATM    1  C   LIG     1      13.533  29.919  14.732  1.00  0.00     0.025 A 
HETATM    2  C   LIG     1      13.080  30.539  15.906  1.00  0.00     0.031 A 
HETATM    3  C   LIG     1      13.842  31.544  16.511  1.00  0.00     0.031 A 
HETATM    4  C   LIG     1      15.065  31.937  15.949  1.00  0.00     0.025 A 
HETATM    5  C   LIG     1      15.517  31.317  14.775  1.00  0.00     0.031 A 
HETATM    6  C   LIG     1      14.756  30.312  14.170  1.00  0.00     0.031 A 
ENDROOT
BRANCH   1   7
HETATM    7  N   LIG     1      12.752  28.892  14.114  1.00  0.00    -0.399 N 
HETATM    8  H   LIG     1      13.084  27.902  14.105  1.00  0.00     0.156 HD
HETATM    9  H   LIG     1      11.839  29.115  13.660  1.00  0.00     0.156 HD
ENDBRANCH   1   7
BRANCH   4  10
HETATM   10  N   LIG     1      15.845  32.964  16.567  1.00  0.00    -0.399 N 
HETATM   11  H   LIG     1      15.451  33.919  16.712  1.00  0.00     0.156 HD
HETATM   12  H   LIG     1      16.821  32.775  16.884  1.00  0.00     0.156 HD
ENDBRANCH   4  10
TORSDOF 2
ENDMDL
MODEL 15
REMARK VINA RESULT:      -5.0      8.970     10.064
REMARK  2 active torsions:
REMARK  status: ('A' for Active; 'I' for Inactive)
REMARK    1  A    between atoms: N_1  and  C_2 
REMARK    2  A    between atoms: C_5  and  N_6 
ROOT
HETATM    1  C   LIG     1      13.533  29.911  14.724  1.00  0.00     0.025 A 
HETATM    2  C   LIG     1      14.753  30.304  14.154  1.00  0.00     0.031 A 
HETATM    3  C   LIG     1      15.518  31.310  14.752  1.00  0.00     0.031 A 
HETATM    4  C   LIG     1      15.070  31.934  15.925  1.00  0.00     0.025 A 
HETATM    5  C   LIG     1      13.851  31.541  16.495  1.00  0.00     0.031 A 
HETATM    6  C   LIG     1      13.085  30.535  15.897  1.00  0.00     0.031 A 
ENDROOT
BRANCH   1   7
HETATM    7  N   LIG     1      12.751  28.882  14.112  1.00  0.00    -0.399 N 
HETATM    8  H   LIG     1      12.727  28.775  13.073  1.00  0.00     0.156 HD
HETATM    9  H   LIG     1      12.191  28.220  14.693  1.00  0.00     0.156 HD
ENDBRANCH   1   7
BRANCH   4  10
HETATM   10  N   LIG     1      15.852  32.964  16.537  1.00  0.00    -0.399 N 
HETATM   11  H   LIG     1      15.536  33.419  17.421  1.00  0.00     0.156 HD
HETATM   12  H   LIG     1      16.752  33.276  16.110  1.00  0.00     0.156 HD
ENDBRANCH   4  10
TORSDOF 2
ENDMDL
MODEL 16
REMARK VINA RESULT:      -4.8      1.680      3.308
REMARK  2 active torsions:
REMARK  status: ('A' for Active; 'I' for Inactive)
REMARK    1  A    between atoms: N_1  and  C_2 
REMARK    2  A    between atoms: C_5  and  N_6 
ROOT
HETATM    1  C   LIG     1      18.304  38.600  21.344  1.00  0.00     0.025 A 
HETATM    2  C   LIG     1      17.277  38.123  22.172  1.00  0.00     0.031 A 
HETATM    3  C   LIG     1      16.693  36.877  21.925  1.00  0.00     0.031 A 
HETATM    4  C   LIG     1      17.130  36.095  20.846  1.00  0.00     0.025 A 
HETATM    5  C   LIG     1      18.156  36.571  20.018  1.00  0.00     0.031 A 
HETATM    6  C   LIG     1      18.740  37.818  20.265  1.00  0.00     0.031 A 
ENDROOT
BRANCH   1   7
HETATM    7  N   LIG     1      18.901  39.874  21.598  1.00  0.00    -0.399 N 
HETATM    8  H   LIG     1      18.837  40.643  20.894  1.00  0.00     0.156 HD
HETATM    9  H   LIG     1      19.409  40.057  22.490  1.00  0.00     0.156 HD
ENDBRANCH   1   7
BRANCH   4  10
HETATM   10  N   LIG     1      16.533  34.820  20.592  1.00  0.00    -0.399 N 
HETATM   11  H   LIG     1      15.647  34.745  20.047  1.00  0.00     0.156 HD
HETATM   12  H   LIG     1      16.974  33.944  20.949  1.00  0.00     0.156 HD
ENDBRANCH   4  10
TORSDOF 2
ENDMDL
MODEL 17
REMARK VINA RESULT:      -4.8      7.854      8.675
REMARK  2 active torsions:
REMARK  status: ('A' for Active; 'I' for Inactive)
REMARK    1  A    between atoms: N_1  and  C_2 
REMARK    2  A    between atoms: C_5  and  N_6 
ROOT
HETATM    1  C   LIG     1      13.584  31.031  16.306  1.00  0.00     0.025 A 
HETATM    2  C   LIG     1      13.985  32.105  17.114  1.00  0.00     0.031 A 
HETATM    3  C   LIG     1      15.143  32.825  16.805  1.00  0.00     0.031 A 
HETATM    4  C   LIG     1      15.913  32.477  15.686  1.00  0.00     0.025 A 
HETATM    5  C   LIG     1      15.512  31.403  14.878  1.00  0.00     0.031 A 
HETATM    6  C   LIG     1      14.354  30.683  15.187  1.00  0.00     0.031 A 
ENDROOT
BRANCH   1   7
HETATM    7  N   LIG     1      12.399  30.296  16.623  1.00  0.00    -0.399 N 
HETATM    8  H   LIG     1      11.767  29.949  15.867  1.00  0.00     0.156 HD
HETATM    9  H   LIG     1      12.146  30.093  17.615  1.00  0.00     0.156 HD
ENDBRANCH   1   7
BRANCH   4  10
HETATM   10  N   LIG     1      17.098  33.212  15.369  1.00  0.00    -0.399 N 
HETATM   11  H   LIG     1      17.604  33.752  16.105  1.00  0.00     0.156 HD
HETATM   12  H   LIG     1      17.477  33.221  14.396  1.00  0.00     0.156 HD
ENDBRANCH   4  10
TORSDOF 2
ENDMDL
MODEL 18
REMARK VINA RESULT:      -4.7      9.183     10.220
REMARK  2 active torsions:
REMARK  status: ('A' for Active; 'I' for Inactive)
REMARK    1  A    between atoms: N_1  and  C_2 
REMARK    2  A    between atoms: C_5  and  N_6 
ROOT
HETATM    1  C   LIG     1      13.677  31.428  16.330  1.00  0.00     0.025 A 
HETATM    2  C   LIG     1      14.958  31.736  15.850  1.00  0.00     0.031 A 
HETATM    3  C   LIG     1      15.505  31.011  14.786  1.00  0.00     0.031 A 
HETATM    4  C   LIG     1      14.777  29.970  14.193  1.00  0.00     0.025 A 
HETATM    5  C   LIG     1      13.495  29.662  14.673  1.00  0.00     0.031 A 
HETATM    6  C   LIG     1      12.948  30.387  15.737  1.00  0.00     0.031 A 
ENDROOT
BRANCH   1   7
HETATM    7  N   LIG     1      13.118  32.170  17.418  1.00  0.00    -0.399 N 
HETATM    8  H   LIG     1      13.331  33.185  17.536  1.00  0.00     0.156 HD
HETATM    9  H   LIG     1      12.488  31.709  18.110  1.00  0.00     0.156 HD
ENDBRANCH   1   7
BRANCH   4  10
HETATM   10  N   LIG     1      15.336  29.228  13.105  1.00  0.00    -0.399 N 
HETATM   11  H   LIG     1      14.809  29.111  12.213  1.00  0.00     0.156 HD
HETATM   12  H   LIG     1      16.280  28.791  13.187  1.00  0.00     0.156 HD
ENDBRANCH   4  10
TORSDOF 2
ENDMDL
MODEL 19
REMARK VINA RESULT:      -4.6      8.113      9.452
REMARK  2 active torsions:
REMARK  status: ('A' for Active; 'I' for Inactive)
REMARK    1  A    between atoms: N_1  and  C_2 
REMARK    2  A    between atoms: C_5  and  N_6 
ROOT
HETATM    1  C   LIG     1      15.080  31.157  14.586  1.00  0.00     0.025 A 
HETATM    2  C   LIG     1      15.770  32.141  15.309  1.00  0.00     0.031 A 
HETATM    3  C   LIG     1      15.401  32.438  16.625  1.00  0.00     0.031 A 
HETATM    4  C   LIG     1      14.337  31.755  17.230  1.00  0.00     0.025 A 
HETATM    5  C   LIG     1      13.646  30.771  16.508  1.00  0.00     0.031 A 
HETATM    6  C   LIG     1      14.015  30.474  15.192  1.00  0.00     0.031 A 
ENDROOT
BRANCH   1   7
HETATM    7  N   LIG     1      15.458  30.854  13.241  1.00  0.00    -0.399 N 
HETATM    8  H   LIG     1      14.755  30.882  12.469  1.00  0.00     0.156 HD
HETATM    9  H   LIG     1      16.443  30.600  13.007  1.00  0.00     0.156 HD
ENDBRANCH   1   7
BRANCH   4  10
HETATM   10  N   LIG     1      13.959  32.058  18.576  1.00  0.00    -0.399 N 
HETATM   11  H   LIG     1      13.348  32.877  18.787  1.00  0.00     0.156 HD
HETATM   12  H   LIG     1      14.287  31.464  19.370  1.00  0.00     0.156 HD
ENDBRANCH   4  10
TORSDOF 2
ENDMDL
MODEL 20
REMARK VINA RESULT:      -4.4      2.839      3.717
REMARK  2 active torsions:
REMARK  status: ('A' for Active; 'I' for Inactive)
REMARK    1  A    between atoms: N_1  and  C_2 
REMARK    2  A    between atoms: C_5  and  N_6 
ROOT
HETATM    1  C   LIG     1      16.194  35.551  20.798  1.00  0.00     0.025 A 
HETATM    2  C   LIG     1      15.148  36.016  21.608  1.00  0.00     0.031 A 
HETATM    3  C   LIG     1      15.322  37.155  22.399  1.00  0.00     0.031 A 
HETATM    4  C   LIG     1      16.546  37.840  22.390  1.00  0.00     0.025 A 
HETATM    5  C   LIG     1      17.592  37.375  21.580  1.00  0.00     0.031 A 
HETATM    6  C   LIG     1      17.418  36.236  20.789  1.00  0.00     0.031 A 
ENDROOT
BRANCH   1   7
HETATM    7  N   LIG     1      16.014  34.386  19.988  1.00  0.00    -0.399 N 
HETATM    8  H   LIG     1      15.218  34.320  19.316  1.00  0.00     0.156 HD
HETATM    9  H   LIG     1      16.677  33.582  20.055  1.00  0.00     0.156 HD
ENDBRANCH   1   7
BRANCH   4  10
HETATM   10  N   LIG     1      16.725  39.006  23.200  1.00  0.00    -0.399 N 
HETATM   11  H   LIG     1      17.482  39.692  22.987  1.00  0.00     0.156 HD
HETATM   12  H   LIG     1      16.102  39.189  24.017  1.00  0.00     0.156 HD
ENDBRANCH   4  10
TORSDOF 2
ENDMDL
