MODEL 1
REMARK VINA RESULT:      -6.0      0.000      0.000
REMARK  1 active torsions:
REMARK  status: ('A' for Active; 'I' for Inactive)
REMARK    1  A    between atoms: O_1  and  C_2 
ROOT
HETATM    1  C   LIG     1      19.670  38.781  19.755  1.00  0.00     0.065 A 
HETATM    2  C   LIG     1      19.388  37.446  19.442  1.00  0.00     0.038 A 
HETATM    3  C   LIG     1      18.408  36.749  20.155  1.00  0.00     0.026 A 
HETATM    4  C   LIG     1      17.706  37.384  21.187  1.00  0.00     0.034 A 
HETATM    5 CL   LIG     1      16.477  36.510  22.081  1.00  0.00    -0.084 Cl
HETATM    6  C   LIG     1      17.986  38.719  21.501  1.00  0.00     0.026 A 
HETATM    7  C   LIG     1      18.966  39.416  20.788  1.00  0.00     0.038 A 
ENDROOT
BRANCH   1   8
HETATM    8  O   LIG     1      20.649  39.464  19.036  1.00  0.00    -0.361 OA
HETATM    9  H   LIG     1      20.531  39.674  18.051  1.00  0.00     0.217 HD
ENDBRANCH   1   8
TORSDOF 1
ENDMDL
MODEL 2
REMARK VINA RESULT:      -6.0      0.015      1.714
REMARK  1 active torsions:
REMARK  status: ('A' for Active; 'I' for Inactive)
REMARK    1  A    between atoms: O_1  and  C_2 
ROOT
HETATM    1  C   LIG     1      19.671  38.766  19.745  1.00  0.00     0.065 A 
HETATM    2  C   LIG     1      18.973  39.411  20.774  1.00  0.00     0.038 A 
HETATM    3  C   LIG     1      17.991  38.724  21.494  1.00  0.00     0.026 A 
HETATM    4  C   LIG     1      17.702  37.388  21.189  1.00  0.00     0.034 A 
HETATM    5 CL   LIG     1      16.470  36.527  22.092  1.00  0.00    -0.084 Cl
HETATM    6  C   LIG     1      18.399  36.742  20.161  1.00  0.00     0.026 A 
HETATM    7  C   LIG     1      19.381  37.428  19.441  1.00  0.00     0.038 A 
ENDROOT
BRANCH   1   8
HETATM    8  O   LIG     1      20.647  39.462  19.036  1.00  0.00    -0.361 OA
HETATM    9  H   LIG     1      21.590  39.562  19.394  1.00  0.00     0.217 HD
ENDBRANCH   1   8
TORSDOF 1
ENDMDL
MODEL 3
REMARK VINA RESULT:      -5.7      3.151      4.088
REMARK  1 active torsions:
REMARK  status: ('A' for Active; 'I' for Inactive)
REMARK    1  A    between atoms: O_1  and  C_2 
ROOT
HETATM    1  C   LIG     1      16.200  37.761  22.694  1.00  0.00     0.065 A 
HETATM    2  C   LIG     1      17.107  38.747  22.288  1.00  0.00     0.038 A 
HETATM    3  C   LIG     1      18.066  38.461  21.312  1.00  0.00     0.026 A 
HETATM    4  C   LIG     1      18.123  37.186  20.736  1.00  0.00     0.034 A 
HETATM    5 CL   LIG     1      19.326  36.828  19.511  1.00  0.00    -0.084 Cl
HETATM    6  C   LIG     1      17.217  36.198  21.139  1.00  0.00     0.026 A 
HETATM    7  C   LIG     1      16.258  36.484  22.116  1.00  0.00     0.038 A 
ENDROOT
BRANCH   1   8
HETATM    8  O   LIG     1      15.249  38.059  23.667  1.00  0.00    -0.361 OA
HETATM    9  H   LIG     1      15.514  38.462  24.559  1.00  0.00     0.217 HD
ENDBRANCH   1   8
TORSDOF 1
ENDMDL
MODEL 4
REMARK VINA RESULT:      -5.7      3.147      3.808
REMARK  1 active torsions:
REMARK  status: ('A' for Active; 'I' for Inactive)
REMARK    1  A    between atoms: O_1  and  C_2 
ROOT
HETATM    1  C   LIG     1      16.212  37.778  22.692  1.00  0.00     0.065 A 
HETATM    2  C   LIG     1      16.261  36.502  22.119  1.00  0.00     0.038 A 
HETATM    3  C   LIG     1      17.219  36.206  21.144  1.00  0.00     0.026 A 
HETATM    4  C   LIG     1      18.132  37.186  20.737  1.00  0.00     0.034 A 
HETATM    5 CL   LIG     1      19.333  36.815  19.514  1.00  0.00    -0.084 Cl
HETATM    6  C   LIG     1      18.085  38.463  21.309  1.00  0.00     0.026 A 
HETATM    7  C   LIG     1      17.128  38.759  22.284  1.00  0.00     0.038 A 
ENDROOT
BRANCH   1   8
HETATM    8  O   LIG     1      15.254  38.060  23.663  1.00  0.00    -0.361 OA
HETATM    9  H   LIG     1      14.729  38.927  23.652  1.00  0.00     0.217 HD
ENDBRANCH   1   8
TORSDOF 1
ENDMDL
MODEL 5
REMARK VINA RESULT:      -5.5      4.298      4.847
REMARK  1 active torsions:
REMARK  status: ('A' for Active; 'I' for Inactive)
REMARK    1  A    between atoms: O_1  and  C_2 
ROOT
HETATM    1  C   LIG     1      16.795  38.035  23.764  1.00  0.00     0.065 A 
HETATM    2  C   LIG     1      16.753  36.715  23.299  1.00  0.00     0.038 A 
HETATM    3  C   LIG     1      17.215  35.671  24.106  1.00  0.00     0.026 A 
HETATM    4  C   LIG     1      17.722  35.942  25.383  1.00  0.00     0.034 A 
HETATM    5 CL   LIG     1      18.301  34.632  26.395  1.00  0.00    -0.084 Cl
HETATM    6  C   LIG     1      17.764  37.261  25.850  1.00  0.00     0.026 A 
HETATM    7  C   LIG     1      17.303  38.306  25.043  1.00  0.00     0.038 A 
ENDROOT
BRANCH   1   8
HETATM    8  O   LIG     1      16.332  39.066  22.950  1.00  0.00    -0.361 OA
HETATM    9  H   LIG     1      15.340  39.240  22.830  1.00  0.00     0.217 HD
ENDBRANCH   1   8
TORSDOF 1
ENDMDL
MODEL 6
REMARK VINA RESULT:      -5.3      3.907      4.782
REMARK  1 active torsions:
REMARK  status: ('A' for Active; 'I' for Inactive)
REMARK    1  A    between atoms: O_1  and  C_2 
ROOT
HETATM    1  C   LIG     1      17.019  37.960  23.314  1.00  0.00     0.065 A 
HETATM    2  C   LIG     1      17.451  38.295  24.603  1.00  0.00     0.038 A 
HETATM    3  C   LIG     1      17.710  37.291  25.540  1.00  0.00     0.026 A 
HETATM    4  C   LIG     1      17.536  35.945  25.193  1.00  0.00     0.034 A 
HETATM    5 CL   LIG     1      17.861  34.685  26.369  1.00  0.00    -0.084 Cl
HETATM    6  C   LIG     1      17.104  35.608  23.905  1.00  0.00     0.026 A 
HETATM    7  C   LIG     1      16.846  36.612  22.967  1.00  0.00     0.038 A 
ENDROOT
BRANCH   1   8
HETATM    8  O   LIG     1      16.765  38.971  22.389  1.00  0.00    -0.361 OA
HETATM    9  H   LIG     1      15.823  39.301  22.212  1.00  0.00     0.217 HD
ENDBRANCH   1   8
TORSDOF 1
ENDMDL
MODEL 7
REMARK VINA RESULT:      -5.3      4.737      5.680
REMARK  1 active torsions:
REMARK  status: ('A' for Active; 'I' for Inactive)
REMARK    1  A    between atoms: O_1  and  C_2 
ROOT
HETATM    1  C   LIG     1      17.707  35.620  25.535  1.00  0.00     0.065 A 
HETATM    2  C   LIG     1      17.862  36.961  25.907  1.00  0.00     0.038 A 
HETATM    3  C   LIG     1      17.539  37.982  25.007  1.00  0.00     0.026 A 
HETATM    4  C   LIG     1      17.058  37.666  23.731  1.00  0.00     0.034 A 
HETATM    5 CL   LIG     1      16.652  38.946  22.603  1.00  0.00    -0.084 Cl
HETATM    6  C   LIG     1      16.901  36.326  23.356  1.00  0.00     0.026 A 
HETATM    7  C   LIG     1      17.225  35.305  24.256  1.00  0.00     0.038 A 
ENDROOT
BRANCH   1   8
HETATM    8  O   LIG     1      18.032  34.613  26.440  1.00  0.00    -0.361 OA
HETATM    9  H   LIG     1      17.335  34.210  27.056  1.00  0.00     0.217 HD
ENDBRANCH   1   8
TORSDOF 1
ENDMDL
MODEL 8
REMARK VINA RESULT:      -5.3      4.036      4.833
REMARK  1 active torsions:
REMARK  status: ('A' for Active; 'I' for Inactive)
REMARK    1  A    between atoms: O_1  and  C_2 
ROOT
HETATM    1  C   LIG     1      17.287  37.356  24.866  1.00  0.00     0.065 A 
HETATM    2  C   LIG     1      16.939  37.908  23.627  1.00  0.00     0.038 A 
HETATM    3  C   LIG     1      16.696  37.077  22.530  1.00  0.00     0.026 A 
HETATM    4  C   LIG     1      16.802  35.687  22.666  1.00  0.00     0.034 A 
HETATM    5 CL   LIG     1      16.497  34.644  21.289  1.00  0.00    -0.084 Cl
HETATM    6  C   LIG     1      17.150  35.132  23.903  1.00  0.00     0.026 A 
HETATM    7  C   LIG     1      17.392  35.964  25.000  1.00  0.00     0.038 A 
ENDROOT
BRANCH   1   8
HETATM    8  O   LIG     1      17.526  38.196  25.951  1.00  0.00    -0.361 OA
HETATM    9  H   LIG     1      18.381  38.132  26.491  1.00  0.00     0.217 HD
ENDBRANCH   1   8
TORSDOF 1
ENDMDL
MODEL 9
REMARK VINA RESULT:      -5.1      1.636      2.507
REMARK  1 active torsions:
REMARK  status: ('A' for Active; 'I' for Inactive)
REMARK    1  A    between atoms: O_1  and  C_2 
ROOT
HETATM    1  C   LIG     1      18.288  38.705  21.405  1.00  0.00     0.065 A 
HETATM    2  C   LIG     1      17.315  38.303  22.328  1.00  0.00     0.038 A 
HETATM    3  C   LIG     1      16.726  37.039  22.224  1.00  0.00     0.026 A 
HETATM    4  C   LIG     1      17.109  36.170  21.194  1.00  0.00     0.034 A 
HETATM    5 CL   LIG     1      16.370  34.585  21.063  1.00  0.00    -0.084 Cl
HETATM    6  C   LIG     1      18.082  36.569  20.270  1.00  0.00     0.026 A 
HETATM    7  C   LIG     1      18.670  37.833  20.375  1.00  0.00     0.038 A 
ENDROOT
BRANCH   1   8
HETATM    8  O   LIG     1      18.867  39.967  21.521  1.00  0.00    -0.361 OA
HETATM    9  H   LIG     1      18.325  40.812  21.380  1.00  0.00     0.217 HD
ENDBRANCH   1   8
TORSDOF 1
ENDMDL
MODEL 10
REMARK VINA RESULT:      -5.1      2.003      2.869
REMARK  1 active torsions:
REMARK  status: ('A' for Active; 'I' for Inactive)
REMARK    1  A    between atoms: O_1  and  C_2 
ROOT
HETATM    1  C   LIG     1      18.034  36.852  20.350  1.00  0.00     0.065 A 
HETATM    2  C   LIG     1      18.309  38.102  20.916  1.00  0.00     0.038 A 
HETATM    3  C   LIG     1      17.889  38.391  22.218  1.00  0.00     0.026 A 
HETATM    4  C   LIG     1      17.191  37.431  22.960  1.00  0.00     0.034 A 
HETATM    5 CL   LIG     1      16.664  37.794  24.593  1.00  0.00    -0.084 Cl
HETATM    6  C   LIG     1      16.914  36.180  22.396  1.00  0.00     0.026 A 
HETATM    7  C   LIG     1      17.335  35.890  21.094  1.00  0.00     0.038 A 
ENDROOT
BRANCH   1   8
HETATM    8  O   LIG     1      18.459  36.576  19.052  1.00  0.00    -0.361 OA
HETATM    9  H   LIG     1      18.199  37.171  18.273  1.00  0.00     0.217 HD
ENDBRANCH   1   8
TORSDOF 1
ENDMDL
MODEL 11
REMARK VINA RESULT:      -4.9      8.635      9.715
REMARK  1 active torsions:
REMARK  status: ('A' for Active; 'I' for Inactive)
REMARK    1  A    between atoms: O_1  and  C_2 
ROOT
HETATM    1  C   LIG     1      13.465  30.891  16.252  1.00  0.00     0.065 A 
HETATM    2  C   LIG     1      13.958  31.984  16.976  1.00  0.00     0.038 A 
HETATM    3  C   LIG     1      15.121  32.637  16.557  1.00  0.00     0.026 A 
HETATM    4  C   LIG     1      15.797  32.200  15.411  1.00  0.00     0.034 A 
HETATM    5 CL   LIG     1      17.256  33.020  14.886  1.00  0.00    -0.084 Cl
HETATM    6  C   LIG     1      15.307  31.108  14.686  1.00  0.00     0.026 A 
HETATM    7  C   LIG     1      14.144  30.455  15.105  1.00  0.00     0.038 A 
ENDROOT
BRANCH   1   8
HETATM    8  O   LIG     1      12.305  30.249  16.680  1.00  0.00    -0.361 OA
HETATM    9  H   LIG     1      12.201  29.243  16.610  1.00  0.00     0.217 HD
ENDBRANCH   1   8
TORSDOF 1
ENDMDL
MODEL 12
REMARK VINA RESULT:      -4.9      8.105      9.062
REMARK  1 active torsions:
REMARK  status: ('A' for Active; 'I' for Inactive)
REMARK    1  A    between atoms: O_1  and  C_2 
ROOT
HETATM    1  C   LIG     1      14.886  32.870  16.969  1.00  0.00     0.065 A 
HETATM    2  C   LIG     1      13.794  32.037  17.240  1.00  0.00     0.038 A 
HETATM    3  C   LIG     1      13.504  30.959  16.397  1.00  0.00     0.026 A 
HETATM    4  C   LIG     1      14.306  30.711  15.276  1.00  0.00     0.034 A 
HETATM    5 CL   LIG     1      13.943  29.360  14.219  1.00  0.00    -0.084 Cl
HETATM    6  C   LIG     1      15.399  31.542  15.002  1.00  0.00     0.026 A 
HETATM    7  C   LIG     1      15.688  32.619  15.846  1.00  0.00     0.038 A 
ENDROOT
BRANCH   1   8
HETATM    8  O   LIG     1      15.163  33.939  17.817  1.00  0.00    -0.361 OA
HETATM    9  H   LIG     1      15.347  34.867  17.455  1.00  0.00     0.217 HD
ENDBRANCH   1   8
TORSDOF 1
ENDMDL
MODEL 13
REMARK VINA RESULT:      -4.9      8.111      9.027
REMARK  1 active torsions:
REMARK  status: ('A' for Active; 'I' for Inactive)
REMARK    1  A    between atoms: O_1  and  C_2 
ROOT
HETATM    1  C   LIG     1      14.871  32.872  16.958  1.00  0.00     0.065 A 
HETATM    2  C   LIG     1      15.689  32.632  15.848  1.00  0.00     0.038 A 
HETATM    3  C   LIG     1      15.422  31.554  14.998  1.00  0.00     0.026 A 
HETATM    4  C   LIG     1      14.335  30.711  15.255  1.00  0.00     0.034 A 
HETATM    5 CL   LIG     1      13.999  29.359  14.189  1.00  0.00    -0.084 Cl
HETATM    6  C   LIG     1      13.515  30.949  16.365  1.00  0.00     0.026 A 
HETATM    7  C   LIG     1      13.782  32.026  17.215  1.00  0.00     0.038 A 
ENDROOT
BRANCH   1   8
HETATM    8  O   LIG     1      15.148  33.950  17.796  1.00  0.00    -0.361 OA
HETATM    9  H   LIG     1      15.819  34.663  17.536  1.00  0.00     0.217 HD
ENDBRANCH   1   8
TORSDOF 1
ENDMDL
MODEL 14
REMARK VINA RESULT:      -4.9      3.590      4.626
REMARK  1 active torsions:
REMARK  status: ('A' for Active; 'I' for Inactive)
REMARK    1  A    between atoms: O_1  and  C_2 
ROOT
HETATM    1  C   LIG     1      15.369  35.795  21.533  1.00  0.00     0.065 A 
HETATM    2  C   LIG     1      15.241  36.917  22.360  1.00  0.00     0.038 A 
HETATM    3  C   LIG     1      16.274  37.856  22.435  1.00  0.00     0.026 A 
HETATM    4  C   LIG     1      17.441  37.677  21.683  1.00  0.00     0.034 A 
HETATM    5 CL   LIG     1      18.737  38.855  21.777  1.00  0.00    -0.084 Cl
HETATM    6  C   LIG     1      17.571  36.556  20.854  1.00  0.00     0.026 A 
HETATM    7  C   LIG     1      16.538  35.617  20.780  1.00  0.00     0.038 A 
ENDROOT
BRANCH   1   8
HETATM    8  O   LIG     1      14.332  34.867  21.467  1.00  0.00    -0.361 OA
HETATM    9  H   LIG     1      14.322  34.133  20.768  1.00  0.00     0.217 HD
ENDBRANCH   1   8
TORSDOF 1
ENDMDL
MODEL 15
REMARK VINA RESULT:      -4.8      3.579      4.319
REMARK  1 active torsions:
REMARK  status: ('A' for Active; 'I' for Inactive)
REMARK    1  A    between atoms: O_1  and  C_2 
ROOT
HETATM    1  C   LIG     1      15.370  35.878  21.585  1.00  0.00     0.065 A 
HETATM    2  C   LIG     1      16.541  35.678  20.845  1.00  0.00     0.038 A 
HETATM    3  C   LIG     1      17.585  36.606  20.915  1.00  0.00     0.026 A 
HETATM    4  C   LIG     1      17.461  37.740  21.727  1.00  0.00     0.034 A 
HETATM    5 CL   LIG     1      18.769  38.904  21.816  1.00  0.00    -0.084 Cl
HETATM    6  C   LIG     1      16.291  37.942  22.469  1.00  0.00     0.026 A 
HETATM    7  C   LIG     1      15.247  37.014  22.398  1.00  0.00     0.038 A 
ENDROOT
BRANCH   1   8
HETATM    8  O   LIG     1      14.338  34.945  21.506  1.00  0.00    -0.361 OA
HETATM    9  H   LIG     1      13.879  34.593  22.338  1.00  0.00     0.217 HD
ENDBRANCH   1   8
TORSDOF 1
ENDMDL
MODEL 16
REMARK VINA RESULT:      -4.8      9.731     10.767
REMARK  1 active torsions:
REMARK  status: ('A' for Active; 'I' for Inactive)
REMARK    1  A    between atoms: O_1  and  C_2 
ROOT
HETATM    1  C   LIG     1      13.492  29.567  14.471  1.00  0.00     0.065 A 
HETATM    2  C   LIG     1      13.050  30.314  15.569  1.00  0.00     0.038 A 
HETATM    3  C   LIG     1      13.836  31.355  16.073  1.00  0.00     0.026 A 
HETATM    4  C   LIG     1      15.069  31.653  15.481  1.00  0.00     0.034 A 
HETATM    5 CL   LIG     1      16.055  32.959  16.113  1.00  0.00    -0.084 Cl
HETATM    6  C   LIG     1      15.513  30.908  14.382  1.00  0.00     0.026 A 
HETATM    7  C   LIG     1      14.727  29.867  13.878  1.00  0.00     0.038 A 
ENDROOT
BRANCH   1   8
HETATM    8  O   LIG     1      12.699  28.533  13.978  1.00  0.00    -0.361 OA
HETATM    9  H   LIG     1      11.689  28.614  13.941  1.00  0.00     0.217 HD
ENDBRANCH   1   8
TORSDOF 1
ENDMDL
MODEL 17
REMARK VINA RESULT:      -4.7      4.395      4.815
REMARK  1 active torsions:
REMARK  status: ('A' for Active; 'I' for Inactive)
REMARK    1  A    between atoms: O_1  and  C_2 
ROOT
HETATM    1  C   LIG     1      15.612  36.015  21.801  1.00  0.00     0.065 A 
HETATM    2  C   LIG     1      15.561  37.309  22.333  1.00  0.00     0.038 A 
HETATM    3  C   LIG     1      16.323  37.637  23.459  1.00  0.00     0.026 A 
HETATM    4  C   LIG     1      17.139  36.671  24.059  1.00  0.00     0.034 A 
HETATM    5 CL   LIG     1      18.094  37.081  25.471  1.00  0.00    -0.084 Cl
HETATM    6  C   LIG     1      17.192  35.376  23.529  1.00  0.00     0.026 A 
HETATM    7  C   LIG     1      16.430  35.048  22.403  1.00  0.00     0.038 A 
ENDROOT
BRANCH   1   8
HETATM    8  O   LIG     1      14.848  35.703  20.679  1.00  0.00    -0.361 OA
HETATM    9  H   LIG     1      14.906  36.253  19.830  1.00  0.00     0.217 HD
ENDBRANCH   1   8
TORSDOF 1
ENDMDL
MODEL 18
REMARK VINA RESULT:      -4.5      8.623      9.550
REMARK  1 active torsions:
REMARK  status: ('A' for Active; 'I' for Inactive)
REMARK    1  A    between atoms: O_1  and  C_2 
ROOT
HETATM    1  C   LIG     1      14.070  31.116  16.293  1.00  0.00     0.065 A 
HETATM    2  C   LIG     1      14.350  30.510  15.062  1.00  0.00     0.038 A 
HETATM    3  C   LIG     1      15.312  31.062  14.210  1.00  0.00     0.026 A 
HETATM    4  C   LIG     1      15.998  32.224  14.584  1.00  0.00     0.034 A 
HETATM    5 CL   LIG     1      17.203  32.916  13.515  1.00  0.00    -0.084 Cl
HETATM    6  C   LIG     1      15.720  32.831  15.815  1.00  0.00     0.026 A 
HETATM    7  C   LIG     1      14.758  32.279  16.667  1.00  0.00     0.038 A 
ENDROOT
BRANCH   1   8
HETATM    8  O   LIG     1      13.111  30.555  17.133  1.00  0.00    -0.361 OA
HETATM    9  H   LIG     1      13.294  30.405  18.118  1.00  0.00     0.217 HD
ENDBRANCH   1   8
TORSDOF 1
ENDMDL
MODEL 19
REMARK VINA RESULT:      -4.5      9.292     10.246
REMARK  1 active torsions:
REMARK  status: ('A' for Active; 'I' for Inactive)
REMARK    1  A    between atoms: O_1  and  C_2 
ROOT
HETATM    1  C   LIG     1      13.802  31.741  16.450  1.00  0.00     0.065 A 
HETATM    2  C   LIG     1      13.036  30.676  15.959  1.00  0.00     0.038 A 
HETATM    3  C   LIG     1      13.545  29.852  14.951  1.00  0.00     0.026 A 
HETATM    4  C   LIG     1      14.822  30.089  14.428  1.00  0.00     0.034 A 
HETATM    5 CL   LIG     1      15.459  29.055  13.163  1.00  0.00    -0.084 Cl
HETATM    6  C   LIG     1      15.589  31.153  14.917  1.00  0.00     0.026 A 
HETATM    7  C   LIG     1      15.081  31.977  15.926  1.00  0.00     0.038 A 
ENDROOT
BRANCH   1   8
HETATM    8  O   LIG     1      13.284  32.554  17.456  1.00  0.00    -0.361 OA
HETATM    9  H   LIG     1      12.398  33.034  17.344  1.00  0.00     0.217 HD
ENDBRANCH   1   8
TORSDOF 1
ENDMDL
MODEL 20
REMARK VINA RESULT:      -4.3      8.244      9.202
REMARK  1 active torsions:
REMARK  status: ('A' for Active; 'I' for Inactive)
REMARK    1  A    between atoms: O_1  and  C_2 
ROOT
HETATM    1  C   LIG     1      16.496  32.213  14.342  1.00  0.00     0.065 A 
HETATM    2  C   LIG     1      16.082  32.748  15.569  1.00  0.00     0.038 A 
HETATM    3  C   LIG     1      14.969  32.216  16.227  1.00  0.00     0.026 A 
HETATM    4  C   LIG     1      14.263  31.148  15.661  1.00  0.00     0.034 A 
HETATM    5 CL   LIG     1      12.867  30.482  16.487  1.00  0.00    -0.084 Cl
HETATM    6  C   LIG     1      14.675  30.611  14.435  1.00  0.00     0.026 A 
HETATM    7  C   LIG     1      15.788  31.143  13.777  1.00  0.00     0.038 A 
ENDROOT
BRANCH   1   8
HETATM    8  O   LIG     1      17.607  32.752  13.697  1.00  0.00    -0.361 OA
HETATM    9  H   LIG     1      17.789  33.749  13.702  1.00  0.00     0.217 HD
ENDBRANCH   1   8
TORSDOF 1
ENDMDL
