REMARK  0 active torsions:
REMARK  status: ('A' for Active; 'I' for Inactive)
ROOT
HETATM    1  C   LIG     1       2.850  -0.412  -0.006  1.00  0.00     0.044 C 
HETATM    2  C   LIG     1       1.415   0.076   0.209  1.00  0.00     0.244 C 
HETATM    3  N   LIG     1       0.642  -0.945   0.935  1.00  0.00     0.091 N 
HETATM    4  C   LIG     1      -0.743  -0.499   1.138  1.00  0.00     0.305 C 
HETATM    5  C   LIG     1      -1.415  -0.161  -0.209  1.00  0.00     0.244 C 
HETATM    6  C   LIG     1      -2.850   0.327   0.006  1.00  0.00     0.044 C 
HETATM    7  N   LIG     1      -0.642   0.860  -0.935  1.00  0.00     0.091 N 
HETATM    8  C   LIG     1       0.743   0.413  -1.138  1.00  0.00     0.305 C 
HETATM    9  H   LIG     1       0.623  -1.830   0.374  1.00  0.00     0.316 HD
HETATM   10  H   LIG     1      -0.623   1.745  -0.374  1.00  0.00     0.316 HD
ENDROOT
TORSDOF 0
