MODEL 1
REMARK VINA RESULT:      -5.3      0.000      0.000
REMARK  0 active torsions:
REMARK  status: ('A' for Active; 'I' for Inactive)
ROOT
HETATM    1 BR   LIG     1      17.514  39.127  21.939  1.00  0.00    -0.051 Br
HETATM    2  C   LIG     1      17.510  37.782  23.295  1.00  0.00     0.011 A 
HETATM    3  C   LIG     1      17.066  36.488  22.997  1.00  0.00     0.021 A 
HETATM    4  C   LIG     1      17.062  35.503  23.991  1.00  0.00     0.025 A 
HETATM    5  C   LIG     1      17.501  35.810  25.284  1.00  0.00     0.034 A 
HETATM    6 CL   LIG     1      17.497  34.575  26.529  1.00  0.00    -0.084 Cl
HETATM    7  C   LIG     1      17.946  37.105  25.581  1.00  0.00     0.025 A 
HETATM    8  C   LIG     1      17.949  38.089  24.587  1.00  0.00     0.021 A 
ENDROOT
TORSDOF 0
ENDMDL
MODEL 2
REMARK VINA RESULT:      -5.2      4.272      5.160
REMARK  0 active torsions:
REMARK  status: ('A' for Active; 'I' for Inactive)
ROOT
HETATM    1 BR   LIG     1      15.793  37.437  23.059  1.00  0.00    -0.051 Br
HETATM    2  C   LIG     1      17.224  37.864  21.868  1.00  0.00     0.011 A 
HETATM    3  C   LIG     1      17.834  39.122  21.928  1.00  0.00     0.021 A 
HETATM    4  C   LIG     1      18.881  39.435  21.055  1.00  0.00     0.025 A 
HETATM    5  C   LIG     1      19.321  38.490  20.120  1.00  0.00     0.034 A 
HETATM    6 CL   LIG     1      20.635  38.883  19.027  1.00  0.00    -0.084 Cl
HETATM    7  C   LIG     1      18.711  37.231  20.061  1.00  0.00     0.025 A 
HETATM    8  C   LIG     1      17.663  36.919  20.934  1.00  0.00     0.021 A 
ENDROOT
TORSDOF 0
ENDMDL
MODEL 3
REMARK VINA RESULT:      -5.2      4.300      4.938
REMARK  0 active torsions:
REMARK  status: ('A' for Active; 'I' for Inactive)
ROOT
HETATM    1 BR   LIG     1      15.818  37.241  22.942  1.00  0.00    -0.051 Br
HETATM    2  C   LIG     1      17.250  37.737  21.779  1.00  0.00     0.011 A 
HETATM    3  C   LIG     1      17.736  36.823  20.837  1.00  0.00     0.021 A 
HETATM    4  C   LIG     1      18.785  37.186  19.986  1.00  0.00     0.025 A 
HETATM    5  C   LIG     1      19.351  38.464  20.075  1.00  0.00     0.034 A 
HETATM    6 CL   LIG     1      20.666  38.919  19.007  1.00  0.00    -0.084 Cl
HETATM    7  C   LIG     1      18.864  39.378  21.018  1.00  0.00     0.025 A 
HETATM    8  C   LIG     1      17.815  39.014  21.869  1.00  0.00     0.021 A 
ENDROOT
TORSDOF 0
ENDMDL
MODEL 4
REMARK VINA RESULT:      -5.1      3.254      4.057
REMARK  0 active torsions:
REMARK  status: ('A' for Active; 'I' for Inactive)
ROOT
HETATM    1 BR   LIG     1      17.541  34.790  26.397  1.00  0.00    -0.051 Br
HETATM    2  C   LIG     1      17.509  36.070  24.980  1.00  0.00     0.011 A 
HETATM    3  C   LIG     1      17.934  37.383  25.211  1.00  0.00     0.021 A 
HETATM    4  C   LIG     1      17.909  38.320  24.173  1.00  0.00     0.025 A 
HETATM    5  C   LIG     1      17.460  37.946  22.901  1.00  0.00     0.034 A 
HETATM    6 CL   LIG     1      17.430  39.122  21.599  1.00  0.00    -0.084 Cl
HETATM    7  C   LIG     1      17.035  36.632  22.670  1.00  0.00     0.025 A 
HETATM    8  C   LIG     1      17.059  35.695  23.708  1.00  0.00     0.021 A 
ENDROOT
TORSDOF 0
ENDMDL
MODEL 5
REMARK VINA RESULT:      -5.1      3.269      3.691
REMARK  0 active torsions:
REMARK  status: ('A' for Active; 'I' for Inactive)
ROOT
HETATM    1 BR   LIG     1      17.366  34.748  26.225  1.00  0.00    -0.051 Br
HETATM    2  C   LIG     1      17.415  36.060  24.838  1.00  0.00     0.011 A 
HETATM    3  C   LIG     1      17.043  35.715  23.533  1.00  0.00     0.021 A 
HETATM    4  C   LIG     1      17.080  36.676  22.518  1.00  0.00     0.025 A 
HETATM    5  C   LIG     1      17.489  37.984  22.804  1.00  0.00     0.034 A 
HETATM    6 CL   LIG     1      17.534  39.189  21.530  1.00  0.00    -0.084 Cl
HETATM    7  C   LIG     1      17.860  38.329  24.110  1.00  0.00     0.025 A 
HETATM    8  C   LIG     1      17.823  37.367  25.125  1.00  0.00     0.021 A 
ENDROOT
TORSDOF 0
ENDMDL
MODEL 6
REMARK VINA RESULT:      -5.1      2.109      2.571
REMARK  0 active torsions:
REMARK  status: ('A' for Active; 'I' for Inactive)
ROOT
HETATM    1 BR   LIG     1      16.024  35.146  20.398  1.00  0.00    -0.051 Br
HETATM    2  C   LIG     1      16.524  35.838  22.107  1.00  0.00     0.011 A 
HETATM    3  C   LIG     1      16.923  34.967  23.127  1.00  0.00     0.021 A 
HETATM    4  C   LIG     1      17.288  35.474  24.378  1.00  0.00     0.025 A 
HETATM    5  C   LIG     1      17.255  36.854  24.612  1.00  0.00     0.034 A 
HETATM    6 CL   LIG     1      17.714  37.490  26.181  1.00  0.00    -0.084 Cl
HETATM    7  C   LIG     1      16.857  37.726  23.591  1.00  0.00     0.025 A 
HETATM    8  C   LIG     1      16.491  37.218  22.340  1.00  0.00     0.021 A 
ENDROOT
TORSDOF 0
ENDMDL
MODEL 7
REMARK VINA RESULT:      -5.1      2.276      2.886
REMARK  0 active torsions:
REMARK  status: ('A' for Active; 'I' for Inactive)
ROOT
HETATM    1 BR   LIG     1      15.938  34.868  20.481  1.00  0.00    -0.051 Br
HETATM    2  C   LIG     1      16.397  35.747  22.114  1.00  0.00     0.011 A 
HETATM    3  C   LIG     1      16.164  37.120  22.259  1.00  0.00     0.021 A 
HETATM    4  C   LIG     1      16.501  37.763  23.455  1.00  0.00     0.025 A 
HETATM    5  C   LIG     1      17.071  37.036  24.507  1.00  0.00     0.034 A 
HETATM    6 CL   LIG     1      17.491  37.844  26.006  1.00  0.00    -0.084 Cl
HETATM    7  C   LIG     1      17.302  35.663  24.360  1.00  0.00     0.025 A 
HETATM    8  C   LIG     1      16.966  35.020  23.165  1.00  0.00     0.021 A 
ENDROOT
TORSDOF 0
ENDMDL
MODEL 8
REMARK VINA RESULT:      -5.0      3.275      3.683
REMARK  0 active torsions:
REMARK  status: ('A' for Active; 'I' for Inactive)
ROOT
HETATM    1 BR   LIG     1      20.433  38.704  19.300  1.00  0.00    -0.051 Br
HETATM    2  C   LIG     1      18.971  38.349  20.477  1.00  0.00     0.011 A 
HETATM    3  C   LIG     1      18.353  37.093  20.468  1.00  0.00     0.021 A 
HETATM    4  C   LIG     1      17.282  36.834  21.329  1.00  0.00     0.025 A 
HETATM    5  C   LIG     1      16.826  37.830  22.201  1.00  0.00     0.034 A 
HETATM    6 CL   LIG     1      15.483  37.504  23.282  1.00  0.00    -0.084 Cl
HETATM    7  C   LIG     1      17.445  39.086  22.210  1.00  0.00     0.025 A 
HETATM    8  C   LIG     1      18.516  39.345  21.348  1.00  0.00     0.021 A 
ENDROOT
TORSDOF 0
ENDMDL
MODEL 9
REMARK VINA RESULT:      -5.0      3.032      3.573
REMARK  0 active torsions:
REMARK  status: ('A' for Active; 'I' for Inactive)
ROOT
HETATM    1 BR   LIG     1      17.935  37.059  26.126  1.00  0.00    -0.051 Br
HETATM    2  C   LIG     1      17.385  36.615  24.352  1.00  0.00     0.011 A 
HETATM    3  C   LIG     1      17.181  35.277  23.995  1.00  0.00     0.021 A 
HETATM    4  C   LIG     1      16.780  34.953  22.695  1.00  0.00     0.025 A 
HETATM    5  C   LIG     1      16.580  35.965  21.749  1.00  0.00     0.034 A 
HETATM    6 CL   LIG     1      16.076  35.558  20.119  1.00  0.00    -0.084 Cl
HETATM    7  C   LIG     1      16.783  37.304  22.107  1.00  0.00     0.025 A 
HETATM    8  C   LIG     1      17.186  37.628  23.407  1.00  0.00     0.021 A 
ENDROOT
TORSDOF 0
ENDMDL
MODEL 10
REMARK VINA RESULT:      -4.9      2.365      3.284
REMARK  0 active torsions:
REMARK  status: ('A' for Active; 'I' for Inactive)
ROOT
HETATM    1 BR   LIG     1      18.677  37.433  19.003  1.00  0.00    -0.051 Br
HETATM    2  C   LIG     1      18.180  37.641  20.836  1.00  0.00     0.011 A 
HETATM    3  C   LIG     1      18.588  38.775  21.548  1.00  0.00     0.021 A 
HETATM    4  C   LIG     1      18.224  38.927  22.890  1.00  0.00     0.025 A 
HETATM    5  C   LIG     1      17.453  37.945  23.523  1.00  0.00     0.034 A 
HETATM    6 CL   LIG     1      16.997  38.136  25.206  1.00  0.00    -0.084 Cl
HETATM    7  C   LIG     1      17.045  36.811  22.810  1.00  0.00     0.025 A 
HETATM    8  C   LIG     1      17.409  36.660  21.468  1.00  0.00     0.021 A 
ENDROOT
TORSDOF 0
ENDMDL
MODEL 11
REMARK VINA RESULT:      -4.8      3.898      4.396
REMARK  0 active torsions:
REMARK  status: ('A' for Active; 'I' for Inactive)
ROOT
HETATM    1 BR   LIG     1      15.234  34.354  21.294  1.00  0.00    -0.051 Br
HETATM    2  C   LIG     1      16.302  35.935  21.387  1.00  0.00     0.011 A 
HETATM    3  C   LIG     1      17.404  36.086  20.537  1.00  0.00     0.021 A 
HETATM    4  C   LIG     1      18.187  37.244  20.607  1.00  0.00     0.025 A 
HETATM    5  C   LIG     1      17.870  38.251  21.525  1.00  0.00     0.034 A 
HETATM    6 CL   LIG     1      18.851  39.703  21.610  1.00  0.00    -0.084 Cl
HETATM    7  C   LIG     1      16.766  38.099  22.374  1.00  0.00     0.025 A 
HETATM    8  C   LIG     1      15.984  36.941  22.305  1.00  0.00     0.021 A 
ENDROOT
TORSDOF 0
ENDMDL
MODEL 12
REMARK VINA RESULT:      -4.7      3.105      3.844
REMARK  0 active torsions:
REMARK  status: ('A' for Active; 'I' for Inactive)
ROOT
HETATM    1 BR   LIG     1      19.341  39.231  20.743  1.00  0.00    -0.051 Br
HETATM    2  C   LIG     1      18.065  37.833  20.999  1.00  0.00     0.011 A 
HETATM    3  C   LIG     1      17.139  37.912  22.046  1.00  0.00     0.021 A 
HETATM    4  C   LIG     1      16.205  36.888  22.234  1.00  0.00     0.025 A 
HETATM    5  C   LIG     1      16.195  35.782  21.376  1.00  0.00     0.034 A 
HETATM    6 CL   LIG     1      15.023  34.498  21.611  1.00  0.00    -0.084 Cl
HETATM    7  C   LIG     1      17.121  35.704  20.328  1.00  0.00     0.025 A 
HETATM    8  C   LIG     1      18.055  36.728  20.141  1.00  0.00     0.021 A 
ENDROOT
TORSDOF 0
ENDMDL
MODEL 13
REMARK VINA RESULT:      -4.6     10.175     11.126
REMARK  0 active torsions:
REMARK  status: ('A' for Active; 'I' for Inactive)
ROOT
HETATM    1 BR   LIG     1      15.241  33.918  17.183  1.00  0.00    -0.051 Br
HETATM    2  C   LIG     1      14.619  32.354  16.279  1.00  0.00     0.011 A 
HETATM    3  C   LIG     1      13.399  31.773  16.643  1.00  0.00     0.021 A 
HETATM    4  C   LIG     1      12.944  30.627  15.982  1.00  0.00     0.025 A 
HETATM    5  C   LIG     1      13.708  30.060  14.955  1.00  0.00     0.034 A 
HETATM    6 CL   LIG     1      13.137  28.624  14.126  1.00  0.00    -0.084 Cl
HETATM    7  C   LIG     1      14.929  30.642  14.591  1.00  0.00     0.025 A 
HETATM    8  C   LIG     1      15.384  31.787  15.253  1.00  0.00     0.021 A 
ENDROOT
TORSDOF 0
ENDMDL
MODEL 14
REMARK VINA RESULT:      -4.6      9.647     10.618
REMARK  0 active torsions:
REMARK  status: ('A' for Active; 'I' for Inactive)
ROOT
HETATM    1 BR   LIG     1      14.101  29.100  14.090  1.00  0.00    -0.051 Br
HETATM    2  C   LIG     1      14.425  30.656  15.150  1.00  0.00     0.011 A 
HETATM    3  C   LIG     1      15.516  31.484  14.863  1.00  0.00     0.021 A 
HETATM    4  C   LIG     1      15.753  32.623  15.640  1.00  0.00     0.025 A 
HETATM    5  C   LIG     1      14.900  32.936  16.705  1.00  0.00     0.034 A 
HETATM    6 CL   LIG     1      15.198  34.365  17.678  1.00  0.00    -0.084 Cl
HETATM    7  C   LIG     1      13.808  32.108  16.990  1.00  0.00     0.025 A 
HETATM    8  C   LIG     1      13.571  30.969  16.214  1.00  0.00     0.021 A 
ENDROOT
TORSDOF 0
ENDMDL
MODEL 15
REMARK VINA RESULT:      -4.4      9.766     10.737
REMARK  0 active torsions:
REMARK  status: ('A' for Active; 'I' for Inactive)
ROOT
HETATM    1 BR   LIG     1      17.931  33.475  14.127  1.00  0.00    -0.051 Br
HETATM    2  C   LIG     1      16.403  32.550  14.806  1.00  0.00     0.011 A 
HETATM    3  C   LIG     1      15.837  32.935  16.027  1.00  0.00     0.021 A 
HETATM    4  C   LIG     1      14.719  32.257  16.524  1.00  0.00     0.025 A 
HETATM    5  C   LIG     1      14.166  31.192  15.803  1.00  0.00     0.034 A 
HETATM    6 CL   LIG     1      12.763  30.343  16.427  1.00  0.00    -0.084 Cl
HETATM    7  C   LIG     1      14.733  30.808  14.581  1.00  0.00     0.025 A 
HETATM    8  C   LIG     1      15.851  31.486  14.085  1.00  0.00     0.021 A 
ENDROOT
TORSDOF 0
ENDMDL
MODEL 16
REMARK VINA RESULT:      -4.3      3.421      3.958
REMARK  0 active torsions:
REMARK  status: ('A' for Active; 'I' for Inactive)
ROOT
HETATM    1 BR   LIG     1      17.128  38.933  22.916  1.00  0.00    -0.051 Br
HETATM    2  C   LIG     1      16.609  37.279  22.113  1.00  0.00     0.011 A 
HETATM    3  C   LIG     1      15.274  36.862  22.170  1.00  0.00     0.021 A 
HETATM    4  C   LIG     1      14.895  35.650  21.583  1.00  0.00     0.025 A 
HETATM    5  C   LIG     1      15.848  34.854  20.937  1.00  0.00     0.034 A 
HETATM    6 CL   LIG     1      15.371  33.336  20.200  1.00  0.00    -0.084 Cl
HETATM    7  C   LIG     1      17.183  35.273  20.880  1.00  0.00     0.025 A 
HETATM    8  C   LIG     1      17.563  36.484  21.468  1.00  0.00     0.021 A 
ENDROOT
TORSDOF 0
ENDMDL
MODEL 17
REMARK VINA RESULT:      -4.1     10.210     11.234
REMARK  0 active torsions:
REMARK  status: ('A' for Active; 'I' for Inactive)
ROOT
HETATM    1 BR   LIG     1      13.099  30.669  16.368  1.00  0.00    -0.051 Br
HETATM    2  C   LIG     1      14.609  31.498  15.543  1.00  0.00     0.011 A 
HETATM    3  C   LIG     1      15.275  32.545  16.191  1.00  0.00     0.021 A 
HETATM    4  C   LIG     1      16.379  33.153  15.585  1.00  0.00     0.025 A 
HETATM    5  C   LIG     1      16.820  32.716  14.330  1.00  0.00     0.034 A 
HETATM    6 CL   LIG     1      18.206  33.478  13.572  1.00  0.00    -0.084 Cl
HETATM    7  C   LIG     1      16.154  31.668  13.683  1.00  0.00     0.025 A 
HETATM    8  C   LIG     1      15.049  31.061  14.288  1.00  0.00     0.021 A 
ENDROOT
TORSDOF 0
ENDMDL
MODEL 18
REMARK VINA RESULT:      -4.1      6.759      7.740
REMARK  0 active torsions:
REMARK  status: ('A' for Active; 'I' for Inactive)
ROOT
HETATM    1 BR   LIG     1      16.281  34.978  21.063  1.00  0.00    -0.051 Br
HETATM    2  C   LIG     1      15.575  33.847  19.695  1.00  0.00     0.011 A 
HETATM    3  C   LIG     1      15.210  32.529  19.994  1.00  0.00     0.021 A 
HETATM    4  C   LIG     1      14.694  31.701  18.992  1.00  0.00     0.025 A 
HETATM    5  C   LIG     1      14.542  32.188  17.688  1.00  0.00     0.034 A 
HETATM    6 CL   LIG     1      13.894  31.150  16.433  1.00  0.00    -0.084 Cl
HETATM    7  C   LIG     1      14.907  33.507  17.390  1.00  0.00     0.025 A 
HETATM    8  C   LIG     1      15.423  34.335  18.392  1.00  0.00     0.021 A 
ENDROOT
TORSDOF 0
ENDMDL
MODEL 19
REMARK VINA RESULT:      -3.9      7.471      8.458
REMARK  0 active torsions:
REMARK  status: ('A' for Active; 'I' for Inactive)
ROOT
HETATM    1 BR   LIG     1      13.426  30.700  15.701  1.00  0.00    -0.051 Br
HETATM    2  C   LIG     1      14.182  31.753  17.104  1.00  0.00     0.011 A 
HETATM    3  C   LIG     1      14.629  33.053  16.841  1.00  0.00     0.021 A 
HETATM    4  C   LIG     1      15.183  33.824  17.869  1.00  0.00     0.025 A 
HETATM    5  C   LIG     1      15.292  33.296  19.161  1.00  0.00     0.034 A 
HETATM    6 CL   LIG     1      15.986  34.264  20.449  1.00  0.00    -0.084 Cl
HETATM    7  C   LIG     1      14.843  31.996  19.423  1.00  0.00     0.025 A 
HETATM    8  C   LIG     1      14.290  31.225  18.396  1.00  0.00     0.021 A 
ENDROOT
TORSDOF 0
ENDMDL
MODEL 20
REMARK VINA RESULT:      -3.5     17.566     18.455
REMARK  0 active torsions:
REMARK  status: ('A' for Active; 'I' for Inactive)
ROOT
HETATM    1 BR   LIG     1      23.015  22.272  37.799  1.00  0.00    -0.051 Br
HETATM    2  C   LIG     1      21.947  22.582  36.245  1.00  0.00     0.011 A 
HETATM    3  C   LIG     1      22.453  23.349  35.189  1.00  0.00     0.021 A 
HETATM    4  C   LIG     1      21.670  23.576  34.052  1.00  0.00     0.025 A 
HETATM    5  C   LIG     1      20.381  23.037  33.969  1.00  0.00     0.034 A 
HETATM    6 CL   LIG     1      19.400  23.321  32.542  1.00  0.00    -0.084 Cl
HETATM    7  C   LIG     1      19.877  22.268  35.025  1.00  0.00     0.025 A 
HETATM    8  C   LIG     1      20.659  22.042  36.162  1.00  0.00     0.021 A 
ENDROOT
TORSDOF 0
ENDMDL
