MODEL 1
REMARK VINA RESULT:      -5.6      0.000      0.000
REMARK  0 active torsions:
REMARK  status: ('A' for Active; 'I' for Inactive)
ROOT
HETATM    1 CL   LIG     1      16.504  39.112  22.400  1.00  0.00    -0.084 Cl
HETATM    2  C   LIG     1      16.957  37.863  23.545  1.00  0.00     0.034 A 
HETATM    3  C   LIG     1      17.427  38.213  24.817  1.00  0.00     0.025 A 
HETATM    4  C   LIG     1      17.788  37.217  25.729  1.00  0.00     0.025 A 
HETATM    5  C   LIG     1      17.680  35.868  25.373  1.00  0.00     0.034 A 
HETATM    6 CL   LIG     1      18.133  34.618  26.517  1.00  0.00    -0.084 Cl
HETATM    7  C   LIG     1      17.210  35.517  24.101  1.00  0.00     0.025 A 
HETATM    8  C   LIG     1      16.849  36.513  23.189  1.00  0.00     0.025 A 
ENDROOT
TORSDOF 0
ENDMDL
MODEL 2
REMARK VINA RESULT:      -5.6      0.039      3.590
REMARK  0 active torsions:
REMARK  status: ('A' for Active; 'I' for Inactive)
ROOT
HETATM    1 CL   LIG     1      18.185  34.606  26.507  1.00  0.00    -0.084 Cl
HETATM    2  C   LIG     1      17.704  35.859  25.378  1.00  0.00     0.034 A 
HETATM    3  C   LIG     1      17.800  37.207  25.744  1.00  0.00     0.025 A 
HETATM    4  C   LIG     1      17.415  38.206  24.844  1.00  0.00     0.025 A 
HETATM    5  C   LIG     1      16.934  37.859  23.575  1.00  0.00     0.034 A 
HETATM    6 CL   LIG     1      16.453  39.112  22.446  1.00  0.00    -0.084 Cl
HETATM    7  C   LIG     1      16.839  36.511  23.210  1.00  0.00     0.025 A 
HETATM    8  C   LIG     1      17.223  35.512  24.110  1.00  0.00     0.025 A 
ENDROOT
TORSDOF 0
ENDMDL
MODEL 3
REMARK VINA RESULT:      -5.3      3.326      4.278
REMARK  0 active torsions:
REMARK  status: ('A' for Active; 'I' for Inactive)
ROOT
HETATM    1 CL   LIG     1      20.576  38.929  19.095  1.00  0.00    -0.084 Cl
HETATM    2  C   LIG     1      19.258  38.418  20.132  1.00  0.00     0.034 A 
HETATM    3  C   LIG     1      18.733  39.299  21.085  1.00  0.00     0.025 A 
HETATM    4  C   LIG     1      17.683  38.892  21.913  1.00  0.00     0.025 A 
HETATM    5  C   LIG     1      17.154  37.601  21.790  1.00  0.00     0.034 A 
HETATM    6 CL   LIG     1      15.836  37.090  22.828  1.00  0.00    -0.084 Cl
HETATM    7  C   LIG     1      17.679  36.720  20.837  1.00  0.00     0.025 A 
HETATM    8  C   LIG     1      18.729  37.128  20.010  1.00  0.00     0.025 A 
ENDROOT
TORSDOF 0
ENDMDL
MODEL 4
REMARK VINA RESULT:      -5.3      3.285      5.071
REMARK  0 active torsions:
REMARK  status: ('A' for Active; 'I' for Inactive)
ROOT
HETATM    1 CL   LIG     1      15.805  37.160  22.887  1.00  0.00    -0.084 Cl
HETATM    2  C   LIG     1      17.134  37.640  21.848  1.00  0.00     0.034 A 
HETATM    3  C   LIG     1      17.635  36.749  20.891  1.00  0.00     0.025 A 
HETATM    4  C   LIG     1      18.694  37.132  20.063  1.00  0.00     0.025 A 
HETATM    5  C   LIG     1      19.257  38.408  20.190  1.00  0.00     0.034 A 
HETATM    6 CL   LIG     1      20.586  38.888  19.151  1.00  0.00    -0.084 Cl
HETATM    7  C   LIG     1      18.757  39.299  21.147  1.00  0.00     0.025 A 
HETATM    8  C   LIG     1      17.697  38.916  21.975  1.00  0.00     0.025 A 
ENDROOT
TORSDOF 0
ENDMDL
MODEL 5
REMARK VINA RESULT:      -5.1      2.010      2.469
REMARK  0 active torsions:
REMARK  status: ('A' for Active; 'I' for Inactive)
ROOT
HETATM    1 CL   LIG     1      16.382  35.450  20.318  1.00  0.00    -0.084 Cl
HETATM    2  C   LIG     1      16.750  35.976  21.951  1.00  0.00     0.034 A 
HETATM    3  C   LIG     1      16.829  37.342  22.247  1.00  0.00     0.025 A 
HETATM    4  C   LIG     1      17.122  37.760  23.549  1.00  0.00     0.025 A 
HETATM    5  C   LIG     1      17.338  36.814  24.558  1.00  0.00     0.034 A 
HETATM    6 CL   LIG     1      17.705  37.339  26.190  1.00  0.00    -0.084 Cl
HETATM    7  C   LIG     1      17.259  35.448  24.261  1.00  0.00     0.025 A 
HETATM    8  C   LIG     1      16.965  35.029  22.960  1.00  0.00     0.025 A 
ENDROOT
TORSDOF 0
ENDMDL
MODEL 6
REMARK VINA RESULT:      -5.1      2.553      3.270
REMARK  0 active torsions:
REMARK  status: ('A' for Active; 'I' for Inactive)
ROOT
HETATM    1 CL   LIG     1      18.513  37.033  18.906  1.00  0.00    -0.084 Cl
HETATM    2  C   LIG     1      18.034  37.241  20.580  1.00  0.00     0.034 A 
HETATM    3  C   LIG     1      18.245  38.466  21.223  1.00  0.00     0.025 A 
HETATM    4  C   LIG     1      17.864  38.632  22.558  1.00  0.00     0.025 A 
HETATM    5  C   LIG     1      17.270  37.572  23.254  1.00  0.00     0.034 A 
HETATM    6 CL   LIG     1      16.791  37.780  24.928  1.00  0.00    -0.084 Cl
HETATM    7  C   LIG     1      17.059  36.346  22.611  1.00  0.00     0.025 A 
HETATM    8  C   LIG     1      17.440  36.181  21.276  1.00  0.00     0.025 A 
ENDROOT
TORSDOF 0
ENDMDL
MODEL 7
REMARK VINA RESULT:      -4.9      3.210      4.627
REMARK  0 active torsions:
REMARK  status: ('A' for Active; 'I' for Inactive)
ROOT
HETATM    1 CL   LIG     1      15.310  34.487  21.621  1.00  0.00    -0.084 Cl
HETATM    2  C   LIG     1      16.341  35.900  21.493  1.00  0.00     0.034 A 
HETATM    3  C   LIG     1      17.354  35.944  20.527  1.00  0.00     0.025 A 
HETATM    4  C   LIG     1      18.176  37.071  20.426  1.00  0.00     0.025 A 
HETATM    5  C   LIG     1      17.988  38.156  21.290  1.00  0.00     0.034 A 
HETATM    6 CL   LIG     1      19.019  39.569  21.162  1.00  0.00    -0.084 Cl
HETATM    7  C   LIG     1      16.975  38.111  22.256  1.00  0.00     0.025 A 
HETATM    8  C   LIG     1      16.153  36.985  22.358  1.00  0.00     0.025 A 
ENDROOT
TORSDOF 0
ENDMDL
MODEL 8
REMARK VINA RESULT:      -4.8      9.861     11.115
REMARK  0 active torsions:
REMARK  status: ('A' for Active; 'I' for Inactive)
ROOT
HETATM    1 CL   LIG     1      13.234  28.829  14.181  1.00  0.00    -0.084 Cl
HETATM    2  C   LIG     1      13.767  30.229  15.092  1.00  0.00     0.034 A 
HETATM    3  C   LIG     1      12.983  30.723  16.142  1.00  0.00     0.025 A 
HETATM    4  C   LIG     1      13.408  31.840  16.868  1.00  0.00     0.025 A 
HETATM    5  C   LIG     1      14.618  32.466  16.546  1.00  0.00     0.034 A 
HETATM    6 CL   LIG     1      15.151  33.867  17.457  1.00  0.00    -0.084 Cl
HETATM    7  C   LIG     1      15.401  31.973  15.496  1.00  0.00     0.025 A 
HETATM    8  C   LIG     1      14.977  30.856  14.770  1.00  0.00     0.025 A 
ENDROOT
TORSDOF 0
ENDMDL
MODEL 9
REMARK VINA RESULT:      -4.8      9.716     11.001
REMARK  0 active torsions:
REMARK  status: ('A' for Active; 'I' for Inactive)
ROOT
HETATM    1 CL   LIG     1      13.446  28.967  14.188  1.00  0.00    -0.084 Cl
HETATM    2  C   LIG     1      13.929  30.378  15.111  1.00  0.00     0.034 A 
HETATM    3  C   LIG     1      15.119  31.047  14.799  1.00  0.00     0.025 A 
HETATM    4  C   LIG     1      15.504  32.171  15.535  1.00  0.00     0.025 A 
HETATM    5  C   LIG     1      14.700  32.630  16.585  1.00  0.00     0.034 A 
HETATM    6 CL   LIG     1      15.183  34.041  17.508  1.00  0.00    -0.084 Cl
HETATM    7  C   LIG     1      13.510  31.961  16.897  1.00  0.00     0.025 A 
HETATM    8  C   LIG     1      13.125  30.837  16.161  1.00  0.00     0.025 A 
ENDROOT
TORSDOF 0
ENDMDL
MODEL 10
REMARK VINA RESULT:      -4.4      9.958     11.146
REMARK  0 active torsions:
REMARK  status: ('A' for Active; 'I' for Inactive)
ROOT
HETATM    1 CL   LIG     1      12.739  30.359  16.299  1.00  0.00    -0.084 Cl
HETATM    2  C   LIG     1      14.189  31.179  15.750  1.00  0.00     0.034 A 
HETATM    3  C   LIG     1      14.814  30.780  14.563  1.00  0.00     0.025 A 
HETATM    4  C   LIG     1      15.971  31.433  14.127  1.00  0.00     0.025 A 
HETATM    5  C   LIG     1      16.505  32.488  14.876  1.00  0.00     0.034 A 
HETATM    6 CL   LIG     1      17.956  33.308  14.328  1.00  0.00    -0.084 Cl
HETATM    7  C   LIG     1      15.880  32.887  16.063  1.00  0.00     0.025 A 
HETATM    8  C   LIG     1      14.723  32.234  16.500  1.00  0.00     0.025 A 
ENDROOT
TORSDOF 0
ENDMDL
MODEL 11
REMARK VINA RESULT:      -4.3     10.330     11.655
REMARK  0 active torsions:
REMARK  status: ('A' for Active; 'I' for Inactive)
ROOT
HETATM    1 CL   LIG     1      13.685  29.203  14.247  1.00  0.00    -0.084 Cl
HETATM    2  C   LIG     1      14.716  30.607  14.447  1.00  0.00     0.034 A 
HETATM    3  C   LIG     1      14.705  31.320  15.652  1.00  0.00     0.025 A 
HETATM    4  C   LIG     1      15.527  32.440  15.811  1.00  0.00     0.025 A 
HETATM    5  C   LIG     1      16.362  32.851  14.765  1.00  0.00     0.034 A 
HETATM    6 CL   LIG     1      17.394  34.255  14.965  1.00  0.00    -0.084 Cl
HETATM    7  C   LIG     1      16.373  32.138  13.560  1.00  0.00     0.025 A 
HETATM    8  C   LIG     1      15.552  31.018  13.401  1.00  0.00     0.025 A 
ENDROOT
TORSDOF 0
ENDMDL
MODEL 12
REMARK VINA RESULT:      -4.3      2.862      4.112
REMARK  0 active torsions:
REMARK  status: ('A' for Active; 'I' for Inactive)
ROOT
HETATM    1 CL   LIG     1      15.289  33.368  20.407  1.00  0.00    -0.084 Cl
HETATM    2  C   LIG     1      15.736  34.786  21.337  1.00  0.00     0.034 A 
HETATM    3  C   LIG     1      16.942  34.807  22.048  1.00  0.00     0.025 A 
HETATM    4  C   LIG     1      17.299  35.937  22.791  1.00  0.00     0.025 A 
HETATM    5  C   LIG     1      16.449  37.050  22.824  1.00  0.00     0.034 A 
HETATM    6 CL   LIG     1      16.897  38.467  23.755  1.00  0.00    -0.084 Cl
HETATM    7  C   LIG     1      15.244  37.029  22.113  1.00  0.00     0.025 A 
HETATM    8  C   LIG     1      14.887  35.899  21.371  1.00  0.00     0.025 A 
ENDROOT
TORSDOF 0
ENDMDL
MODEL 13
REMARK VINA RESULT:      -4.0      6.617      7.837
REMARK  0 active torsions:
REMARK  status: ('A' for Active; 'I' for Inactive)
ROOT
HETATM    1 CL   LIG     1      16.240  35.095  20.768  1.00  0.00    -0.084 Cl
HETATM    2  C   LIG     1      15.580  33.961  19.604  1.00  0.00     0.034 A 
HETATM    3  C   LIG     1      15.376  34.356  18.277  1.00  0.00     0.025 A 
HETATM    4  C   LIG     1      14.849  33.452  17.349  1.00  0.00     0.025 A 
HETATM    5  C   LIG     1      14.524  32.150  17.747  1.00  0.00     0.034 A 
HETATM    6 CL   LIG     1      13.864  31.016  16.583  1.00  0.00    -0.084 Cl
HETATM    7  C   LIG     1      14.728  31.755  19.074  1.00  0.00     0.025 A 
HETATM    8  C   LIG     1      15.255  32.659  20.002  1.00  0.00     0.025 A 
ENDROOT
TORSDOF 0
ENDMDL
MODEL 14
REMARK VINA RESULT:      -3.7     16.888     17.790
REMARK  0 active torsions:
REMARK  status: ('A' for Active; 'I' for Inactive)
ROOT
HETATM    1 CL   LIG     1      19.493  22.883  32.338  1.00  0.00    -0.084 Cl
HETATM    2  C   LIG     1      20.355  23.070  33.854  1.00  0.00     0.034 A 
HETATM    3  C   LIG     1      19.686  22.879  35.070  1.00  0.00     0.025 A 
HETATM    4  C   LIG     1      20.373  23.029  36.278  1.00  0.00     0.025 A 
HETATM    5  C   LIG     1      21.731  23.371  36.275  1.00  0.00     0.034 A 
HETATM    6 CL   LIG     1      22.592  23.557  37.791  1.00  0.00    -0.084 Cl
HETATM    7  C   LIG     1      22.399  23.562  35.060  1.00  0.00     0.025 A 
HETATM    8  C   LIG     1      21.712  23.412  33.851  1.00  0.00     0.025 A 
ENDROOT
TORSDOF 0
ENDMDL
MODEL 15
REMARK VINA RESULT:      -3.7     16.756     18.102
REMARK  0 active torsions:
REMARK  status: ('A' for Active; 'I' for Inactive)
ROOT
HETATM    1 CL   LIG     1      22.582  23.060  37.739  1.00  0.00    -0.084 Cl
HETATM    2  C   LIG     1      21.693  23.060  36.228  1.00  0.00     0.034 A 
HETATM    3  C   LIG     1      22.291  23.555  35.062  1.00  0.00     0.025 A 
HETATM    4  C   LIG     1      21.581  23.555  33.857  1.00  0.00     0.025 A 
HETATM    5  C   LIG     1      20.272  23.062  33.814  1.00  0.00     0.034 A 
HETATM    6 CL   LIG     1      19.383  23.062  32.303  1.00  0.00    -0.084 Cl
HETATM    7  C   LIG     1      19.674  22.567  34.980  1.00  0.00     0.025 A 
HETATM    8  C   LIG     1      20.384  22.567  36.185  1.00  0.00     0.025 A 
ENDROOT
TORSDOF 0
ENDMDL
MODEL 16
REMARK VINA RESULT:      -3.3     19.932     20.670
REMARK  0 active torsions:
REMARK  status: ('A' for Active; 'I' for Inactive)
ROOT
HETATM    1 CL   LIG     1      14.978  19.718  11.370  1.00  0.00    -0.084 Cl
HETATM    2  C   LIG     1      14.965  19.339  13.082  1.00  0.00     0.034 A 
HETATM    3  C   LIG     1      13.856  18.701  13.651  1.00  0.00     0.025 A 
HETATM    4  C   LIG     1      13.846  18.400  15.017  1.00  0.00     0.025 A 
HETATM    5  C   LIG     1      14.944  18.737  15.817  1.00  0.00     0.034 A 
HETATM    6 CL   LIG     1      14.931  18.359  17.530  1.00  0.00    -0.084 Cl
HETATM    7  C   LIG     1      16.053  19.375  15.248  1.00  0.00     0.025 A 
HETATM    8  C   LIG     1      16.063  19.676  13.882  1.00  0.00     0.025 A 
ENDROOT
TORSDOF 0
ENDMDL
MODEL 17
REMARK VINA RESULT:      -3.2     15.618     16.452
REMARK  0 active torsions:
REMARK  status: ('A' for Active; 'I' for Inactive)
ROOT
HETATM    1 CL   LIG     1      27.076  32.556  38.076  1.00  0.00    -0.084 Cl
HETATM    2  C   LIG     1      27.214  31.485  36.694  1.00  0.00     0.034 A 
HETATM    3  C   LIG     1      28.466  31.242  36.117  1.00  0.00     0.025 A 
HETATM    4  C   LIG     1      28.575  30.389  35.014  1.00  0.00     0.025 A 
HETATM    5  C   LIG     1      27.432  29.776  34.486  1.00  0.00     0.034 A 
HETATM    6 CL   LIG     1      27.570  28.705  33.104  1.00  0.00    -0.084 Cl
HETATM    7  C   LIG     1      26.180  30.020  35.063  1.00  0.00     0.025 A 
HETATM    8  C   LIG     1      26.071  30.873  36.166  1.00  0.00     0.025 A 
ENDROOT
TORSDOF 0
ENDMDL
MODEL 18
REMARK VINA RESULT:      -3.2     15.663     16.408
REMARK  0 active torsions:
REMARK  status: ('A' for Active; 'I' for Inactive)
ROOT
HETATM    1 CL   LIG     1      28.058  28.788  32.786  1.00  0.00    -0.084 Cl
HETATM    2  C   LIG     1      27.711  29.749  34.211  1.00  0.00     0.034 A 
HETATM    3  C   LIG     1      26.414  29.782  34.737  1.00  0.00     0.025 A 
HETATM    4  C   LIG     1      26.137  30.549  35.873  1.00  0.00     0.025 A 
HETATM    5  C   LIG     1      27.157  31.285  36.487  1.00  0.00     0.034 A 
HETATM    6 CL   LIG     1      26.810  32.246  37.912  1.00  0.00    -0.084 Cl
HETATM    7  C   LIG     1      28.455  31.252  35.961  1.00  0.00     0.025 A 
HETATM    8  C   LIG     1      28.731  30.485  34.825  1.00  0.00     0.025 A 
ENDROOT
TORSDOF 0
ENDMDL
MODEL 19
REMARK VINA RESULT:      -3.1     15.832     16.662
REMARK  0 active torsions:
REMARK  status: ('A' for Active; 'I' for Inactive)
ROOT
HETATM    1 CL   LIG     1      29.689  27.766  18.283  1.00  0.00    -0.084 Cl
HETATM    2  C   LIG     1      28.503  26.474  18.301  1.00  0.00     0.034 A 
HETATM    3  C   LIG     1      27.455  26.497  19.228  1.00  0.00     0.025 A 
HETATM    4  C   LIG     1      26.509  25.467  19.242  1.00  0.00     0.025 A 
HETATM    5  C   LIG     1      26.611  24.410  18.330  1.00  0.00     0.034 A 
HETATM    6 CL   LIG     1      25.425  23.118  18.347  1.00  0.00    -0.084 Cl
HETATM    7  C   LIG     1      27.659  24.387  17.403  1.00  0.00     0.025 A 
HETATM    8  C   LIG     1      28.604  25.417  17.388  1.00  0.00     0.025 A 
ENDROOT
TORSDOF 0
ENDMDL
MODEL 20
REMARK VINA RESULT:      -3.0     20.122     21.277
REMARK  0 active torsions:
REMARK  status: ('A' for Active; 'I' for Inactive)
ROOT
HETATM    1 CL   LIG     1      12.941  17.933  11.180  1.00  0.00    -0.084 Cl
HETATM    2  C   LIG     1      14.001  18.505  12.455  1.00  0.00     0.034 A 
HETATM    3  C   LIG     1      13.827  18.053  13.768  1.00  0.00     0.025 A 
HETATM    4  C   LIG     1      14.671  18.510  14.784  1.00  0.00     0.025 A 
HETATM    5  C   LIG     1      15.692  19.421  14.490  1.00  0.00     0.034 A 
HETATM    6 CL   LIG     1      16.752  19.994  15.765  1.00  0.00    -0.084 Cl
HETATM    7  C   LIG     1      15.867  19.874  13.177  1.00  0.00     0.025 A 
HETATM    8  C   LIG     1      15.022  19.417  12.160  1.00  0.00     0.025 A 
ENDROOT
TORSDOF 0
ENDMDL
