MODEL 1
REMARK VINA RESULT:      -6.0      0.000      0.000
REMARK  1 active torsions:
REMARK  status: ('A' for Active; 'I' for Inactive)
REMARK    1  A    between atoms: C_5  and  O_6 
ROOT
HETATM    1 BR   LIG     1      16.460  36.389  22.211  1.00  0.00    -0.051 Br
HETATM    2  C   LIG     1      17.752  37.364  21.199  1.00  0.00     0.011 A 
HETATM    3  C   LIG     1      18.018  38.704  21.505  1.00  0.00     0.022 A 
HETATM    4  C   LIG     1      18.965  39.418  20.764  1.00  0.00     0.038 A 
HETATM    5  C   LIG     1      19.651  38.796  19.715  1.00  0.00     0.065 A 
HETATM    6  C   LIG     1      19.384  37.453  19.409  1.00  0.00     0.038 A 
HETATM    7  C   LIG     1      18.437  36.739  20.150  1.00  0.00     0.022 A 
ENDROOT
BRANCH   5   8
HETATM    8  O   LIG     1      20.591  39.518  18.984  1.00  0.00    -0.361 OA
HETATM    9  H   LIG     1      20.311  40.217  18.306  1.00  0.00     0.217 HD
ENDBRANCH   5   8
TORSDOF 1
ENDMDL
MODEL 2
REMARK VINA RESULT:      -5.5      3.259      4.195
REMARK  1 active torsions:
REMARK  status: ('A' for Active; 'I' for Inactive)
REMARK    1  A    between atoms: C_5  and  O_6 
ROOT
HETATM    1 BR   LIG     1      19.564  37.761  19.490  1.00  0.00    -0.051 Br
HETATM    2  C   LIG     1      18.209  37.835  20.833  1.00  0.00     0.011 A 
HETATM    3  C   LIG     1      17.437  36.702  21.115  1.00  0.00     0.022 A 
HETATM    4  C   LIG     1      16.446  36.756  22.099  1.00  0.00     0.038 A 
HETATM    5  C   LIG     1      16.221  37.943  22.806  1.00  0.00     0.065 A 
HETATM    6  C   LIG     1      16.995  39.078  22.523  1.00  0.00     0.038 A 
HETATM    7  C   LIG     1      17.986  39.024  21.539  1.00  0.00     0.022 A 
ENDROOT
BRANCH   5   8
HETATM    8  O   LIG     1      15.230  37.985  23.784  1.00  0.00    -0.361 OA
HETATM    9  H   LIG     1      14.256  38.132  23.545  1.00  0.00     0.217 HD
ENDBRANCH   5   8
TORSDOF 1
ENDMDL
MODEL 3
REMARK VINA RESULT:      -5.5      0.926      1.966
REMARK  1 active torsions:
REMARK  status: ('A' for Active; 'I' for Inactive)
REMARK    1  A    between atoms: C_5  and  O_6 
ROOT
HETATM    1 BR   LIG     1      16.197  35.091  21.539  1.00  0.00    -0.051 Br
HETATM    2  C   LIG     1      17.358  36.544  21.111  1.00  0.00     0.011 A 
HETATM    3  C   LIG     1      18.192  36.470  19.990  1.00  0.00     0.022 A 
HETATM    4  C   LIG     1      19.041  37.535  19.676  1.00  0.00     0.038 A 
HETATM    5  C   LIG     1      19.061  38.679  20.482  1.00  0.00     0.065 A 
HETATM    6  C   LIG     1      18.226  38.753  21.605  1.00  0.00     0.038 A 
HETATM    7  C   LIG     1      17.376  37.688  21.919  1.00  0.00     0.022 A 
ENDROOT
BRANCH   5   8
HETATM    8  O   LIG     1      19.913  39.733  20.159  1.00  0.00    -0.361 OA
HETATM    9  H   LIG     1      19.553  40.639  19.882  1.00  0.00     0.217 HD
ENDBRANCH   5   8
TORSDOF 1
ENDMDL
MODEL 4
REMARK VINA RESULT:      -5.2      4.013      4.770
REMARK  1 active torsions:
REMARK  status: ('A' for Active; 'I' for Inactive)
REMARK    1  A    between atoms: C_5  and  O_6 
ROOT
HETATM    1 BR   LIG     1      16.299  34.758  21.088  1.00  0.00    -0.051 Br
HETATM    2  C   LIG     1      16.709  35.860  22.592  1.00  0.00     0.011 A 
HETATM    3  C   LIG     1      17.104  35.278  23.802  1.00  0.00     0.022 A 
HETATM    4  C   LIG     1      17.406  36.085  24.903  1.00  0.00     0.038 A 
HETATM    5  C   LIG     1      17.314  37.478  24.799  1.00  0.00     0.065 A 
HETATM    6  C   LIG     1      16.918  38.060  23.587  1.00  0.00     0.038 A 
HETATM    7  C   LIG     1      16.616  37.253  22.486  1.00  0.00     0.022 A 
ENDROOT
BRANCH   5   8
HETATM    8  O   LIG     1      17.616  38.271  25.904  1.00  0.00    -0.361 OA
HETATM    9  H   LIG     1      17.333  39.243  25.951  1.00  0.00     0.217 HD
ENDBRANCH   5   8
TORSDOF 1
ENDMDL
MODEL 5
REMARK VINA RESULT:      -5.2      4.797      5.792
REMARK  1 active torsions:
REMARK  status: ('A' for Active; 'I' for Inactive)
REMARK    1  A    between atoms: C_5  and  O_6 
ROOT
HETATM    1 BR   LIG     1      17.270  38.913  22.383  1.00  0.00    -0.051 Br
HETATM    2  C   LIG     1      17.394  37.517  23.680  1.00  0.00     0.011 A 
HETATM    3  C   LIG     1      17.039  36.208  23.338  1.00  0.00     0.022 A 
HETATM    4  C   LIG     1      17.131  35.186  24.288  1.00  0.00     0.038 A 
HETATM    5  C   LIG     1      17.577  35.468  25.584  1.00  0.00     0.065 A 
HETATM    6  C   LIG     1      17.932  36.781  25.926  1.00  0.00     0.038 A 
HETATM    7  C   LIG     1      17.840  37.803  24.976  1.00  0.00     0.022 A 
ENDROOT
BRANCH   5   8
HETATM    8  O   LIG     1      17.663  34.441  26.521  1.00  0.00    -0.361 OA
HETATM    9  H   LIG     1      18.454  34.364  27.150  1.00  0.00     0.217 HD
ENDBRANCH   5   8
TORSDOF 1
ENDMDL
MODEL 6
REMARK VINA RESULT:      -5.1      4.107      4.902
REMARK  1 active torsions:
REMARK  status: ('A' for Active; 'I' for Inactive)
REMARK    1  A    between atoms: C_5  and  O_6 
ROOT
HETATM    1 BR   LIG     1      18.201  34.767  26.339  1.00  0.00    -0.051 Br
HETATM    2  C   LIG     1      17.590  36.148  25.171  1.00  0.00     0.011 A 
HETATM    3  C   LIG     1      17.118  35.827  23.893  1.00  0.00     0.022 A 
HETATM    4  C   LIG     1      16.669  36.839  23.038  1.00  0.00     0.038 A 
HETATM    5  C   LIG     1      16.691  38.174  23.455  1.00  0.00     0.065 A 
HETATM    6  C   LIG     1      17.165  38.494  24.736  1.00  0.00     0.038 A 
HETATM    7  C   LIG     1      17.614  37.483  25.591  1.00  0.00     0.022 A 
ENDROOT
BRANCH   5   8
HETATM    8  O   LIG     1      16.243  39.172  22.593  1.00  0.00    -0.361 OA
HETATM    9  H   LIG     1      16.880  39.671  21.984  1.00  0.00     0.217 HD
ENDBRANCH   5   8
TORSDOF 1
ENDMDL
MODEL 7
REMARK VINA RESULT:      -5.1      4.771      5.468
REMARK  1 active torsions:
REMARK  status: ('A' for Active; 'I' for Inactive)
REMARK    1  A    between atoms: C_5  and  O_6 
ROOT
HETATM    1 BR   LIG     1      16.100  36.294  21.702  1.00  0.00    -0.051 Br
HETATM    2  C   LIG     1      16.874  36.278  23.447  1.00  0.00     0.011 A 
HETATM    3  C   LIG     1      17.193  37.483  24.084  1.00  0.00     0.022 A 
HETATM    4  C   LIG     1      17.759  37.471  25.362  1.00  0.00     0.038 A 
HETATM    5  C   LIG     1      18.009  36.256  26.009  1.00  0.00     0.065 A 
HETATM    6  C   LIG     1      17.690  35.049  25.370  1.00  0.00     0.038 A 
HETATM    7  C   LIG     1      17.123  35.061  24.092  1.00  0.00     0.022 A 
ENDROOT
BRANCH   5   8
HETATM    8  O   LIG     1      18.574  36.258  27.283  1.00  0.00    -0.361 OA
HETATM    9  H   LIG     1      19.276  35.578  27.551  1.00  0.00     0.217 HD
ENDBRANCH   5   8
TORSDOF 1
ENDMDL
MODEL 8
REMARK VINA RESULT:      -5.0      8.673      9.743
REMARK  1 active torsions:
REMARK  status: ('A' for Active; 'I' for Inactive)
REMARK    1  A    between atoms: C_5  and  O_6 
ROOT
HETATM    1 BR   LIG     1      17.354  33.096  14.750  1.00  0.00    -0.051 Br
HETATM    2  C   LIG     1      15.782  32.199  15.357  1.00  0.00     0.011 A 
HETATM    3  C   LIG     1      15.277  31.107  14.642  1.00  0.00     0.022 A 
HETATM    4  C   LIG     1      14.126  30.450  15.087  1.00  0.00     0.038 A 
HETATM    5  C   LIG     1      13.475  30.880  16.248  1.00  0.00     0.065 A 
HETATM    6  C   LIG     1      13.982  31.974  16.964  1.00  0.00     0.038 A 
HETATM    7  C   LIG     1      15.133  32.632  16.519  1.00  0.00     0.022 A 
ENDROOT
BRANCH   5   8
HETATM    8  O   LIG     1      12.329  30.217  16.681  1.00  0.00    -0.361 OA
HETATM    9  H   LIG     1      11.649  30.671  17.279  1.00  0.00     0.217 HD
ENDBRANCH   5   8
TORSDOF 1
ENDMDL
MODEL 9
REMARK VINA RESULT:      -5.0      3.110      3.790
REMARK  1 active torsions:
REMARK  status: ('A' for Active; 'I' for Inactive)
REMARK    1  A    between atoms: C_5  and  O_6 
ROOT
HETATM    1 BR   LIG     1      17.533  37.588  25.721  1.00  0.00    -0.051 Br
HETATM    2  C   LIG     1      17.341  36.966  23.927  1.00  0.00     0.011 A 
HETATM    3  C   LIG     1      17.476  37.857  22.857  1.00  0.00     0.022 A 
HETATM    4  C   LIG     1      17.336  37.401  21.542  1.00  0.00     0.038 A 
HETATM    5  C   LIG     1      17.061  36.052  21.292  1.00  0.00     0.065 A 
HETATM    6  C   LIG     1      16.925  35.160  22.365  1.00  0.00     0.038 A 
HETATM    7  C   LIG     1      17.065  35.616  23.679  1.00  0.00     0.022 A 
ENDROOT
BRANCH   5   8
HETATM    8  O   LIG     1      16.923  35.610  19.978  1.00  0.00    -0.361 OA
HETATM    9  H   LIG     1      16.699  36.251  19.225  1.00  0.00     0.217 HD
ENDBRANCH   5   8
TORSDOF 1
ENDMDL
MODEL 10
REMARK VINA RESULT:      -4.8      3.643      4.669
REMARK  1 active torsions:
REMARK  status: ('A' for Active; 'I' for Inactive)
REMARK    1  A    between atoms: C_5  and  O_6 
ROOT
HETATM    1 BR   LIG     1      18.822  38.965  21.628  1.00  0.00    -0.051 Br
HETATM    2  C   LIG     1      17.429  37.660  21.598  1.00  0.00     0.011 A 
HETATM    3  C   LIG     1      17.553  36.519  20.798  1.00  0.00     0.022 A 
HETATM    4  C   LIG     1      16.533  35.563  20.776  1.00  0.00     0.038 A 
HETATM    5  C   LIG     1      15.384  35.744  21.554  1.00  0.00     0.065 A 
HETATM    6  C   LIG     1      15.260  36.888  22.356  1.00  0.00     0.038 A 
HETATM    7  C   LIG     1      16.280  37.844  22.377  1.00  0.00     0.022 A 
ENDROOT
BRANCH   5   8
HETATM    8  O   LIG     1      14.374  34.784  21.524  1.00  0.00    -0.361 OA
HETATM    9  H   LIG     1      13.447  35.003  21.180  1.00  0.00     0.217 HD
ENDBRANCH   5   8
TORSDOF 1
ENDMDL
MODEL 11
REMARK VINA RESULT:      -4.7      7.928      8.873
REMARK  1 active torsions:
REMARK  status: ('A' for Active; 'I' for Inactive)
REMARK    1  A    between atoms: C_5  and  O_6 
ROOT
HETATM    1 BR   LIG     1      14.485  29.418  14.046  1.00  0.00    -0.051 Br
HETATM    2  C   LIG     1      14.684  30.885  15.252  1.00  0.00     0.011 A 
HETATM    3  C   LIG     1      15.704  31.823  15.054  1.00  0.00     0.022 A 
HETATM    4  C   LIG     1      15.849  32.897  15.937  1.00  0.00     0.038 A 
HETATM    5  C   LIG     1      14.976  33.039  17.021  1.00  0.00     0.065 A 
HETATM    6  C   LIG     1      13.954  32.099  17.218  1.00  0.00     0.038 A 
HETATM    7  C   LIG     1      13.809  31.024  16.336  1.00  0.00     0.022 A 
ENDROOT
BRANCH   5   8
HETATM    8  O   LIG     1      15.131  34.114  17.894  1.00  0.00    -0.361 OA
HETATM    9  H   LIG     1      14.930  35.064  17.605  1.00  0.00     0.217 HD
ENDBRANCH   5   8
TORSDOF 1
ENDMDL
MODEL 12
REMARK VINA RESULT:      -4.7      1.470      2.313
REMARK  1 active torsions:
REMARK  status: ('A' for Active; 'I' for Inactive)
REMARK    1  A    between atoms: C_5  and  O_6 
ROOT
HETATM    1 BR   LIG     1      16.918  37.797  24.452  1.00  0.00    -0.051 Br
HETATM    2  C   LIG     1      17.600  37.875  22.671  1.00  0.00     0.011 A 
HETATM    3  C   LIG     1      17.444  36.782  21.811  1.00  0.00     0.022 A 
HETATM    4  C   LIG     1      17.942  36.841  20.505  1.00  0.00     0.038 A 
HETATM    5  C   LIG     1      18.598  37.991  20.054  1.00  0.00     0.065 A 
HETATM    6  C   LIG     1      18.754  39.086  20.917  1.00  0.00     0.038 A 
HETATM    7  C   LIG     1      18.256  39.028  22.222  1.00  0.00     0.022 A 
ENDROOT
BRANCH   5   8
HETATM    8  O   LIG     1      19.091  38.036  18.752  1.00  0.00    -0.361 OA
HETATM    9  H   LIG     1      18.556  37.676  17.971  1.00  0.00     0.217 HD
ENDBRANCH   5   8
TORSDOF 1
ENDMDL
MODEL 13
REMARK VINA RESULT:      -4.6      9.182     10.176
REMARK  1 active torsions:
REMARK  status: ('A' for Active; 'I' for Inactive)
REMARK    1  A    between atoms: C_5  and  O_6 
ROOT
HETATM    1 BR   LIG     1      15.167  33.706  17.031  1.00  0.00    -0.051 Br
HETATM    2  C   LIG     1      14.731  32.148  16.018  1.00  0.00     0.011 A 
HETATM    3  C   LIG     1      15.590  31.708  15.004  1.00  0.00     0.022 A 
HETATM    4  C   LIG     1      15.271  30.566  14.263  1.00  0.00     0.038 A 
HETATM    5  C   LIG     1      14.094  29.859  14.531  1.00  0.00     0.065 A 
HETATM    6  C   LIG     1      13.234  30.301  15.547  1.00  0.00     0.038 A 
HETATM    7  C   LIG     1      13.552  31.443  16.289  1.00  0.00     0.022 A 
ENDROOT
BRANCH   5   8
HETATM    8  O   LIG     1      13.787  28.723  13.785  1.00  0.00    -0.361 OA
HETATM    9  H   LIG     1      12.869  28.297  13.823  1.00  0.00     0.217 HD
ENDBRANCH   5   8
TORSDOF 1
ENDMDL
MODEL 14
REMARK VINA RESULT:      -4.4      8.192      9.122
REMARK  1 active torsions:
REMARK  status: ('A' for Active; 'I' for Inactive)
REMARK    1  A    between atoms: C_5  and  O_6 
ROOT
HETATM    1 BR   LIG     1      13.615  31.131  17.115  1.00  0.00    -0.051 Br
HETATM    2  C   LIG     1      14.826  31.578  15.707  1.00  0.00     0.011 A 
HETATM    3  C   LIG     1      14.800  30.862  14.506  1.00  0.00     0.022 A 
HETATM    4  C   LIG     1      15.686  31.190  13.475  1.00  0.00     0.038 A 
HETATM    5  C   LIG     1      16.601  32.235  13.640  1.00  0.00     0.065 A 
HETATM    6  C   LIG     1      16.626  32.953  14.845  1.00  0.00     0.038 A 
HETATM    7  C   LIG     1      15.740  32.624  15.876  1.00  0.00     0.022 A 
ENDROOT
BRANCH   5   8
HETATM    8  O   LIG     1      17.479  32.552  12.606  1.00  0.00    -0.361 OA
HETATM    9  H   LIG     1      18.210  33.243  12.726  1.00  0.00     0.217 HD
ENDBRANCH   5   8
TORSDOF 1
ENDMDL
MODEL 15
REMARK VINA RESULT:      -3.8      7.841      8.803
REMARK  1 active torsions:
REMARK  status: ('A' for Active; 'I' for Inactive)
REMARK    1  A    between atoms: C_5  and  O_6 
ROOT
HETATM    1 BR   LIG     1      15.186  33.264  19.317  1.00  0.00    -0.051 Br
HETATM    2  C   LIG     1      14.955  32.378  17.641  1.00  0.00     0.011 A 
HETATM    3  C   LIG     1      13.891  31.487  17.460  1.00  0.00     0.022 A 
HETATM    4  C   LIG     1      13.721  30.839  16.232  1.00  0.00     0.038 A 
HETATM    5  C   LIG     1      14.613  31.079  15.181  1.00  0.00     0.065 A 
HETATM    6  C   LIG     1      15.679  31.971  15.364  1.00  0.00     0.038 A 
HETATM    7  C   LIG     1      15.849  32.619  16.592  1.00  0.00     0.022 A 
ENDROOT
BRANCH   5   8
HETATM    8  O   LIG     1      14.433  30.426  13.963  1.00  0.00    -0.361 OA
HETATM    9  H   LIG     1      14.392  29.416  13.906  1.00  0.00     0.217 HD
ENDBRANCH   5   8
TORSDOF 1
ENDMDL
MODEL 16
REMARK VINA RESULT:      -3.7      6.062      7.039
REMARK  1 active torsions:
REMARK  status: ('A' for Active; 'I' for Inactive)
REMARK    1  A    between atoms: C_5  and  O_6 
ROOT
HETATM    1 BR   LIG     1      16.272  35.284  20.832  1.00  0.00    -0.051 Br
HETATM    2  C   LIG     1      15.576  34.007  19.595  1.00  0.00     0.011 A 
HETATM    3  C   LIG     1      15.264  32.712  20.024  1.00  0.00     0.022 A 
HETATM    4  C   LIG     1      14.754  31.777  19.118  1.00  0.00     0.038 A 
HETATM    5  C   LIG     1      14.553  32.133  17.779  1.00  0.00     0.065 A 
HETATM    6  C   LIG     1      14.866  33.431  17.350  1.00  0.00     0.038 A 
HETATM    7  C   LIG     1      15.377  34.365  18.256  1.00  0.00     0.022 A 
ENDROOT
BRANCH   5   8
HETATM    8  O   LIG     1      14.045  31.192  16.886  1.00  0.00    -0.361 OA
HETATM    9  H   LIG     1      14.202  31.271  15.888  1.00  0.00     0.217 HD
ENDBRANCH   5   8
TORSDOF 1
ENDMDL
MODEL 17
REMARK VINA RESULT:      -3.5      5.690      6.558
REMARK  1 active torsions:
REMARK  status: ('A' for Active; 'I' for Inactive)
REMARK    1  A    between atoms: C_5  and  O_6 
ROOT
HETATM    1 BR   LIG     1      15.233  32.428  16.075  1.00  0.00    -0.051 Br
HETATM    2  C   LIG     1      15.263  33.037  17.884  1.00  0.00     0.011 A 
HETATM    3  C   LIG     1      15.478  34.391  18.165  1.00  0.00     0.022 A 
HETATM    4  C   LIG     1      15.499  34.837  19.490  1.00  0.00     0.038 A 
HETATM    5  C   LIG     1      15.306  33.931  20.540  1.00  0.00     0.065 A 
HETATM    6  C   LIG     1      15.091  32.575  20.257  1.00  0.00     0.038 A 
HETATM    7  C   LIG     1      15.070  32.129  18.932  1.00  0.00     0.022 A 
ENDROOT
BRANCH   5   8
HETATM    8  O   LIG     1      15.331  34.388  21.856  1.00  0.00    -0.361 OA
HETATM    9  H   LIG     1      14.913  33.854  22.609  1.00  0.00     0.217 HD
ENDBRANCH   5   8
TORSDOF 1
ENDMDL
MODEL 18
REMARK VINA RESULT:      -3.4      8.700      9.288
REMARK  1 active torsions:
REMARK  status: ('A' for Active; 'I' for Inactive)
REMARK    1  A    between atoms: C_5  and  O_6 
ROOT
HETATM    1 BR   LIG     1      17.401  33.267  14.658  1.00  0.00    -0.051 Br
HETATM    2  C   LIG     1      18.504  33.818  13.201  1.00  0.00     0.011 A 
HETATM    3  C   LIG     1      19.888  33.615  13.253  1.00  0.00     0.022 A 
HETATM    4  C   LIG     1      20.696  34.018  12.185  1.00  0.00     0.038 A 
HETATM    5  C   LIG     1      20.125  34.626  11.062  1.00  0.00     0.065 A 
HETATM    6  C   LIG     1      18.739  34.829  11.011  1.00  0.00     0.038 A 
HETATM    7  C   LIG     1      17.930  34.426  12.078  1.00  0.00     0.022 A 
ENDROOT
BRANCH   5   8
HETATM    8  O   LIG     1      20.941  35.023  10.005  1.00  0.00    -0.361 OA
HETATM    9  H   LIG     1      21.638  35.750  10.119  1.00  0.00     0.217 HD
ENDBRANCH   5   8
TORSDOF 1
ENDMDL
MODEL 19
REMARK VINA RESULT:      -3.4     11.798     12.764
REMARK  1 active torsions:
REMARK  status: ('A' for Active; 'I' for Inactive)
REMARK    1  A    between atoms: C_5  and  O_6 
ROOT
HETATM    1 BR   LIG     1      16.354  26.806  11.960  1.00  0.00    -0.051 Br
HETATM    2  C   LIG     1      15.165  27.857  13.021  1.00  0.00     0.011 A 
HETATM    3  C   LIG     1      15.563  29.116  13.483  1.00  0.00     0.022 A 
HETATM    4  C   LIG     1      14.691  29.886  14.259  1.00  0.00     0.038 A 
HETATM    5  C   LIG     1      13.418  29.400  14.578  1.00  0.00     0.065 A 
HETATM    6  C   LIG     1      13.020  28.138  14.115  1.00  0.00     0.038 A 
HETATM    7  C   LIG     1      13.892  27.368  13.339  1.00  0.00     0.022 A 
ENDROOT
BRANCH   5   8
HETATM    8  O   LIG     1      12.559  30.177  15.353  1.00  0.00    -0.361 OA
HETATM    9  H   LIG     1      11.553  30.094  15.271  1.00  0.00     0.217 HD
ENDBRANCH   5   8
TORSDOF 1
ENDMDL
MODEL 20
REMARK VINA RESULT:      -3.3     20.660     21.349
REMARK  1 active torsions:
REMARK  status: ('A' for Active; 'I' for Inactive)
REMARK    1  A    between atoms: C_5  and  O_6 
ROOT
HETATM    1 BR   LIG     1      23.048  22.710  37.755  1.00  0.00    -0.051 Br
HETATM    2  C   LIG     1      21.926  22.853  36.217  1.00  0.00     0.011 A 
HETATM    3  C   LIG     1      20.617  22.360  36.255  1.00  0.00     0.022 A 
HETATM    4  C   LIG     1      19.795  22.466  35.129  1.00  0.00     0.038 A 
HETATM    5  C   LIG     1      20.277  23.064  33.960  1.00  0.00     0.065 A 
HETATM    6  C   LIG     1      21.589  23.558  33.923  1.00  0.00     0.038 A 
HETATM    7  C   LIG     1      22.411  23.452  35.049  1.00  0.00     0.022 A 
ENDROOT
BRANCH   5   8
HETATM    8  O   LIG     1      19.448  23.163  32.845  1.00  0.00    -0.361 OA
HETATM    9  H   LIG     1      19.516  23.943  32.203  1.00  0.00     0.217 HD
ENDBRANCH   5   8
TORSDOF 1
ENDMDL
