MODEL 1
REMARK VINA RESULT:      -6.0      0.000      0.000
REMARK  7 active torsions:
REMARK  status: ('A' for Active; 'I' for Inactive)
REMARK    1  A    between atoms: C_2  and  C_3 
REMARK    2  A    between atoms: C_3  and  C_4 
REMARK    3  A    between atoms: C_4  and  C_5 
REMARK    4  A    between atoms: C_5  and  C_6 
REMARK    5  A    between atoms: C_6  and  C_7 
REMARK    6  A    between atoms: C_7  and  O_8 
REMARK    7  A    between atoms: O_8  and  C_9 
ROOT
HETATM    1  C   LIG     1      17.255  37.432  23.310  1.00  0.00     0.111 C 
ENDROOT
BRANCH   1   2
HETATM    2  C   LIG     1      17.263  38.668  22.405  1.00  0.00     0.010 C 
BRANCH   2   3
HETATM    3  C   LIG     1      18.696  39.067  22.030  1.00  0.00     0.000 C 
BRANCH   3   4
HETATM    4  C   LIG     1      18.791  39.454  20.551  1.00  0.00    -0.000 C 
BRANCH   4   5
HETATM    5  C   LIG     1      19.772  38.542  19.805  1.00  0.00    -0.005 C 
HETATM    6  C   LIG     1      19.141  37.187  19.501  1.00  0.00     0.005 C 
ENDBRANCH   4   5
ENDBRANCH   3   4
ENDBRANCH   2   3
ENDBRANCH   1   2
BRANCH   1   7
HETATM    7  C   LIG     1      17.507  37.817  24.734  1.00  0.00     0.258 C 
HETATM    8  O   LIG     1      16.788  38.697  25.281  1.00  0.00    -0.265 OA
BRANCH   7   9
HETATM    9  O   LIG     1      18.540  37.193  25.443  1.00  0.00    -0.322 OA
BRANCH   9  10
HETATM   10  C   LIG     1      18.319  36.348  26.571  1.00  0.00     0.174 C 
HETATM   11  C   LIG     1      17.910  34.950  26.124  1.00  0.00     0.034 C 
ENDBRANCH   9  10
ENDBRANCH   7   9
ENDBRANCH   1   7
TORSDOF 7
ENDMDL
MODEL 2
REMARK VINA RESULT:      -5.7      1.210      1.836
REMARK  7 active torsions:
REMARK  status: ('A' for Active; 'I' for Inactive)
REMARK    1  A    between atoms: C_2  and  C_3 
REMARK    2  A    between atoms: C_3  and  C_4 
REMARK    3  A    between atoms: C_4  and  C_5 
REMARK    4  A    between atoms: C_5  and  C_6 
REMARK    5  A    between atoms: C_6  and  C_7 
REMARK    6  A    between atoms: C_7  and  O_8 
REMARK    7  A    between atoms: O_8  and  C_9 
ROOT
HETATM    1  C   LIG     1      16.803  38.903  22.495  1.00  0.00     0.111 C 
ENDROOT
BRANCH   1   2
HETATM    2  C   LIG     1      18.271  39.152  22.130  1.00  0.00     0.010 C 
BRANCH   2   3
HETATM    3  C   LIG     1      18.441  39.315  20.614  1.00  0.00     0.000 C 
BRANCH   3   4
HETATM    4  C   LIG     1      19.871  38.972  20.182  1.00  0.00    -0.000 C 
BRANCH   4   5
HETATM    5  C   LIG     1      19.920  37.612  19.477  1.00  0.00    -0.005 C 
HETATM    6  C   LIG     1      18.621  36.837  19.683  1.00  0.00     0.005 C 
ENDBRANCH   4   5
ENDBRANCH   3   4
ENDBRANCH   2   3
ENDBRANCH   1   2
BRANCH   1   7
HETATM    7  C   LIG     1      16.667  37.661  23.319  1.00  0.00     0.258 C 
HETATM    8  O   LIG     1      16.800  36.531  22.776  1.00  0.00    -0.265 OA
BRANCH   7   9
HETATM    9  O   LIG     1      16.393  37.770  24.688  1.00  0.00    -0.322 OA
BRANCH   9  10
HETATM   10  C   LIG     1      17.387  38.077  25.665  1.00  0.00     0.174 C 
HETATM   11  C   LIG     1      18.249  36.854  25.956  1.00  0.00     0.034 C 
ENDBRANCH   9  10
ENDBRANCH   7   9
ENDBRANCH   1   7
TORSDOF 7
ENDMDL
MODEL 3
REMARK VINA RESULT:      -5.6      2.084      5.186
REMARK  7 active torsions:
REMARK  status: ('A' for Active; 'I' for Inactive)
REMARK    1  A    between atoms: C_2  and  C_3 
REMARK    2  A    between atoms: C_3  and  C_4 
REMARK    3  A    between atoms: C_4  and  C_5 
REMARK    4  A    between atoms: C_5  and  C_6 
REMARK    5  A    between atoms: C_6  and  C_7 
REMARK    6  A    between atoms: C_7  and  O_8 
REMARK    7  A    between atoms: O_8  and  C_9 
ROOT
HETATM    1  C   LIG     1      16.267  37.383  22.924  1.00  0.00     0.111 C 
ENDROOT
BRANCH   1   2
HETATM    2  C   LIG     1      17.360  38.126  23.699  1.00  0.00     0.010 C 
BRANCH   2   3
HETATM    3  C   LIG     1      17.255  37.844  25.204  1.00  0.00     0.000 C 
BRANCH   3   4
HETATM    4  C   LIG     1      18.549  37.221  25.738  1.00  0.00    -0.000 C 
BRANCH   4   5
HETATM    5  C   LIG     1      18.247  36.126  26.768  1.00  0.00    -0.005 C 
HETATM    6  C   LIG     1      17.739  34.857  26.091  1.00  0.00     0.005 C 
ENDBRANCH   4   5
ENDBRANCH   3   4
ENDBRANCH   2   3
ENDBRANCH   1   2
BRANCH   1   7
HETATM    7  C   LIG     1      16.856  36.269  22.115  1.00  0.00     0.258 C 
HETATM    8  O   LIG     1      17.143  35.175  22.673  1.00  0.00    -0.265 OA
BRANCH   7   9
HETATM    9  O   LIG     1      17.080  36.457  20.746  1.00  0.00    -0.322 OA
BRANCH   9  10
HETATM   10  C   LIG     1      18.375  36.662  20.184  1.00  0.00     0.174 C 
HETATM   11  C   LIG     1      18.777  38.129  20.280  1.00  0.00     0.034 C 
ENDBRANCH   9  10
ENDBRANCH   7   9
ENDBRANCH   1   7
TORSDOF 7
ENDMDL
MODEL 4
REMARK VINA RESULT:      -5.4      2.165      2.875
REMARK  7 active torsions:
REMARK  status: ('A' for Active; 'I' for Inactive)
REMARK    1  A    between atoms: C_2  and  C_3 
REMARK    2  A    between atoms: C_3  and  C_4 
REMARK    3  A    between atoms: C_4  and  C_5 
REMARK    4  A    between atoms: C_5  and  C_6 
REMARK    5  A    between atoms: C_6  and  C_7 
REMARK    6  A    between atoms: C_7  and  O_8 
REMARK    7  A    between atoms: O_8  and  C_9 
ROOT
HETATM    1  C   LIG     1      16.253  37.529  23.095  1.00  0.00     0.111 C 
ENDROOT
BRANCH   1   2
HETATM    2  C   LIG     1      17.372  37.657  22.056  1.00  0.00     0.010 C 
BRANCH   2   3
HETATM    3  C   LIG     1      17.429  36.418  21.153  1.00  0.00     0.000 C 
BRANCH   3   4
HETATM    4  C   LIG     1      16.999  35.161  21.917  1.00  0.00    -0.000 C 
BRANCH   4   5
HETATM    5  C   LIG     1      15.790  34.497  21.248  1.00  0.00    -0.005 C 
HETATM    6  C   LIG     1      15.619  34.984  19.812  1.00  0.00     0.005 C 
ENDBRANCH   4   5
ENDBRANCH   3   4
ENDBRANCH   2   3
ENDBRANCH   1   2
BRANCH   1   7
HETATM    7  C   LIG     1      16.801  37.668  24.481  1.00  0.00     0.258 C 
HETATM    8  O   LIG     1      17.028  38.816  24.953  1.00  0.00    -0.265 OA
BRANCH   7   9
HETATM    9  O   LIG     1      17.055  36.519  25.239  1.00  0.00    -0.322 OA
BRANCH   9  10
HETATM   10  C   LIG     1      18.249  36.325  25.994  1.00  0.00     0.174 C 
HETATM   11  C   LIG     1      18.414  34.857  26.373  1.00  0.00     0.034 C 
ENDBRANCH   9  10
ENDBRANCH   7   9
ENDBRANCH   1   7
TORSDOF 7
ENDMDL
MODEL 5
REMARK VINA RESULT:      -5.4      2.324      4.862
REMARK  7 active torsions:
REMARK  status: ('A' for Active; 'I' for Inactive)
REMARK    1  A    between atoms: C_2  and  C_3 
REMARK    2  A    between atoms: C_3  and  C_4 
REMARK    3  A    between atoms: C_4  and  C_5 
REMARK    4  A    between atoms: C_5  and  C_6 
REMARK    5  A    between atoms: C_6  and  C_7 
REMARK    6  A    between atoms: C_7  and  O_8 
REMARK    7  A    between atoms: O_8  and  C_9 
ROOT
HETATM    1  C   LIG     1      18.383  38.420  23.198  1.00  0.00     0.111 C 
ENDROOT
BRANCH   1   2
HETATM    2  C   LIG     1      17.274  38.458  24.256  1.00  0.00     0.010 C 
BRANCH   2   3
HETATM    3  C   LIG     1      17.202  37.134  25.025  1.00  0.00     0.000 C 
BRANCH   3   4
HETATM    4  C   LIG     1      18.338  37.028  26.048  1.00  0.00    -0.000 C 
BRANCH   4   5
HETATM    5  C   LIG     1      18.506  35.585  26.535  1.00  0.00    -0.005 C 
HETATM    6  C   LIG     1      17.352  34.705  26.063  1.00  0.00     0.005 C 
ENDBRANCH   4   5
ENDBRANCH   3   4
ENDBRANCH   2   3
ENDBRANCH   1   2
BRANCH   1   7
HETATM    7  C   LIG     1      17.798  38.330  21.823  1.00  0.00     0.258 C 
HETATM    8  O   LIG     1      18.131  39.172  20.945  1.00  0.00    -0.265 OA
BRANCH   7   9
HETATM    9  O   LIG     1      16.888  37.308  21.527  1.00  0.00    -0.322 OA
BRANCH   9  10
HETATM   10  C   LIG     1      17.282  35.984  21.173  1.00  0.00     0.174 C 
HETATM   11  C   LIG     1      16.750  34.975  22.185  1.00  0.00     0.034 C 
ENDBRANCH   9  10
ENDBRANCH   7   9
ENDBRANCH   1   7
TORSDOF 7
ENDMDL
MODEL 6
REMARK VINA RESULT:      -5.4      4.087      6.216
REMARK  7 active torsions:
REMARK  status: ('A' for Active; 'I' for Inactive)
REMARK    1  A    between atoms: C_2  and  C_3 
REMARK    2  A    between atoms: C_3  and  C_4 
REMARK    3  A    between atoms: C_4  and  C_5 
REMARK    4  A    between atoms: C_5  and  C_6 
REMARK    5  A    between atoms: C_6  and  C_7 
REMARK    6  A    between atoms: C_7  and  O_8 
REMARK    7  A    between atoms: O_8  and  C_9 
ROOT
HETATM    1  C   LIG     1      16.872  34.865  22.200  1.00  0.00     0.111 C 
ENDROOT
BRANCH   1   2
HETATM    2  C   LIG     1      16.800  36.309  22.709  1.00  0.00     0.010 C 
BRANCH   2   3
HETATM    3  C   LIG     1      17.107  36.379  24.210  1.00  0.00     0.000 C 
BRANCH   3   4
HETATM    4  C   LIG     1      17.383  34.984  24.781  1.00  0.00    -0.000 C 
BRANCH   4   5
HETATM    5  C   LIG     1      17.824  35.069  26.247  1.00  0.00    -0.005 C 
HETATM    6  C   LIG     1      18.464  36.420  26.553  1.00  0.00     0.005 C 
ENDBRANCH   4   5
ENDBRANCH   3   4
ENDBRANCH   2   3
ENDBRANCH   1   2
BRANCH   1   7
HETATM    7  C   LIG     1      16.276  34.756  20.831  1.00  0.00     0.258 C 
HETATM    8  O   LIG     1      16.691  35.506  19.907  1.00  0.00    -0.265 OA
BRANCH   7   9
HETATM    9  O   LIG     1      15.264  33.818  20.594  1.00  0.00    -0.322 OA
BRANCH   9  10
HETATM   10  C   LIG     1      15.490  32.565  19.951  1.00  0.00     0.174 C 
HETATM   11  C   LIG     1      15.094  32.635  18.481  1.00  0.00     0.034 C 
ENDBRANCH   9  10
ENDBRANCH   7   9
ENDBRANCH   1   7
TORSDOF 7
ENDMDL
MODEL 7
REMARK VINA RESULT:      -5.2      4.268      5.197
REMARK  7 active torsions:
REMARK  status: ('A' for Active; 'I' for Inactive)
REMARK    1  A    between atoms: C_2  and  C_3 
REMARK    2  A    between atoms: C_3  and  C_4 
REMARK    3  A    between atoms: C_4  and  C_5 
REMARK    4  A    between atoms: C_5  and  C_6 
REMARK    5  A    between atoms: C_6  and  C_7 
REMARK    6  A    between atoms: C_7  and  O_8 
REMARK    7  A    between atoms: O_8  and  C_9 
ROOT
HETATM    1  C   LIG     1      16.836  35.053  21.804  1.00  0.00     0.111 C 
ENDROOT
BRANCH   1   2
HETATM    2  C   LIG     1      16.521  36.548  21.923  1.00  0.00     0.010 C 
BRANCH   2   3
HETATM    3  C   LIG     1      17.669  37.399  21.364  1.00  0.00     0.000 C 
BRANCH   3   4
HETATM    4  C   LIG     1      18.298  36.734  20.135  1.00  0.00    -0.000 C 
BRANCH   4   5
HETATM    5  C   LIG     1      19.420  37.602  19.555  1.00  0.00    -0.005 C 
HETATM    6  C   LIG     1      19.466  38.969  20.232  1.00  0.00     0.005 C 
ENDBRANCH   4   5
ENDBRANCH   3   4
ENDBRANCH   2   3
ENDBRANCH   1   2
BRANCH   1   7
HETATM    7  C   LIG     1      15.701  34.323  21.156  1.00  0.00     0.258 C 
HETATM    8  O   LIG     1      14.556  34.353  21.684  1.00  0.00    -0.265 OA
BRANCH   7   9
HETATM    9  O   LIG     1      15.926  33.616  19.970  1.00  0.00    -0.322 OA
BRANCH   9  10
HETATM   10  C   LIG     1      15.260  32.397  19.645  1.00  0.00     0.174 C 
HETATM   11  C   LIG     1      14.913  32.352  18.161  1.00  0.00     0.034 C 
ENDBRANCH   9  10
ENDBRANCH   7   9
ENDBRANCH   1   7
TORSDOF 7
ENDMDL
MODEL 8
REMARK VINA RESULT:      -5.2      2.367      5.627
REMARK  7 active torsions:
REMARK  status: ('A' for Active; 'I' for Inactive)
REMARK    1  A    between atoms: C_2  and  C_3 
REMARK    2  A    between atoms: C_3  and  C_4 
REMARK    3  A    between atoms: C_4  and  C_5 
REMARK    4  A    between atoms: C_5  and  C_6 
REMARK    5  A    between atoms: C_6  and  C_7 
REMARK    6  A    between atoms: C_7  and  O_8 
REMARK    7  A    between atoms: O_8  and  C_9 
ROOT
HETATM    1  C   LIG     1      17.022  37.583  21.996  1.00  0.00     0.111 C 
ENDROOT
BRANCH   1   2
HETATM    2  C   LIG     1      17.217  36.102  21.653  1.00  0.00     0.010 C 
BRANCH   2   3
HETATM    3  C   LIG     1      16.912  35.213  22.865  1.00  0.00     0.000 C 
BRANCH   3   4
HETATM    4  C   LIG     1      17.208  35.948  24.176  1.00  0.00    -0.000 C 
BRANCH   4   5
HETATM    5  C   LIG     1      17.413  34.957  25.328  1.00  0.00    -0.005 C 
HETATM    6  C   LIG     1      18.295  35.556  26.420  1.00  0.00     0.005 C 
ENDBRANCH   4   5
ENDBRANCH   3   4
ENDBRANCH   2   3
ENDBRANCH   1   2
BRANCH   1   7
HETATM    7  C   LIG     1      18.151  38.404  21.455  1.00  0.00     0.258 C 
HETATM    8  O   LIG     1      18.496  39.461  22.050  1.00  0.00    -0.265 OA
BRANCH   7   9
HETATM    9  O   LIG     1      18.811  37.986  20.294  1.00  0.00    -0.322 OA
BRANCH   9  10
HETATM   10  C   LIG     1      19.644  38.842  19.514  1.00  0.00     0.174 C 
HETATM   11  C   LIG     1      19.015  39.109  18.152  1.00  0.00     0.034 C 
ENDBRANCH   9  10
ENDBRANCH   7   9
ENDBRANCH   1   7
TORSDOF 7
ENDMDL
MODEL 9
REMARK VINA RESULT:      -5.1      9.174     11.140
REMARK  7 active torsions:
REMARK  status: ('A' for Active; 'I' for Inactive)
REMARK    1  A    between atoms: C_2  and  C_3 
REMARK    2  A    between atoms: C_3  and  C_4 
REMARK    3  A    between atoms: C_4  and  C_5 
REMARK    4  A    between atoms: C_5  and  C_6 
REMARK    5  A    between atoms: C_6  and  C_7 
REMARK    6  A    between atoms: C_7  and  O_8 
REMARK    7  A    between atoms: O_8  and  C_9 
ROOT
HETATM    1  C   LIG     1      14.048  32.504  16.828  1.00  0.00     0.111 C 
ENDROOT
BRANCH   1   2
HETATM    2  C   LIG     1      14.192  31.044  16.384  1.00  0.00     0.010 C 
BRANCH   2   3
HETATM    3  C   LIG     1      12.951  30.578  15.611  1.00  0.00     0.000 C 
BRANCH   3   4
HETATM    4  C   LIG     1      13.321  29.530  14.556  1.00  0.00    -0.000 C 
BRANCH   4   5
HETATM    5  C   LIG     1      14.829  29.538  14.279  1.00  0.00    -0.005 C 
HETATM    6  C   LIG     1      15.288  28.206  13.693  1.00  0.00     0.005 C 
ENDBRANCH   4   5
ENDBRANCH   3   4
ENDBRANCH   2   3
ENDBRANCH   1   2
BRANCH   1   7
HETATM    7  C   LIG     1      15.287  33.280  16.506  1.00  0.00     0.258 C 
HETATM    8  O   LIG     1      15.260  34.540  16.533  1.00  0.00    -0.265 OA
BRANCH   7   9
HETATM    9  O   LIG     1      16.463  32.594  16.179  1.00  0.00    -0.322 OA
BRANCH   9  10
HETATM   10  C   LIG     1      17.225  32.861  15.004  1.00  0.00     0.174 C 
HETATM   11  C   LIG     1      16.421  32.525  13.753  1.00  0.00     0.034 C 
ENDBRANCH   9  10
ENDBRANCH   7   9
ENDBRANCH   1   7
TORSDOF 7
ENDMDL
MODEL 10
REMARK VINA RESULT:      -4.9      8.499     10.220
REMARK  7 active torsions:
REMARK  status: ('A' for Active; 'I' for Inactive)
REMARK    1  A    between atoms: C_2  and  C_3 
REMARK    2  A    between atoms: C_3  and  C_4 
REMARK    3  A    between atoms: C_4  and  C_5 
REMARK    4  A    between atoms: C_5  and  C_6 
REMARK    5  A    between atoms: C_6  and  C_7 
REMARK    6  A    between atoms: C_7  and  O_8 
REMARK    7  A    between atoms: O_8  and  C_9 
ROOT
HETATM    1  C   LIG     1      16.311  32.222  15.711  1.00  0.00     0.111 C 
ENDROOT
BRANCH   1   2
HETATM    2  C   LIG     1      16.371  32.420  14.193  1.00  0.00     0.010 C 
BRANCH   2   3
HETATM    3  C   LIG     1      15.573  31.331  13.464  1.00  0.00     0.000 C 
BRANCH   3   4
HETATM    4  C   LIG     1      15.369  30.105  14.361  1.00  0.00    -0.000 C 
BRANCH   4   5
HETATM    5  C   LIG     1      13.897  29.680  14.384  1.00  0.00    -0.005 C 
HETATM    6  C   LIG     1      13.128  30.416  15.478  1.00  0.00     0.005 C 
ENDBRANCH   4   5
ENDBRANCH   3   4
ENDBRANCH   2   3
ENDBRANCH   1   2
BRANCH   1   7
HETATM    7  C   LIG     1      15.945  33.501  16.397  1.00  0.00     0.258 C 
HETATM    8  O   LIG     1      16.136  34.602  15.812  1.00  0.00    -0.265 OA
BRANCH   7   9
HETATM    9  O   LIG     1      15.394  33.460  17.683  1.00  0.00    -0.322 OA
BRANCH   9  10
HETATM   10  C   LIG     1      14.870  32.272  18.274  1.00  0.00     0.174 C 
HETATM   11  C   LIG     1      15.446  32.067  19.671  1.00  0.00     0.034 C 
ENDBRANCH   9  10
ENDBRANCH   7   9
ENDBRANCH   1   7
TORSDOF 7
ENDMDL
MODEL 11
REMARK VINA RESULT:      -4.9      8.306      9.642
REMARK  7 active torsions:
REMARK  status: ('A' for Active; 'I' for Inactive)
REMARK    1  A    between atoms: C_2  and  C_3 
REMARK    2  A    between atoms: C_3  and  C_4 
REMARK    3  A    between atoms: C_4  and  C_5 
REMARK    4  A    between atoms: C_5  and  C_6 
REMARK    5  A    between atoms: C_6  and  C_7 
REMARK    6  A    between atoms: C_7  and  O_8 
REMARK    7  A    between atoms: O_8  and  C_9 
ROOT
HETATM    1  C   LIG     1      13.602  32.405  16.925  1.00  0.00     0.111 C 
ENDROOT
BRANCH   1   2
HETATM    2  C   LIG     1      13.593  30.878  16.798  1.00  0.00     0.010 C 
BRANCH   2   3
HETATM    3  C   LIG     1      13.558  30.449  15.326  1.00  0.00     0.000 C 
BRANCH   3   4
HETATM    4  C   LIG     1      14.963  30.109  14.818  1.00  0.00    -0.000 C 
BRANCH   4   5
HETATM    5  C   LIG     1      15.273  30.857  13.516  1.00  0.00    -0.005 C 
HETATM    6  C   LIG     1      15.970  32.185  13.797  1.00  0.00     0.005 C 
ENDBRANCH   4   5
ENDBRANCH   3   4
ENDBRANCH   2   3
ENDBRANCH   1   2
BRANCH   1   7
HETATM    7  C   LIG     1      14.918  32.884  17.455  1.00  0.00     0.258 C 
HETATM    8  O   LIG     1      15.479  33.883  16.927  1.00  0.00    -0.265 OA
BRANCH   7   9
HETATM    9  O   LIG     1      15.509  32.217  18.534  1.00  0.00    -0.322 OA
BRANCH   9  10
HETATM   10  C   LIG     1      15.115  32.414  19.890  1.00  0.00     0.174 C 
HETATM   11  C   LIG     1      15.538  33.795  20.377  1.00  0.00     0.034 C 
ENDBRANCH   9  10
ENDBRANCH   7   9
ENDBRANCH   1   7
TORSDOF 7
ENDMDL
MODEL 12
REMARK VINA RESULT:      -4.8      5.472      6.944
REMARK  7 active torsions:
REMARK  status: ('A' for Active; 'I' for Inactive)
REMARK    1  A    between atoms: C_2  and  C_3 
REMARK    2  A    between atoms: C_3  and  C_4 
REMARK    3  A    between atoms: C_4  and  C_5 
REMARK    4  A    between atoms: C_5  and  C_6 
REMARK    5  A    between atoms: C_6  and  C_7 
REMARK    6  A    between atoms: C_7  and  O_8 
REMARK    7  A    between atoms: O_8  and  C_9 
ROOT
HETATM    1  C   LIG     1      15.404  33.746  20.673  1.00  0.00     0.111 C 
ENDROOT
BRANCH   1   2
HETATM    2  C   LIG     1      16.028  35.072  20.226  1.00  0.00     0.010 C 
BRANCH   2   3
HETATM    3  C   LIG     1      16.978  35.623  21.297  1.00  0.00     0.000 C 
BRANCH   3   4
HETATM    4  C   LIG     1      17.819  36.778  20.745  1.00  0.00    -0.000 C 
BRANCH   4   5
HETATM    5  C   LIG     1      17.692  38.023  21.630  1.00  0.00    -0.005 C 
HETATM    6  C   LIG     1      18.590  39.150  21.129  1.00  0.00     0.005 C 
ENDBRANCH   4   5
ENDBRANCH   3   4
ENDBRANCH   2   3
ENDBRANCH   1   2
BRANCH   1   7
HETATM    7  C   LIG     1      15.308  32.792  19.524  1.00  0.00     0.258 C 
HETATM    8  O   LIG     1      15.061  31.575  19.741  1.00  0.00    -0.265 OA
BRANCH   7   9
HETATM    9  O   LIG     1      15.494  33.265  18.220  1.00  0.00    -0.322 OA
BRANCH   9  10
HETATM   10  C   LIG     1      14.726  32.815  17.105  1.00  0.00     0.174 C 
HETATM   11  C   LIG     1      15.625  32.552  15.903  1.00  0.00     0.034 C 
ENDBRANCH   9  10
ENDBRANCH   7   9
ENDBRANCH   1   7
TORSDOF 7
ENDMDL
MODEL 13
REMARK VINA RESULT:      -4.8      3.856      4.622
REMARK  7 active torsions:
REMARK  status: ('A' for Active; 'I' for Inactive)
REMARK    1  A    between atoms: C_2  and  C_3 
REMARK    2  A    between atoms: C_3  and  C_4 
REMARK    3  A    between atoms: C_4  and  C_5 
REMARK    4  A    between atoms: C_5  and  C_6 
REMARK    5  A    between atoms: C_6  and  C_7 
REMARK    6  A    between atoms: C_7  and  O_8 
REMARK    7  A    between atoms: O_8  and  C_9 
ROOT
HETATM    1  C   LIG     1      16.420  36.498  21.641  1.00  0.00     0.111 C 
ENDROOT
BRANCH   1   2
HETATM    2  C   LIG     1      16.258  35.045  22.099  1.00  0.00     0.010 C 
BRANCH   2   3
HETATM    3  C   LIG     1      15.123  34.350  21.335  1.00  0.00     0.000 C 
BRANCH   3   4
HETATM    4  C   LIG     1      15.666  33.567  20.136  1.00  0.00    -0.000 C 
BRANCH   4   5
HETATM    5  C   LIG     1      14.990  32.195  20.023  1.00  0.00    -0.005 C 
HETATM    6  C   LIG     1      14.661  31.861  18.571  1.00  0.00     0.005 C 
ENDBRANCH   4   5
ENDBRANCH   3   4
ENDBRANCH   2   3
ENDBRANCH   1   2
BRANCH   1   7
HETATM    7  C   LIG     1      17.053  37.324  22.716  1.00  0.00     0.258 C 
HETATM    8  O   LIG     1      17.957  38.153  22.419  1.00  0.00    -0.265 OA
BRANCH   7   9
HETATM    9  O   LIG     1      16.633  37.168  24.042  1.00  0.00    -0.322 OA
BRANCH   9  10
HETATM   10  C   LIG     1      17.531  36.954  25.130  1.00  0.00     0.174 C 
HETATM   11  C   LIG     1      17.580  35.477  25.504  1.00  0.00     0.034 C 
ENDBRANCH   9  10
ENDBRANCH   7   9
ENDBRANCH   1   7
TORSDOF 7
ENDMDL
MODEL 14
REMARK VINA RESULT:      -4.8     10.745     12.252
REMARK  7 active torsions:
REMARK  status: ('A' for Active; 'I' for Inactive)
REMARK    1  A    between atoms: C_2  and  C_3 
REMARK    2  A    between atoms: C_3  and  C_4 
REMARK    3  A    between atoms: C_4  and  C_5 
REMARK    4  A    between atoms: C_5  and  C_6 
REMARK    5  A    between atoms: C_6  and  C_7 
REMARK    6  A    between atoms: C_7  and  O_8 
REMARK    7  A    between atoms: O_8  and  C_9 
ROOT
HETATM    1  C   LIG     1      17.158  32.974  14.209  1.00  0.00     0.111 C 
ENDROOT
BRANCH   1   2
HETATM    2  C   LIG     1      16.042  32.064  13.684  1.00  0.00     0.010 C 
BRANCH   2   3
HETATM    3  C   LIG     1      15.350  31.322  14.834  1.00  0.00     0.000 C 
BRANCH   3   4
HETATM    4  C   LIG     1      14.577  30.104  14.316  1.00  0.00    -0.000 C 
BRANCH   4   5
HETATM    5  C   LIG     1      13.227  29.966  15.030  1.00  0.00    -0.005 C 
HETATM    6  C   LIG     1      13.179  30.828  16.289  1.00  0.00     0.005 C 
ENDBRANCH   4   5
ENDBRANCH   3   4
ENDBRANCH   2   3
ENDBRANCH   1   2
BRANCH   1   7
HETATM    7  C   LIG     1      17.788  33.739  13.088  1.00  0.00     0.258 C 
HETATM    8  O   LIG     1      17.500  34.956  12.921  1.00  0.00    -0.265 OA
BRANCH   7   9
HETATM    9  O   LIG     1      18.693  33.093  12.237  1.00  0.00    -0.322 OA
BRANCH   9  10
HETATM   10  C   LIG     1      19.801  33.750  11.626  1.00  0.00     0.174 C 
HETATM   11  C   LIG     1      20.913  33.986  12.641  1.00  0.00     0.034 C 
ENDBRANCH   9  10
ENDBRANCH   7   9
ENDBRANCH   1   7
TORSDOF 7
ENDMDL
MODEL 15
REMARK VINA RESULT:      -4.8      8.930     10.358
REMARK  7 active torsions:
REMARK  status: ('A' for Active; 'I' for Inactive)
REMARK    1  A    between atoms: C_2  and  C_3 
REMARK    2  A    between atoms: C_3  and  C_4 
REMARK    3  A    between atoms: C_4  and  C_5 
REMARK    4  A    between atoms: C_5  and  C_6 
REMARK    5  A    between atoms: C_6  and  C_7 
REMARK    6  A    between atoms: C_7  and  O_8 
REMARK    7  A    between atoms: O_8  and  C_9 
ROOT
HETATM    1  C   LIG     1      13.279  30.508  15.415  1.00  0.00     0.111 C 
ENDROOT
BRANCH   1   2
HETATM    2  C   LIG     1      14.754  30.216  15.120  1.00  0.00     0.010 C 
BRANCH   2   3
HETATM    3  C   LIG     1      15.095  30.526  13.657  1.00  0.00     0.000 C 
BRANCH   3   4
HETATM    4  C   LIG     1      15.902  31.824  13.543  1.00  0.00    -0.000 C 
BRANCH   4   5
HETATM    5  C   LIG     1      16.454  32.249  14.909  1.00  0.00    -0.005 C 
HETATM    6  C   LIG     1      17.652  33.181  14.752  1.00  0.00     0.005 C 
ENDBRANCH   4   5
ENDBRANCH   3   4
ENDBRANCH   2   3
ENDBRANCH   1   2
BRANCH   1   7
HETATM    7  C   LIG     1      13.139  31.314  16.668  1.00  0.00     0.258 C 
HETATM    8  O   LIG     1      12.324  32.275  16.706  1.00  0.00    -0.265 OA
BRANCH   7   9
HETATM    9  O   LIG     1      13.917  30.989  17.786  1.00  0.00    -0.322 OA
BRANCH   9  10
HETATM   10  C   LIG     1      14.643  31.955  18.543  1.00  0.00     0.174 C 
HETATM   11  C   LIG     1      14.885  31.454  19.962  1.00  0.00     0.034 C 
ENDBRANCH   9  10
ENDBRANCH   7   9
ENDBRANCH   1   7
TORSDOF 7
ENDMDL
MODEL 16
REMARK VINA RESULT:      -4.8      2.218      3.270
REMARK  7 active torsions:
REMARK  status: ('A' for Active; 'I' for Inactive)
REMARK    1  A    between atoms: C_2  and  C_3 
REMARK    2  A    between atoms: C_3  and  C_4 
REMARK    3  A    between atoms: C_4  and  C_5 
REMARK    4  A    between atoms: C_5  and  C_6 
REMARK    5  A    between atoms: C_6  and  C_7 
REMARK    6  A    between atoms: C_7  and  O_8 
REMARK    7  A    between atoms: O_8  and  C_9 
ROOT
HETATM    1  C   LIG     1      16.842  35.864  20.464  1.00  0.00     0.111 C 
ENDROOT
BRANCH   1   2
HETATM    2  C   LIG     1      18.287  36.351  20.612  1.00  0.00     0.010 C 
BRANCH   2   3
HETATM    3  C   LIG     1      18.817  36.911  19.286  1.00  0.00     0.000 C 
BRANCH   3   4
HETATM    4  C   LIG     1      18.812  38.443  19.294  1.00  0.00    -0.000 C 
BRANCH   4   5
HETATM    5  C   LIG     1      19.578  38.990  20.504  1.00  0.00    -0.005 C 
HETATM    6  C   LIG     1      18.625  39.576  21.541  1.00  0.00     0.005 C 
ENDBRANCH   4   5
ENDBRANCH   3   4
ENDBRANCH   2   3
ENDBRANCH   1   2
BRANCH   1   7
HETATM    7  C   LIG     1      16.043  36.196  21.686  1.00  0.00     0.258 C 
HETATM    8  O   LIG     1      14.784  36.172  21.636  1.00  0.00    -0.265 OA
BRANCH   7   9
HETATM    9  O   LIG     1      16.707  36.530  22.872  1.00  0.00    -0.322 OA
BRANCH   9  10
HETATM   10  C   LIG     1      16.340  37.637  23.693  1.00  0.00     0.174 C 
HETATM   11  C   LIG     1      17.245  37.724  24.916  1.00  0.00     0.034 C 
ENDBRANCH   9  10
ENDBRANCH   7   9
ENDBRANCH   1   7
TORSDOF 7
ENDMDL
MODEL 17
REMARK VINA RESULT:      -4.7      9.328     11.773
REMARK  7 active torsions:
REMARK  status: ('A' for Active; 'I' for Inactive)
REMARK    1  A    between atoms: C_2  and  C_3 
REMARK    2  A    between atoms: C_3  and  C_4 
REMARK    3  A    between atoms: C_4  and  C_5 
REMARK    4  A    between atoms: C_5  and  C_6 
REMARK    5  A    between atoms: C_6  and  C_7 
REMARK    6  A    between atoms: C_7  and  O_8 
REMARK    7  A    between atoms: O_8  and  C_9 
ROOT
HETATM    1  C   LIG     1      15.485  31.222  13.462  1.00  0.00     0.111 C 
ENDROOT
BRANCH   1   2
HETATM    2  C   LIG     1      15.177  30.386  14.709  1.00  0.00     0.010 C 
BRANCH   2   3
HETATM    3  C   LIG     1      13.671  30.371  15.003  1.00  0.00     0.000 C 
BRANCH   3   4
HETATM    4  C   LIG     1      13.400  30.589  16.495  1.00  0.00    -0.000 C 
BRANCH   4   5
HETATM    5  C   LIG     1      13.588  32.061  16.879  1.00  0.00    -0.005 C 
HETATM    6  C   LIG     1      14.687  32.221  17.926  1.00  0.00     0.005 C 
ENDBRANCH   4   5
ENDBRANCH   3   4
ENDBRANCH   2   3
ENDBRANCH   1   2
BRANCH   1   7
HETATM    7  C   LIG     1      16.375  32.376  13.806  1.00  0.00     0.258 C 
HETATM    8  O   LIG     1      16.077  33.129  14.772  1.00  0.00    -0.265 OA
BRANCH   7   9
HETATM    9  O   LIG     1      17.530  32.604  13.049  1.00  0.00    -0.322 OA
BRANCH   9  10
HETATM   10  C   LIG     1      18.067  33.904  12.809  1.00  0.00     0.174 C 
HETATM   11  C   LIG     1      19.591  33.871  12.844  1.00  0.00     0.034 C 
ENDBRANCH   9  10
ENDBRANCH   7   9
ENDBRANCH   1   7
TORSDOF 7
ENDMDL
MODEL 18
REMARK VINA RESULT:      -4.7      3.904      5.320
REMARK  7 active torsions:
REMARK  status: ('A' for Active; 'I' for Inactive)
REMARK    1  A    between atoms: C_2  and  C_3 
REMARK    2  A    between atoms: C_3  and  C_4 
REMARK    3  A    between atoms: C_4  and  C_5 
REMARK    4  A    between atoms: C_5  and  C_6 
REMARK    5  A    between atoms: C_6  and  C_7 
REMARK    6  A    between atoms: C_7  and  O_8 
REMARK    7  A    between atoms: O_8  and  C_9 
ROOT
HETATM    1  C   LIG     1      16.250  36.455  21.466  1.00  0.00     0.111 C 
ENDROOT
BRANCH   1   2
HETATM    2  C   LIG     1      16.141  35.066  22.103  1.00  0.00     0.010 C 
BRANCH   2   3
HETATM    3  C   LIG     1      15.082  34.215  21.390  1.00  0.00     0.000 C 
BRANCH   3   4
HETATM    4  C   LIG     1      15.688  33.469  20.196  1.00  0.00    -0.000 C 
BRANCH   4   5
HETATM    5  C   LIG     1      15.016  32.105  20.002  1.00  0.00    -0.005 C 
HETATM    6  C   LIG     1      14.596  31.900  18.549  1.00  0.00     0.005 C 
ENDBRANCH   4   5
ENDBRANCH   3   4
ENDBRANCH   2   3
ENDBRANCH   1   2
BRANCH   1   7
HETATM    7  C   LIG     1      16.531  37.494  22.507  1.00  0.00     0.258 C 
HETATM    8  O   LIG     1      15.597  37.908  23.246  1.00  0.00    -0.265 OA
BRANCH   7   9
HETATM    9  O   LIG     1      17.831  37.993  22.648  1.00  0.00    -0.322 OA
BRANCH   9  10
HETATM   10  C   LIG     1      18.244  39.262  22.144  1.00  0.00     0.174 C 
HETATM   11  C   LIG     1      19.036  39.097  20.853  1.00  0.00     0.034 C 
ENDBRANCH   9  10
ENDBRANCH   7   9
ENDBRANCH   1   7
TORSDOF 7
ENDMDL
MODEL 19
REMARK VINA RESULT:      -4.6     12.264     14.013
REMARK  7 active torsions:
REMARK  status: ('A' for Active; 'I' for Inactive)
REMARK    1  A    between atoms: C_2  and  C_3 
REMARK    2  A    between atoms: C_3  and  C_4 
REMARK    3  A    between atoms: C_4  and  C_5 
REMARK    4  A    between atoms: C_5  and  C_6 
REMARK    5  A    between atoms: C_6  and  C_7 
REMARK    6  A    between atoms: C_7  and  O_8 
REMARK    7  A    between atoms: O_8  and  C_9 
ROOT
HETATM    1  C   LIG     1      13.274  29.155  14.155  1.00  0.00     0.111 C 
ENDROOT
BRANCH   1   2
HETATM    2  C   LIG     1      14.605  29.909  14.065  1.00  0.00     0.010 C 
BRANCH   2   3
HETATM    3  C   LIG     1      14.763  30.887  15.236  1.00  0.00     0.000 C 
BRANCH   3   4
HETATM    4  C   LIG     1      13.534  30.853  16.151  1.00  0.00    -0.000 C 
BRANCH   4   5
HETATM    5  C   LIG     1      13.499  32.080  17.070  1.00  0.00    -0.005 C 
HETATM    6  C   LIG     1      14.719  32.970  16.848  1.00  0.00     0.005 C 
ENDBRANCH   4   5
ENDBRANCH   3   4
ENDBRANCH   2   3
ENDBRANCH   1   2
BRANCH   1   7
HETATM    7  C   LIG     1      13.459  27.712  13.804  1.00  0.00     0.258 C 
HETATM    8  O   LIG     1      14.614  27.271  13.557  1.00  0.00    -0.265 OA
BRANCH   7   9
HETATM    9  O   LIG     1      12.344  26.867  13.755  1.00  0.00    -0.322 OA
BRANCH   9  10
HETATM   10  C   LIG     1      11.455  26.805  12.641  1.00  0.00     0.174 C 
HETATM   11  C   LIG     1      11.664  25.514  11.857  1.00  0.00     0.034 C 
ENDBRANCH   9  10
ENDBRANCH   7   9
ENDBRANCH   1   7
TORSDOF 7
ENDMDL
MODEL 20
REMARK VINA RESULT:      -4.5      9.329     10.915
REMARK  7 active torsions:
REMARK  status: ('A' for Active; 'I' for Inactive)
REMARK    1  A    between atoms: C_2  and  C_3 
REMARK    2  A    between atoms: C_3  and  C_4 
REMARK    3  A    between atoms: C_4  and  C_5 
REMARK    4  A    between atoms: C_5  and  C_6 
REMARK    5  A    between atoms: C_6  and  C_7 
REMARK    6  A    between atoms: C_7  and  O_8 
REMARK    7  A    between atoms: O_8  and  C_9 
ROOT
HETATM    1  C   LIG     1      15.889  32.054  15.568  1.00  0.00     0.111 C 
ENDROOT
BRANCH   1   2
HETATM    2  C   LIG     1      14.761  31.109  15.140  1.00  0.00     0.010 C 
BRANCH   2   3
HETATM    3  C   LIG     1      15.155  30.313  13.890  1.00  0.00     0.000 C 
BRANCH   3   4
HETATM    4  C   LIG     1      14.517  28.919  13.902  1.00  0.00    -0.000 C 
BRANCH   4   5
HETATM    5  C   LIG     1      15.587  27.824  13.817  1.00  0.00    -0.005 C 
HETATM    6  C   LIG     1      15.687  27.260  12.403  1.00  0.00     0.005 C 
ENDBRANCH   4   5
ENDBRANCH   3   4
ENDBRANCH   2   3
ENDBRANCH   1   2
BRANCH   1   7
HETATM    7  C   LIG     1      15.363  33.139  16.455  1.00  0.00     0.258 C 
HETATM    8  O   LIG     1      15.792  34.318  16.324  1.00  0.00    -0.265 OA
BRANCH   7   9
HETATM    9  O   LIG     1      14.397  32.831  17.421  1.00  0.00    -0.322 OA
BRANCH   9  10
HETATM   10  C   LIG     1      14.657  32.003  18.553  1.00  0.00     0.174 C 
HETATM   11  C   LIG     1      15.400  32.785  19.631  1.00  0.00     0.034 C 
ENDBRANCH   9  10
ENDBRANCH   7   9
ENDBRANCH   1   7
TORSDOF 7
ENDMDL
