MODEL 1
REMARK VINA RESULT:      -4.9      0.000      0.000
REMARK  0 active torsions:
REMARK  status: ('A' for Active; 'I' for Inactive)
ROOT
HETATM    1 BR   LIG     1      15.846  35.304  20.112  1.00  0.00    -0.051 Br
HETATM    2  C   LIG     1      16.453  35.816  21.849  1.00  0.00     0.011 A 
HETATM    3  C   LIG     1      16.838  34.838  22.773  1.00  0.00     0.020 A 
HETATM    4  C   LIG     1      17.282  35.213  24.046  1.00  0.00     0.020 A 
HETATM    5  C   LIG     1      17.343  36.567  24.396  1.00  0.00     0.011 A 
HETATM    6 BR   LIG     1      17.951  37.079  26.133  1.00  0.00    -0.051 Br
HETATM    7  C   LIG     1      16.959  37.545  23.472  1.00  0.00     0.020 A 
HETATM    8  C   LIG     1      16.514  37.170  22.199  1.00  0.00     0.020 A 
ENDROOT
TORSDOF 0
ENDMDL
MODEL 2
REMARK VINA RESULT:      -4.9      0.045      4.103
REMARK  0 active torsions:
REMARK  status: ('A' for Active; 'I' for Inactive)
ROOT
HETATM    1 BR   LIG     1      17.977  37.141  26.116  1.00  0.00    -0.051 Br
HETATM    2  C   LIG     1      17.353  36.605  24.391  1.00  0.00     0.011 A 
HETATM    3  C   LIG     1      16.986  37.572  23.448  1.00  0.00     0.020 A 
HETATM    4  C   LIG     1      16.530  37.180  22.185  1.00  0.00     0.020 A 
HETATM    5  C   LIG     1      16.439  35.821  21.863  1.00  0.00     0.011 A 
HETATM    6 BR   LIG     1      15.816  35.286  20.139  1.00  0.00    -0.051 Br
HETATM    7  C   LIG     1      16.806  34.854  22.807  1.00  0.00     0.020 A 
HETATM    8  C   LIG     1      17.263  35.247  24.070  1.00  0.00     0.020 A 
ENDROOT
TORSDOF 0
ENDMDL
MODEL 3
REMARK VINA RESULT:      -4.8      2.791      4.429
REMARK  0 active torsions:
REMARK  status: ('A' for Active; 'I' for Inactive)
ROOT
HETATM    1 BR   LIG     1      16.874  37.495  24.536  1.00  0.00    -0.051 Br
HETATM    2  C   LIG     1      17.566  37.867  22.795  1.00  0.00     0.011 A 
HETATM    3  C   LIG     1      17.508  36.890  21.795  1.00  0.00     0.020 A 
HETATM    4  C   LIG     1      18.015  37.162  20.520  1.00  0.00     0.020 A 
HETATM    5  C   LIG     1      18.581  38.412  20.242  1.00  0.00     0.011 A 
HETATM    6 BR   LIG     1      19.272  38.784  18.501  1.00  0.00    -0.051 Br
HETATM    7  C   LIG     1      18.638  39.389  21.242  1.00  0.00     0.020 A 
HETATM    8  C   LIG     1      18.131  39.117  22.518  1.00  0.00     0.020 A 
ENDROOT
TORSDOF 0
ENDMDL
MODEL 4
REMARK VINA RESULT:      -4.8      2.049      3.578
REMARK  0 active torsions:
REMARK  status: ('A' for Active; 'I' for Inactive)
ROOT
HETATM    1 BR   LIG     1      17.313  34.749  26.438  1.00  0.00    -0.051 Br
HETATM    2  C   LIG     1      17.460  36.020  25.020  1.00  0.00     0.011 A 
HETATM    3  C   LIG     1      17.074  35.668  23.721  1.00  0.00     0.020 A 
HETATM    4  C   LIG     1      17.182  36.599  22.682  1.00  0.00     0.020 A 
HETATM    5  C   LIG     1      17.676  37.883  22.940  1.00  0.00     0.011 A 
HETATM    6 BR   LIG     1      17.823  39.154  21.522  1.00  0.00    -0.051 Br
HETATM    7  C   LIG     1      18.062  38.234  24.238  1.00  0.00     0.020 A 
HETATM    8  C   LIG     1      17.954  37.304  25.277  1.00  0.00     0.020 A 
ENDROOT
TORSDOF 0
ENDMDL
MODEL 5
REMARK VINA RESULT:      -4.8      2.815      3.588
REMARK  0 active torsions:
REMARK  status: ('A' for Active; 'I' for Inactive)
ROOT
HETATM    1 BR   LIG     1      19.293  38.779  18.461  1.00  0.00    -0.051 Br
HETATM    2  C   LIG     1      18.587  38.408  20.196  1.00  0.00     0.011 A 
HETATM    3  C   LIG     1      18.652  39.379  21.202  1.00  0.00     0.020 A 
HETATM    4  C   LIG     1      18.135  39.107  22.473  1.00  0.00     0.020 A 
HETATM    5  C   LIG     1      17.552  37.864  22.741  1.00  0.00     0.011 A 
HETATM    6 BR   LIG     1      16.846  37.493  24.477  1.00  0.00    -0.051 Br
HETATM    7  C   LIG     1      17.486  36.893  21.736  1.00  0.00     0.020 A 
HETATM    8  C   LIG     1      18.003  37.165  20.464  1.00  0.00     0.020 A 
ENDROOT
TORSDOF 0
ENDMDL
MODEL 6
REMARK VINA RESULT:      -4.8      2.068      2.533
REMARK  0 active torsions:
REMARK  status: ('A' for Active; 'I' for Inactive)
ROOT
HETATM    1 BR   LIG     1      17.726  39.220  21.617  1.00  0.00    -0.051 Br
HETATM    2  C   LIG     1      17.621  37.922  23.015  1.00  0.00     0.011 A 
HETATM    3  C   LIG     1      17.103  36.649  22.751  1.00  0.00     0.020 A 
HETATM    4  C   LIG     1      17.026  35.698  23.774  1.00  0.00     0.020 A 
HETATM    5  C   LIG     1      17.466  36.019  25.063  1.00  0.00     0.011 A 
HETATM    6 BR   LIG     1      17.361  34.721  26.461  1.00  0.00    -0.051 Br
HETATM    7  C   LIG     1      17.984  37.292  25.327  1.00  0.00     0.020 A 
HETATM    8  C   LIG     1      18.061  38.243  24.304  1.00  0.00     0.020 A 
ENDROOT
TORSDOF 0
ENDMDL
MODEL 7
REMARK VINA RESULT:      -4.5      2.557      3.801
REMARK  0 active torsions:
REMARK  status: ('A' for Active; 'I' for Inactive)
ROOT
HETATM    1 BR   LIG     1      19.065  39.384  21.397  1.00  0.00    -0.051 Br
HETATM    2  C   LIG     1      17.867  37.897  21.370  1.00  0.00     0.011 A 
HETATM    3  C   LIG     1      18.064  36.856  20.456  1.00  0.00     0.020 A 
HETATM    4  C   LIG     1      17.186  35.766  20.436  1.00  0.00     0.020 A 
HETATM    5  C   LIG     1      16.110  35.717  21.330  1.00  0.00     0.011 A 
HETATM    6 BR   LIG     1      14.912  34.229  21.304  1.00  0.00    -0.051 Br
HETATM    7  C   LIG     1      15.914  36.758  22.245  1.00  0.00     0.020 A 
HETATM    8  C   LIG     1      16.792  37.847  22.265  1.00  0.00     0.020 A 
ENDROOT
TORSDOF 0
ENDMDL
MODEL 8
REMARK VINA RESULT:      -4.5      2.541      2.925
REMARK  0 active torsions:
REMARK  status: ('A' for Active; 'I' for Inactive)
ROOT
HETATM    1 BR   LIG     1      14.952  34.170  21.266  1.00  0.00    -0.051 Br
HETATM    2  C   LIG     1      16.120  35.680  21.313  1.00  0.00     0.011 A 
HETATM    3  C   LIG     1      17.195  35.762  20.421  1.00  0.00     0.020 A 
HETATM    4  C   LIG     1      18.051  36.868  20.455  1.00  0.00     0.020 A 
HETATM    5  C   LIG     1      17.833  37.894  21.382  1.00  0.00     0.011 A 
HETATM    6 BR   LIG     1      19.001  39.405  21.429  1.00  0.00    -0.051 Br
HETATM    7  C   LIG     1      16.758  37.812  22.274  1.00  0.00     0.020 A 
HETATM    8  C   LIG     1      15.902  36.706  22.239  1.00  0.00     0.020 A 
ENDROOT
TORSDOF 0
ENDMDL
MODEL 9
REMARK VINA RESULT:      -4.4      7.868      9.388
REMARK  0 active torsions:
REMARK  status: ('A' for Active; 'I' for Inactive)
ROOT
HETATM    1 BR   LIG     1      13.266  28.644  14.077  1.00  0.00    -0.051 Br
HETATM    2  C   LIG     1      13.823  30.199  15.036  1.00  0.00     0.011 A 
HETATM    3  C   LIG     1      13.030  30.702  16.074  1.00  0.00     0.020 A 
HETATM    4  C   LIG     1      13.438  31.842  16.776  1.00  0.00     0.020 A 
HETATM    5  C   LIG     1      14.638  32.479  16.443  1.00  0.00     0.011 A 
HETATM    6 BR   LIG     1      15.195  34.034  17.402  1.00  0.00    -0.051 Br
HETATM    7  C   LIG     1      15.431  31.975  15.405  1.00  0.00     0.020 A 
HETATM    8  C   LIG     1      15.023  30.836  14.702  1.00  0.00     0.020 A 
ENDROOT
TORSDOF 0
ENDMDL
MODEL 10
REMARK VINA RESULT:      -4.2      8.683      9.762
REMARK  0 active torsions:
REMARK  status: ('A' for Active; 'I' for Inactive)
ROOT
HETATM    1 BR   LIG     1      13.233  30.670  16.369  1.00  0.00    -0.051 Br
HETATM    2  C   LIG     1      14.689  31.513  15.467  1.00  0.00     0.011 A 
HETATM    3  C   LIG     1      15.068  31.079  14.191  1.00  0.00     0.020 A 
HETATM    4  C   LIG     1      16.136  31.697  13.530  1.00  0.00     0.020 A 
HETATM    5  C   LIG     1      16.825  32.749  14.143  1.00  0.00     0.011 A 
HETATM    6 BR   LIG     1      18.282  33.592  13.240  1.00  0.00    -0.051 Br
HETATM    7  C   LIG     1      16.446  33.183  15.419  1.00  0.00     0.020 A 
HETATM    8  C   LIG     1      15.379  32.565  16.080  1.00  0.00     0.020 A 
ENDROOT
TORSDOF 0
ENDMDL
MODEL 11
REMARK VINA RESULT:      -4.2      2.393      4.048
REMARK  0 active torsions:
REMARK  status: ('A' for Active; 'I' for Inactive)
ROOT
HETATM    1 BR   LIG     1      17.400  39.242  22.685  1.00  0.00    -0.051 Br
HETATM    2  C   LIG     1      16.839  37.569  21.956  1.00  0.00     0.011 A 
HETATM    3  C   LIG     1      15.571  37.061  22.262  1.00  0.00     0.020 A 
HETATM    4  C   LIG     1      15.160  35.835  21.728  1.00  0.00     0.020 A 
HETATM    5  C   LIG     1      16.016  35.115  20.886  1.00  0.00     0.011 A 
HETATM    6 BR   LIG     1      15.454  33.441  20.156  1.00  0.00    -0.051 Br
HETATM    7  C   LIG     1      17.283  35.623  20.580  1.00  0.00     0.020 A 
HETATM    8  C   LIG     1      17.694  36.849  21.114  1.00  0.00     0.020 A 
ENDROOT
TORSDOF 0
ENDMDL
MODEL 12
REMARK VINA RESULT:      -4.1      8.741     10.711
REMARK  0 active torsions:
REMARK  status: ('A' for Active; 'I' for Inactive)
ROOT
HETATM    1 BR   LIG     1      15.569  33.416  16.484  1.00  0.00    -0.051 Br
HETATM    2  C   LIG     1      14.839  31.839  15.691  1.00  0.00     0.011 A 
HETATM    3  C   LIG     1      15.500  31.221  14.624  1.00  0.00     0.020 A 
HETATM    4  C   LIG     1      14.964  30.066  14.043  1.00  0.00     0.020 A 
HETATM    5  C   LIG     1      13.767  29.528  14.528  1.00  0.00     0.011 A 
HETATM    6 BR   LIG     1      13.036  27.952  13.735  1.00  0.00    -0.051 Br
HETATM    7  C   LIG     1      13.106  30.147  15.595  1.00  0.00     0.020 A 
HETATM    8  C   LIG     1      13.641  31.302  16.176  1.00  0.00     0.020 A 
ENDROOT
TORSDOF 0
ENDMDL
MODEL 13
REMARK VINA RESULT:      -4.1      8.867      9.812
REMARK  0 active torsions:
REMARK  status: ('A' for Active; 'I' for Inactive)
ROOT
HETATM    1 BR   LIG     1      18.495  33.764  13.491  1.00  0.00    -0.051 Br
HETATM    2  C   LIG     1      16.980  32.839  14.196  1.00  0.00     0.011 A 
HETATM    3  C   LIG     1      16.385  31.808  13.460  1.00  0.00     0.020 A 
HETATM    4  C   LIG     1      15.275  31.130  13.976  1.00  0.00     0.020 A 
HETATM    5  C   LIG     1      14.759  31.482  15.229  1.00  0.00     0.011 A 
HETATM    6 BR   LIG     1      13.244  30.557  15.933  1.00  0.00    -0.051 Br
HETATM    7  C   LIG     1      15.354  32.513  15.964  1.00  0.00     0.020 A 
HETATM    8  C   LIG     1      16.464  33.191  15.448  1.00  0.00     0.020 A 
ENDROOT
TORSDOF 0
ENDMDL
MODEL 14
REMARK VINA RESULT:      -4.0      8.787     10.126
REMARK  0 active torsions:
REMARK  status: ('A' for Active; 'I' for Inactive)
ROOT
HETATM    1 BR   LIG     1      13.269  29.042  14.473  1.00  0.00    -0.051 Br
HETATM    2  C   LIG     1      14.515  30.489  14.520  1.00  0.00     0.011 A 
HETATM    3  C   LIG     1      14.642  31.267  15.677  1.00  0.00     0.020 A 
HETATM    4  C   LIG     1      15.555  32.327  15.711  1.00  0.00     0.020 A 
HETATM    5  C   LIG     1      16.342  32.611  14.589  1.00  0.00     0.011 A 
HETATM    6 BR   LIG     1      17.588  34.057  14.637  1.00  0.00    -0.051 Br
HETATM    7  C   LIG     1      16.215  31.833  13.433  1.00  0.00     0.020 A 
HETATM    8  C   LIG     1      15.302  30.773  13.398  1.00  0.00     0.020 A 
ENDROOT
TORSDOF 0
ENDMDL
MODEL 15
REMARK VINA RESULT:      -4.0     16.464     16.981
REMARK  0 active torsions:
REMARK  status: ('A' for Active; 'I' for Inactive)
ROOT
HETATM    1 BR   LIG     1       2.578  38.901  29.707  1.00  0.00    -0.051 Br
HETATM    2  C   LIG     1       3.043  40.291  30.932  1.00  0.00     0.011 A 
HETATM    3  C   LIG     1       3.063  41.624  30.505  1.00  0.00     0.020 A 
HETATM    4  C   LIG     1       3.404  42.642  31.402  1.00  0.00     0.020 A 
HETATM    5  C   LIG     1       3.725  42.329  32.728  1.00  0.00     0.011 A 
HETATM    6 BR   LIG     1       4.190  43.719  33.953  1.00  0.00    -0.051 Br
HETATM    7  C   LIG     1       3.705  40.996  33.155  1.00  0.00     0.020 A 
HETATM    8  C   LIG     1       3.364  39.978  32.258  1.00  0.00     0.020 A 
ENDROOT
TORSDOF 0
ENDMDL
MODEL 16
REMARK VINA RESULT:      -4.0     17.067     17.639
REMARK  0 active torsions:
REMARK  status: ('A' for Active; 'I' for Inactive)
ROOT
HETATM    1 BR   LIG     1       3.342  42.603  31.123  1.00  0.00    -0.051 Br
HETATM    2  C   LIG     1       3.698  41.642  32.736  1.00  0.00     0.011 A 
HETATM    3  C   LIG     1       4.069  42.332  33.895  1.00  0.00     0.020 A 
HETATM    4  C   LIG     1       4.329  41.629  35.076  1.00  0.00     0.020 A 
HETATM    5  C   LIG     1       4.219  40.234  35.099  1.00  0.00     0.011 A 
HETATM    6 BR   LIG     1       4.574  39.273  36.712  1.00  0.00    -0.051 Br
HETATM    7  C   LIG     1       3.848  39.543  33.940  1.00  0.00     0.020 A 
HETATM    8  C   LIG     1       3.588  40.247  32.759  1.00  0.00     0.020 A 
ENDROOT
TORSDOF 0
ENDMDL
MODEL 17
REMARK VINA RESULT:      -4.0      8.853     10.620
REMARK  0 active torsions:
REMARK  status: ('A' for Active; 'I' for Inactive)
ROOT
HETATM    1 BR   LIG     1      17.173  33.666  15.110  1.00  0.00    -0.051 Br
HETATM    2  C   LIG     1      15.967  32.209  14.844  1.00  0.00     0.011 A 
HETATM    3  C   LIG     1      15.002  31.912  15.813  1.00  0.00     0.020 A 
HETATM    4  C   LIG     1      14.118  30.845  15.617  1.00  0.00     0.020 A 
HETATM    5  C   LIG     1      14.198  30.073  14.453  1.00  0.00     0.011 A 
HETATM    6 BR   LIG     1      12.992  28.616  14.186  1.00  0.00    -0.051 Br
HETATM    7  C   LIG     1      15.163  30.370  13.484  1.00  0.00     0.020 A 
HETATM    8  C   LIG     1      16.047  31.437  13.679  1.00  0.00     0.020 A 
ENDROOT
TORSDOF 0
ENDMDL
MODEL 18
REMARK VINA RESULT:      -3.5      6.296      7.707
REMARK  0 active torsions:
REMARK  status: ('A' for Active; 'I' for Inactive)
ROOT
HETATM    1 BR   LIG     1      13.880  30.178  14.476  1.00  0.00    -0.051 Br
HETATM    2  C   LIG     1      14.370  31.192  16.018  1.00  0.00     0.011 A 
HETATM    3  C   LIG     1      13.796  30.899  17.261  1.00  0.00     0.020 A 
HETATM    4  C   LIG     1      14.155  31.642  18.391  1.00  0.00     0.020 A 
HETATM    5  C   LIG     1      15.088  32.679  18.280  1.00  0.00     0.011 A 
HETATM    6 BR   LIG     1      15.578  33.693  19.823  1.00  0.00    -0.051 Br
HETATM    7  C   LIG     1      15.662  32.972  17.038  1.00  0.00     0.020 A 
HETATM    8  C   LIG     1      15.304  32.229  15.908  1.00  0.00     0.020 A 
ENDROOT
TORSDOF 0
ENDMDL
MODEL 19
REMARK VINA RESULT:      -3.1     19.039     20.223
REMARK  0 active torsions:
REMARK  status: ('A' for Active; 'I' for Inactive)
ROOT
HETATM    1 BR   LIG     1      14.934  18.581  16.978  1.00  0.00    -0.051 Br
HETATM    2  C   LIG     1      14.802  18.733  15.079  1.00  0.00     0.011 A 
HETATM    3  C   LIG     1      13.700  18.190  14.408  1.00  0.00     0.020 A 
HETATM    4  C   LIG     1      13.603  18.301  13.016  1.00  0.00     0.020 A 
HETATM    5  C   LIG     1      14.608  18.955  12.294  1.00  0.00     0.011 A 
HETATM    6 BR   LIG     1      14.476  19.107  10.394  1.00  0.00    -0.051 Br
HETATM    7  C   LIG     1      15.710  19.497  12.965  1.00  0.00     0.020 A 
HETATM    8  C   LIG     1      15.806  19.386  14.356  1.00  0.00     0.020 A 
ENDROOT
TORSDOF 0
ENDMDL
