REMARK  4 active torsions:
REMARK  status: ('A' for Active; 'I' for Inactive)
REMARK    1  A    between atoms: C_2  and  C_3 
REMARK    2  A    between atoms: C_2  and  O_5 
REMARK    3  A    between atoms: O_5  and  C_6 
REMARK    4  A    between atoms: C_6  and  C_7 
ROOT
HETATM    1  O   LIG     1       0.948   0.675   0.090  1.00  0.00    -0.318 OA
ENDROOT
BRANCH   1   2
HETATM    2  C   LIG     1       1.663   0.011  -0.916  1.00  0.00     0.282 C 
HETATM    3  O   LIG     1       1.145  -0.188  -2.047  1.00  0.00    -0.260 OA
BRANCH   2   4
HETATM    4  C   LIG     1       3.033  -0.459  -0.665  1.00  0.00     0.072 C 
HETATM    5  C   LIG     1       3.638  -0.289   0.508  1.00  0.00     0.017 C 
ENDBRANCH   2   4
ENDBRANCH   1   2
BRANCH   1   6
HETATM    6  C   LIG     1      -0.403   1.116  -0.051  1.00  0.00     0.182 C 
BRANCH   6   7
HETATM    7  C   LIG     1      -1.387   0.089   0.539  1.00  0.00     0.002 C 
HETATM    8  C   LIG     1      -2.807   0.667   0.561  1.00  0.00     0.011 C 
HETATM    9  C   LIG     1      -1.367  -1.231  -0.242  1.00  0.00     0.011 C 
ENDBRANCH   6   7
ENDBRANCH   1   6
TORSDOF 4
