REMARK  1 active torsions:
REMARK  status: ('A' for Active; 'I' for Inactive)
REMARK    1  A    between atoms: C_2  and  C_3 
ROOT
HETATM    1 BR   LIG     1      -1.372   1.598   0.743  1.00  0.00    -0.096 Br
HETATM    2  C   LIG     1      -0.771  -0.051  -0.085  1.00  0.00     0.096 C 
ENDROOT
BRANCH   2   3
HETATM    3  C   LIG     1       0.729  -0.248   0.106  1.00  0.00     0.096 C 
HETATM    4 BR   LIG     1       1.743   1.046  -0.926  1.00  0.00    -0.096 Br
ENDBRANCH   2   3
TORSDOF 1
