MODEL 1
REMARK VINA RESULT:      -5.5      0.000      0.000
REMARK  4 active torsions:
REMARK  status: ('A' for Active; 'I' for Inactive)
REMARK    1  A    between atoms: C_2  and  C_3 
REMARK    2  A    between atoms: C_2  and  O_5 
REMARK    3  A    between atoms: O_5  and  C_6 
REMARK    4  A    between atoms: C_6  and  C_7 
ROOT
HETATM    1  O   LIG     1      17.005  36.811  23.990  1.00  0.00    -0.318 OA
ENDROOT
BRANCH   1   2
HETATM    2  C   LIG     1      17.424  37.382  25.199  1.00  0.00     0.282 C 
HETATM    3  O   LIG     1      17.140  38.577  25.478  1.00  0.00    -0.260 OA
BRANCH   2   4
HETATM    4  C   LIG     1      18.199  36.588  26.164  1.00  0.00     0.072 C 
HETATM    5  C   LIG     1      18.117  35.261  26.220  1.00  0.00     0.017 C 
ENDBRANCH   2   4
ENDBRANCH   1   2
BRANCH   1   6
HETATM    6  C   LIG     1      17.093  37.469  22.725  1.00  0.00     0.182 C 
BRANCH   6   7
HETATM    7  C   LIG     1      16.915  36.471  21.566  1.00  0.00     0.002 C 
HETATM    8  C   LIG     1      18.039  36.647  20.538  1.00  0.00     0.011 C 
HETATM    9  C   LIG     1      16.879  35.021  22.065  1.00  0.00     0.011 C 
ENDBRANCH   6   7
ENDBRANCH   1   6
TORSDOF 4
ENDMDL
MODEL 2
REMARK VINA RESULT:      -5.4      1.313      3.876
REMARK  4 active torsions:
REMARK  status: ('A' for Active; 'I' for Inactive)
REMARK    1  A    between atoms: C_2  and  C_3 
REMARK    2  A    between atoms: C_2  and  O_5 
REMARK    3  A    between atoms: O_5  and  C_6 
REMARK    4  A    between atoms: C_6  and  C_7 
ROOT
HETATM    1  O   LIG     1      16.284  37.638  24.329  1.00  0.00    -0.318 OA
ENDROOT
BRANCH   1   2
HETATM    2  C   LIG     1      16.397  38.218  23.058  1.00  0.00     0.282 C 
HETATM    3  O   LIG     1      15.753  39.261  22.769  1.00  0.00    -0.260 OA
BRANCH   2   4
HETATM    4  C   LIG     1      17.276  37.617  22.045  1.00  0.00     0.072 C 
HETATM    5  C   LIG     1      17.077  36.389  21.572  1.00  0.00     0.017 C 
ENDBRANCH   2   4
ENDBRANCH   1   2
BRANCH   1   6
HETATM    6  C   LIG     1      17.261  37.781  25.361  1.00  0.00     0.182 C 
BRANCH   6   7
HETATM    7  C   LIG     1      18.103  36.501  25.510  1.00  0.00     0.002 C 
HETATM    8  C   LIG     1      18.581  36.346  26.959  1.00  0.00     0.011 C 
HETATM    9  C   LIG     1      17.322  35.254  25.077  1.00  0.00     0.011 C 
ENDBRANCH   6   7
ENDBRANCH   1   6
TORSDOF 4
ENDMDL
MODEL 3
REMARK VINA RESULT:      -4.8      1.869      2.893
REMARK  4 active torsions:
REMARK  status: ('A' for Active; 'I' for Inactive)
REMARK    1  A    between atoms: C_2  and  C_3 
REMARK    2  A    between atoms: C_2  and  O_5 
REMARK    3  A    between atoms: O_5  and  C_6 
REMARK    4  A    between atoms: C_6  and  C_7 
ROOT
HETATM    1  O   LIG     1      16.255  36.969  23.361  1.00  0.00    -0.318 OA
ENDROOT
BRANCH   1   2
HETATM    2  C   LIG     1      16.874  38.194  23.645  1.00  0.00     0.282 C 
HETATM    3  O   LIG     1      17.087  38.545  24.836  1.00  0.00    -0.260 OA
BRANCH   2   4
HETATM    4  C   LIG     1      17.289  39.086  22.552  1.00  0.00     0.072 C 
HETATM    5  C   LIG     1      18.544  39.132  22.111  1.00  0.00     0.017 C 
ENDBRANCH   2   4
ENDBRANCH   1   2
BRANCH   1   6
HETATM    6  C   LIG     1      16.962  35.786  22.988  1.00  0.00     0.182 C 
BRANCH   6   7
HETATM    7  C   LIG     1      16.593  35.344  21.560  1.00  0.00     0.002 C 
HETATM    8  C   LIG     1      15.106  35.605  21.292  1.00  0.00     0.011 C 
HETATM    9  C   LIG     1      17.451  36.054  20.506  1.00  0.00     0.011 C 
ENDBRANCH   6   7
ENDBRANCH   1   6
TORSDOF 4
ENDMDL
MODEL 4
REMARK VINA RESULT:      -4.8      3.033      5.068
REMARK  4 active torsions:
REMARK  status: ('A' for Active; 'I' for Inactive)
REMARK    1  A    between atoms: C_2  and  C_3 
REMARK    2  A    between atoms: C_2  and  O_5 
REMARK    3  A    between atoms: O_5  and  C_6 
REMARK    4  A    between atoms: C_6  and  C_7 
ROOT
HETATM    1  O   LIG     1      18.231  36.244  20.444  1.00  0.00    -0.318 OA
ENDROOT
BRANCH   1   2
HETATM    2  C   LIG     1      18.669  37.012  19.357  1.00  0.00     0.282 C 
HETATM    3  O   LIG     1      18.266  36.760  18.190  1.00  0.00    -0.260 OA
BRANCH   2   4
HETATM    4  C   LIG     1      19.602  38.128  19.566  1.00  0.00     0.072 C 
HETATM    5  C   LIG     1      19.302  39.170  20.337  1.00  0.00     0.017 C 
ENDBRANCH   2   4
ENDBRANCH   1   2
BRANCH   1   6
HETATM    6  C   LIG     1      16.883  35.806  20.620  1.00  0.00     0.182 C 
BRANCH   6   7
HETATM    7  C   LIG     1      16.375  36.125  22.038  1.00  0.00     0.002 C 
HETATM    8  C   LIG     1      17.049  35.205  23.062  1.00  0.00     0.011 C 
HETATM    9  C   LIG     1      16.615  37.594  22.410  1.00  0.00     0.011 C 
ENDBRANCH   6   7
ENDBRANCH   1   6
TORSDOF 4
ENDMDL
MODEL 5
REMARK VINA RESULT:      -4.7      1.825      4.293
REMARK  4 active torsions:
REMARK  status: ('A' for Active; 'I' for Inactive)
REMARK    1  A    between atoms: C_2  and  C_3 
REMARK    2  A    between atoms: C_2  and  O_5 
REMARK    3  A    between atoms: O_5  and  C_6 
REMARK    4  A    between atoms: C_6  and  C_7 
ROOT
HETATM    1  O   LIG     1      17.007  38.152  22.355  1.00  0.00    -0.318 OA
ENDROOT
BRANCH   1   2
HETATM    2  C   LIG     1      18.010  38.156  21.376  1.00  0.00     0.282 C 
HETATM    3  O   LIG     1      18.768  39.153  21.238  1.00  0.00    -0.260 OA
BRANCH   2   4
HETATM    4  C   LIG     1      18.194  36.991  20.499  1.00  0.00     0.072 C 
HETATM    5  C   LIG     1      19.112  36.966  19.536  1.00  0.00     0.017 C 
ENDBRANCH   2   4
ENDBRANCH   1   2
BRANCH   1   6
HETATM    6  C   LIG     1      16.654  37.006  23.130  1.00  0.00     0.182 C 
BRANCH   6   7
HETATM    7  C   LIG     1      17.564  36.870  24.365  1.00  0.00     0.002 C 
HETATM    8  C   LIG     1      17.292  38.011  25.353  1.00  0.00     0.011 C 
HETATM    9  C   LIG     1      17.378  35.515  25.061  1.00  0.00     0.011 C 
ENDBRANCH   6   7
ENDBRANCH   1   6
TORSDOF 4
ENDMDL
MODEL 6
REMARK VINA RESULT:      -4.7      1.926      2.799
REMARK  4 active torsions:
REMARK  status: ('A' for Active; 'I' for Inactive)
REMARK    1  A    between atoms: C_2  and  C_3 
REMARK    2  A    between atoms: C_2  and  O_5 
REMARK    3  A    between atoms: O_5  and  C_6 
REMARK    4  A    between atoms: C_6  and  C_7 
ROOT
HETATM    1  O   LIG     1      17.422  37.077  21.819  1.00  0.00    -0.318 OA
ENDROOT
BRANCH   1   2
HETATM    2  C   LIG     1      17.171  36.743  23.157  1.00  0.00     0.282 C 
HETATM    3  O   LIG     1      17.081  35.537  23.511  1.00  0.00    -0.260 OA
BRANCH   2   4
HETATM    4  C   LIG     1      17.014  37.799  24.168  1.00  0.00     0.072 C 
HETATM    5  C   LIG     1      17.430  37.647  25.423  1.00  0.00     0.017 C 
ENDBRANCH   2   4
ENDBRANCH   1   2
BRANCH   1   6
HETATM    6  C   LIG     1      18.002  38.314  21.402  1.00  0.00     0.182 C 
BRANCH   6   7
HETATM    7  C   LIG     1      18.673  38.175  20.023  1.00  0.00     0.002 C 
HETATM    8  C   LIG     1      19.961  39.005  19.974  1.00  0.00     0.011 C 
HETATM    9  C   LIG     1      18.975  36.711  19.682  1.00  0.00     0.011 C 
ENDBRANCH   6   7
ENDBRANCH   1   6
TORSDOF 4
ENDMDL
MODEL 7
REMARK VINA RESULT:      -4.6      8.397      9.387
REMARK  4 active torsions:
REMARK  status: ('A' for Active; 'I' for Inactive)
REMARK    1  A    between atoms: C_2  and  C_3 
REMARK    2  A    between atoms: C_2  and  O_5 
REMARK    3  A    between atoms: O_5  and  C_6 
REMARK    4  A    between atoms: C_6  and  C_7 
ROOT
HETATM    1  O   LIG     1      15.587  32.503  17.361  1.00  0.00    -0.318 OA
ENDROOT
BRANCH   1   2
HETATM    2  C   LIG     1      14.403  31.895  17.802  1.00  0.00     0.282 C 
HETATM    3  O   LIG     1      14.322  31.417  18.965  1.00  0.00    -0.260 OA
BRANCH   2   4
HETATM    4  C   LIG     1      13.237  31.810  16.911  1.00  0.00     0.072 C 
HETATM    5  C   LIG     1      12.986  30.733  16.172  1.00  0.00     0.017 C 
ENDBRANCH   2   4
ENDBRANCH   1   2
BRANCH   1   6
HETATM    6  C   LIG     1      15.719  33.173  16.107  1.00  0.00     0.182 C 
BRANCH   6   7
HETATM    7  C   LIG     1      16.655  32.401  15.160  1.00  0.00     0.002 C 
HETATM    8  C   LIG     1      15.856  31.803  13.996  1.00  0.00     0.011 C 
HETATM    9  C   LIG     1      17.783  33.292  14.624  1.00  0.00     0.011 C 
ENDBRANCH   6   7
ENDBRANCH   1   6
TORSDOF 4
ENDMDL
MODEL 8
REMARK VINA RESULT:      -4.5      8.262     10.227
REMARK  4 active torsions:
REMARK  status: ('A' for Active; 'I' for Inactive)
REMARK    1  A    between atoms: C_2  and  C_3 
REMARK    2  A    between atoms: C_2  and  O_5 
REMARK    3  A    between atoms: O_5  and  C_6 
REMARK    4  A    between atoms: C_6  and  C_7 
ROOT
HETATM    1  O   LIG     1      15.488  33.159  15.351  1.00  0.00    -0.318 OA
ENDROOT
BRANCH   1   2
HETATM    2  C   LIG     1      16.253  32.133  14.780  1.00  0.00     0.282 C 
HETATM    3  O   LIG     1      17.439  31.931  15.155  1.00  0.00    -0.260 OA
BRANCH   2   4
HETATM    4  C   LIG     1      15.677  31.272  13.737  1.00  0.00     0.072 C 
HETATM    5  C   LIG     1      14.952  30.195  14.025  1.00  0.00     0.017 C 
ENDBRANCH   2   4
ENDBRANCH   1   2
BRANCH   1   6
HETATM    6  C   LIG     1      15.210  33.263  16.748  1.00  0.00     0.182 C 
BRANCH   6   7
HETATM    7  C   LIG     1      14.547  31.979  17.279  1.00  0.00     0.002 C 
HETATM    8  C   LIG     1      14.663  31.914  18.807  1.00  0.00     0.011 C 
HETATM    9  C   LIG     1      13.075  31.883  16.858  1.00  0.00     0.011 C 
ENDBRANCH   6   7
ENDBRANCH   1   6
TORSDOF 4
ENDMDL
MODEL 9
REMARK VINA RESULT:      -4.5      7.718      9.342
REMARK  4 active torsions:
REMARK  status: ('A' for Active; 'I' for Inactive)
REMARK    1  A    between atoms: C_2  and  C_3 
REMARK    2  A    between atoms: C_2  and  O_5 
REMARK    3  A    between atoms: O_5  and  C_6 
REMARK    4  A    between atoms: C_6  and  C_7 
ROOT
HETATM    1  O   LIG     1      13.610  31.083  17.470  1.00  0.00    -0.318 OA
ENDROOT
BRANCH   1   2
HETATM    2  C   LIG     1      14.457  32.068  17.997  1.00  0.00     0.282 C 
HETATM    3  O   LIG     1      14.714  33.111  17.340  1.00  0.00    -0.260 OA
BRANCH   2   4
HETATM    4  C   LIG     1      15.053  31.897  19.329  1.00  0.00     0.072 C 
HETATM    5  C   LIG     1      15.442  32.931  20.071  1.00  0.00     0.017 C 
ENDBRANCH   2   4
ENDBRANCH   1   2
BRANCH   1   6
HETATM    6  C   LIG     1      13.199  31.033  16.103  1.00  0.00     0.182 C 
BRANCH   6   7
HETATM    7  C   LIG     1      14.169  30.184  15.261  1.00  0.00     0.002 C 
HETATM    8  C   LIG     1      13.386  29.262  14.319  1.00  0.00     0.011 C 
HETATM    9  C   LIG     1      15.140  31.058  14.458  1.00  0.00     0.011 C 
ENDBRANCH   6   7
ENDBRANCH   1   6
TORSDOF 4
ENDMDL
MODEL 10
REMARK VINA RESULT:      -4.3      9.649     11.315
REMARK  4 active torsions:
REMARK  status: ('A' for Active; 'I' for Inactive)
REMARK    1  A    between atoms: C_2  and  C_3 
REMARK    2  A    between atoms: C_2  and  O_5 
REMARK    3  A    between atoms: O_5  and  C_6 
REMARK    4  A    between atoms: C_6  and  C_7 
ROOT
HETATM    1  O   LIG     1      17.518  32.500  13.159  1.00  0.00    -0.318 OA
ENDROOT
BRANCH   1   2
HETATM    2  C   LIG     1      18.072  33.784  13.068  1.00  0.00     0.282 C 
HETATM    3  O   LIG     1      17.588  34.741  13.729  1.00  0.00    -0.260 OA
BRANCH   2   4
HETATM    4  C   LIG     1      19.232  34.031  12.199  1.00  0.00     0.072 C 
HETATM    5  C   LIG     1      20.479  34.029  12.664  1.00  0.00     0.017 C 
ENDBRANCH   2   4
ENDBRANCH   1   2
BRANCH   1   6
HETATM    6  C   LIG     1      16.133  32.245  13.398  1.00  0.00     0.182 C 
BRANCH   6   7
HETATM    7  C   LIG     1      15.922  31.561  14.762  1.00  0.00     0.002 C 
HETATM    8  C   LIG     1      15.652  32.612  15.846  1.00  0.00     0.011 C 
HETATM    9  C   LIG     1      14.774  30.544  14.716  1.00  0.00     0.011 C 
ENDBRANCH   6   7
ENDBRANCH   1   6
TORSDOF 4
ENDMDL
MODEL 11
REMARK VINA RESULT:      -4.1      4.786      6.164
REMARK  4 active torsions:
REMARK  status: ('A' for Active; 'I' for Inactive)
REMARK    1  A    between atoms: C_2  and  C_3 
REMARK    2  A    between atoms: C_2  and  O_5 
REMARK    3  A    between atoms: O_5  and  C_6 
REMARK    4  A    between atoms: C_6  and  C_7 
ROOT
HETATM    1  O   LIG     1      14.969  33.068  19.907  1.00  0.00    -0.318 OA
ENDROOT
BRANCH   1   2
HETATM    2  C   LIG     1      15.653  34.249  20.227  1.00  0.00     0.282 C 
HETATM    3  O   LIG     1      16.067  35.018  19.319  1.00  0.00    -0.260 OA
BRANCH   2   4
HETATM    4  C   LIG     1      15.892  34.610  21.632  1.00  0.00     0.072 C 
HETATM    5  C   LIG     1      17.010  35.213  22.030  1.00  0.00     0.017 C 
ENDBRANCH   2   4
ENDBRANCH   1   2
BRANCH   1   6
HETATM    6  C   LIG     1      15.330  32.206  18.827  1.00  0.00     0.182 C 
BRANCH   6   7
HETATM    7  C   LIG     1      14.463  32.480  17.585  1.00  0.00     0.002 C 
HETATM    8  C   LIG     1      15.302  33.147  16.488  1.00  0.00     0.011 C 
HETATM    9  C   LIG     1      13.818  31.196  17.048  1.00  0.00     0.011 C 
ENDBRANCH   6   7
ENDBRANCH   1   6
TORSDOF 4
ENDMDL
MODEL 12
REMARK VINA RESULT:      -4.1      9.982     11.496
REMARK  4 active torsions:
REMARK  status: ('A' for Active; 'I' for Inactive)
REMARK    1  A    between atoms: C_2  and  C_3 
REMARK    2  A    between atoms: C_2  and  O_5 
REMARK    3  A    between atoms: O_5  and  C_6 
REMARK    4  A    between atoms: C_6  and  C_7 
ROOT
HETATM    1  O   LIG     1      19.200  33.527  13.066  1.00  0.00    -0.318 OA
ENDROOT
BRANCH   1   2
HETATM    2  C   LIG     1      18.086  33.859  13.850  1.00  0.00     0.282 C 
HETATM    3  O   LIG     1      17.455  34.930  13.647  1.00  0.00    -0.260 OA
BRANCH   2   4
HETATM    4  C   LIG     1      17.636  32.956  14.919  1.00  0.00     0.072 C 
HETATM    5  C   LIG     1      16.349  32.700  15.136  1.00  0.00     0.017 C 
ENDBRANCH   2   4
ENDBRANCH   1   2
BRANCH   1   6
HETATM    6  C   LIG     1      19.447  34.061  11.765  1.00  0.00     0.182 C 
BRANCH   6   7
HETATM    7  C   LIG     1      20.958  34.192  11.496  1.00  0.00     0.002 C 
HETATM    8  C   LIG     1      21.208  35.163  10.336  1.00  0.00     0.011 C 
HETATM    9  C   LIG     1      21.720  34.654  12.744  1.00  0.00     0.011 C 
ENDBRANCH   6   7
ENDBRANCH   1   6
TORSDOF 4
ENDMDL
MODEL 13
REMARK VINA RESULT:      -4.1      8.632     10.240
REMARK  4 active torsions:
REMARK  status: ('A' for Active; 'I' for Inactive)
REMARK    1  A    between atoms: C_2  and  C_3 
REMARK    2  A    between atoms: C_2  and  O_5 
REMARK    3  A    between atoms: O_5  and  C_6 
REMARK    4  A    between atoms: C_6  and  C_7 
ROOT
HETATM    1  O   LIG     1      16.026  33.067  14.708  1.00  0.00    -0.318 OA
ENDROOT
BRANCH   1   2
HETATM    2  C   LIG     1      17.399  33.101  14.427  1.00  0.00     0.282 C 
HETATM    3  O   LIG     1      18.232  32.608  15.234  1.00  0.00    -0.260 OA
BRANCH   2   4
HETATM    4  C   LIG     1      17.886  33.709  13.181  1.00  0.00     0.072 C 
HETATM    5  C   LIG     1      19.182  33.886  12.937  1.00  0.00     0.017 C 
ENDBRANCH   2   4
ENDBRANCH   1   2
BRANCH   1   6
HETATM    6  C   LIG     1      15.369  31.968  15.340  1.00  0.00     0.182 C 
BRANCH   6   7
HETATM    7  C   LIG     1      14.864  32.354  16.742  1.00  0.00     0.002 C 
HETATM    8  C   LIG     1      14.942  33.873  16.935  1.00  0.00     0.011 C 
HETATM    9  C   LIG     1      13.431  31.864  16.986  1.00  0.00     0.011 C 
ENDBRANCH   6   7
ENDBRANCH   1   6
TORSDOF 4
ENDMDL
MODEL 14
REMARK VINA RESULT:      -4.1      3.872      5.476
REMARK  4 active torsions:
REMARK  status: ('A' for Active; 'I' for Inactive)
REMARK    1  A    between atoms: C_2  and  C_3 
REMARK    2  A    between atoms: C_2  and  O_5 
REMARK    3  A    between atoms: O_5  and  C_6 
REMARK    4  A    between atoms: C_6  and  C_7 
ROOT
HETATM    1  O   LIG     1      15.288  33.851  20.462  1.00  0.00    -0.318 OA
ENDROOT
BRANCH   1   2
HETATM    2  C   LIG     1      15.540  35.112  21.020  1.00  0.00     0.282 C 
HETATM    3  O   LIG     1      14.595  35.822  21.453  1.00  0.00    -0.260 OA
BRANCH   2   4
HETATM    4  C   LIG     1      16.916  35.620  21.111  1.00  0.00     0.072 C 
HETATM    5  C   LIG     1      17.197  36.823  21.606  1.00  0.00     0.017 C 
ENDBRANCH   2   4
ENDBRANCH   1   2
BRANCH   1   6
HETATM    6  C   LIG     1      15.431  33.551  19.073  1.00  0.00     0.182 C 
BRANCH   6   7
HETATM    7  C   LIG     1      15.222  32.049  18.805  1.00  0.00     0.002 C 
HETATM    8  C   LIG     1      14.860  31.323  20.107  1.00  0.00     0.011 C 
HETATM    9  C   LIG     1      14.139  31.806  17.747  1.00  0.00     0.011 C 
ENDBRANCH   6   7
ENDBRANCH   1   6
TORSDOF 4
ENDMDL
MODEL 15
REMARK VINA RESULT:      -4.1      8.849     11.096
REMARK  4 active torsions:
REMARK  status: ('A' for Active; 'I' for Inactive)
REMARK    1  A    between atoms: C_2  and  C_3 
REMARK    2  A    between atoms: C_2  and  O_5 
REMARK    3  A    between atoms: O_5  and  C_6 
REMARK    4  A    between atoms: C_6  and  C_7 
ROOT
HETATM    1  O   LIG     1      14.207  31.192  15.317  1.00  0.00    -0.318 OA
ENDROOT
BRANCH   1   2
HETATM    2  C   LIG     1      15.027  30.360  14.543  1.00  0.00     0.282 C 
HETATM    3  O   LIG     1      16.222  30.681  14.303  1.00  0.00    -0.260 OA
BRANCH   2   4
HETATM    4  C   LIG     1      14.504  29.096  14.005  1.00  0.00     0.072 C 
HETATM    5  C   LIG     1      15.296  28.068  13.712  1.00  0.00     0.017 C 
ENDBRANCH   2   4
ENDBRANCH   1   2
BRANCH   1   6
HETATM    6  C   LIG     1      13.879  30.940  16.684  1.00  0.00     0.182 C 
BRANCH   6   7
HETATM    7  C   LIG     1      14.097  32.195  17.548  1.00  0.00     0.002 C 
HETATM    8  C   LIG     1      14.737  31.812  18.888  1.00  0.00     0.011 C 
HETATM    9  C   LIG     1      14.963  33.237  16.829  1.00  0.00     0.011 C 
ENDBRANCH   6   7
ENDBRANCH   1   6
TORSDOF 4
ENDMDL
MODEL 16
REMARK VINA RESULT:      -3.9      4.752      7.121
REMARK  4 active torsions:
REMARK  status: ('A' for Active; 'I' for Inactive)
REMARK    1  A    between atoms: C_2  and  C_3 
REMARK    2  A    between atoms: C_2  and  O_5 
REMARK    3  A    between atoms: O_5  and  C_6 
REMARK    4  A    between atoms: C_6  and  C_7 
ROOT
HETATM    1  O   LIG     1      15.157  33.074  19.922  1.00  0.00    -0.318 OA
ENDROOT
BRANCH   1   2
HETATM    2  C   LIG     1      14.991  32.759  18.566  1.00  0.00     0.282 C 
HETATM    3  O   LIG     1      15.483  33.495  17.671  1.00  0.00    -0.260 OA
BRANCH   2   4
HETATM    4  C   LIG     1      14.241  31.557  18.171  1.00  0.00     0.072 C 
HETATM    5  C   LIG     1      13.822  31.361  16.924  1.00  0.00     0.017 C 
ENDBRANCH   2   4
ENDBRANCH   1   2
BRANCH   1   6
HETATM    6  C   LIG     1      16.121  34.007  20.410  1.00  0.00     0.182 C 
BRANCH   6   7
HETATM    7  C   LIG     1      15.612  34.721  21.676  1.00  0.00     0.002 C 
HETATM    8  C   LIG     1      16.794  35.220  22.515  1.00  0.00     0.011 C 
HETATM    9  C   LIG     1      14.679  35.889  21.333  1.00  0.00     0.011 C 
ENDBRANCH   6   7
ENDBRANCH   1   6
TORSDOF 4
ENDMDL
MODEL 17
REMARK VINA RESULT:      -3.9      8.566     10.308
REMARK  4 active torsions:
REMARK  status: ('A' for Active; 'I' for Inactive)
REMARK    1  A    between atoms: C_2  and  C_3 
REMARK    2  A    between atoms: C_2  and  O_5 
REMARK    3  A    between atoms: O_5  and  C_6 
REMARK    4  A    between atoms: C_6  and  C_7 
ROOT
HETATM    1  O   LIG     1      14.421  31.269  16.030  1.00  0.00    -0.318 OA
ENDROOT
BRANCH   1   2
HETATM    2  C   LIG     1      14.424  31.772  17.338  1.00  0.00     0.282 C 
HETATM    3  O   LIG     1      13.821  31.162  18.261  1.00  0.00    -0.260 OA
BRANCH   2   4
HETATM    4  C   LIG     1      15.136  33.019  17.652  1.00  0.00     0.072 C 
HETATM    5  C   LIG     1      14.983  34.125  16.928  1.00  0.00     0.017 C 
ENDBRANCH   2   4
ENDBRANCH   1   2
BRANCH   1   6
HETATM    6  C   LIG     1      13.366  30.479  15.482  1.00  0.00     0.182 C 
BRANCH   6   7
HETATM    7  C   LIG     1      13.829  29.732  14.217  1.00  0.00     0.002 C 
HETATM    8  C   LIG     1      15.354  29.572  14.225  1.00  0.00     0.011 C 
HETATM    9  C   LIG     1      13.156  28.360  14.089  1.00  0.00     0.011 C 
ENDBRANCH   6   7
ENDBRANCH   1   6
TORSDOF 4
ENDMDL
MODEL 18
REMARK VINA RESULT:      -3.9      8.303     10.342
REMARK  4 active torsions:
REMARK  status: ('A' for Active; 'I' for Inactive)
REMARK    1  A    between atoms: C_2  and  C_3 
REMARK    2  A    between atoms: C_2  and  O_5 
REMARK    3  A    between atoms: O_5  and  C_6 
REMARK    4  A    between atoms: C_6  and  C_7 
ROOT
HETATM    1  O   LIG     1      14.323  31.512  15.239  1.00  0.00    -0.318 OA
ENDROOT
BRANCH   1   2
HETATM    2  C   LIG     1      15.467  31.189  14.497  1.00  0.00     0.282 C 
HETATM    3  O   LIG     1      15.912  30.011  14.484  1.00  0.00    -0.260 OA
BRANCH   2   4
HETATM    4  C   LIG     1      16.162  32.224  13.718  1.00  0.00     0.072 C 
HETATM    5  C   LIG     1      17.155  32.949  14.228  1.00  0.00     0.017 C 
ENDBRANCH   2   4
ENDBRANCH   1   2
BRANCH   1   6
HETATM    6  C   LIG     1      14.247  31.432  16.662  1.00  0.00     0.182 C 
BRANCH   6   7
HETATM    7  C   LIG     1      15.180  32.460  17.327  1.00  0.00     0.002 C 
HETATM    8  C   LIG     1      14.776  33.883  16.922  1.00  0.00     0.011 C 
HETATM    9  C   LIG     1      15.178  32.326  18.855  1.00  0.00     0.011 C 
ENDBRANCH   6   7
ENDBRANCH   1   6
TORSDOF 4
ENDMDL
MODEL 19
REMARK VINA RESULT:      -3.9     11.853     12.612
REMARK  4 active torsions:
REMARK  status: ('A' for Active; 'I' for Inactive)
REMARK    1  A    between atoms: C_2  and  C_3 
REMARK    2  A    between atoms: C_2  and  O_5 
REMARK    3  A    between atoms: O_5  and  C_6 
REMARK    4  A    between atoms: C_6  and  C_7 
ROOT
HETATM    1  O   LIG     1      21.199  33.808  12.696  1.00  0.00    -0.318 OA
ENDROOT
BRANCH   1   2
HETATM    2  C   LIG     1      22.070  34.886  12.490  1.00  0.00     0.282 C 
HETATM    3  O   LIG     1      22.022  35.556  11.424  1.00  0.00    -0.260 OA
BRANCH   2   4
HETATM    4  C   LIG     1      23.051  35.254  13.521  1.00  0.00     0.072 C 
HETATM    5  C   LIG     1      23.936  36.232  13.342  1.00  0.00     0.017 C 
ENDBRANCH   2   4
ENDBRANCH   1   2
BRANCH   1   6
HETATM    6  C   LIG     1      19.788  33.945  12.871  1.00  0.00     0.182 C 
BRANCH   6   7
HETATM    7  C   LIG     1      19.028  33.544  11.594  1.00  0.00     0.002 C 
HETATM    8  C   LIG     1      18.787  34.774  10.711  1.00  0.00     0.011 C 
HETATM    9  C   LIG     1      19.777  32.465  10.801  1.00  0.00     0.011 C 
ENDBRANCH   6   7
ENDBRANCH   1   6
TORSDOF 4
ENDMDL
MODEL 20
REMARK VINA RESULT:      -3.8     10.789     12.938
REMARK  4 active torsions:
REMARK  status: ('A' for Active; 'I' for Inactive)
REMARK    1  A    between atoms: C_2  and  C_3 
REMARK    2  A    between atoms: C_2  and  O_5 
REMARK    3  A    between atoms: O_5  and  C_6 
REMARK    4  A    between atoms: C_6  and  C_7 
ROOT
HETATM    1  O   LIG     1      13.988  29.347  14.117  1.00  0.00    -0.318 OA
ENDROOT
BRANCH   1   2
HETATM    2  C   LIG     1      14.133  27.999  13.762  1.00  0.00     0.282 C 
HETATM    3  O   LIG     1      13.129  27.243  13.691  1.00  0.00    -0.260 OA
BRANCH   2   4
HETATM    4  C   LIG     1      15.464  27.450  13.462  1.00  0.00     0.072 C 
HETATM    5  C   LIG     1      15.821  27.087  12.233  1.00  0.00     0.017 C 
ENDBRANCH   2   4
ENDBRANCH   1   2
BRANCH   1   6
HETATM    6  C   LIG     1      15.077  30.198  14.477  1.00  0.00     0.182 C 
BRANCH   6   7
HETATM    7  C   LIG     1      14.590  31.407  15.297  1.00  0.00     0.002 C 
HETATM    8  C   LIG     1      13.738  30.935  16.481  1.00  0.00     0.011 C 
HETATM    9  C   LIG     1      15.761  32.262  15.798  1.00  0.00     0.011 C 
ENDBRANCH   6   7
ENDBRANCH   1   6
TORSDOF 4
ENDMDL
