MODEL 1
REMARK VINA RESULT:      -3.4      0.000      0.000
REMARK  1 active torsions:
REMARK  status: ('A' for Active; 'I' for Inactive)
REMARK    1  A    between atoms: C_2  and  C_3 
ROOT
HETATM    1  C   LIG     1      17.412  34.861  25.676  1.00  0.00     0.007 C 
HETATM    2  C   LIG     1      18.216  35.558  26.483  1.00  0.00    -0.026 C 
ENDROOT
BRANCH   2   3
HETATM    3  C   LIG     1      18.651  36.952  26.144  1.00  0.00     0.111 C 
HETATM    4 BR   LIG     1      17.293  37.854  25.095  1.00  0.00    -0.092 Br
ENDBRANCH   2   3
TORSDOF 1
ENDMDL
MODEL 2
REMARK VINA RESULT:      -3.2      2.099      2.416
REMARK  1 active torsions:
REMARK  status: ('A' for Active; 'I' for Inactive)
REMARK    1  A    between atoms: C_2  and  C_3 
ROOT
HETATM    1  C   LIG     1      17.017  37.246  24.360  1.00  0.00     0.007 C 
HETATM    2  C   LIG     1      17.801  37.688  25.347  1.00  0.00    -0.026 C 
ENDROOT
BRANCH   2   3
HETATM    3  C   LIG     1      18.395  36.752  26.356  1.00  0.00     0.111 C 
HETATM    4 BR   LIG     1      17.761  34.944  26.064  1.00  0.00    -0.092 Br
ENDBRANCH   2   3
TORSDOF 1
ENDMDL
MODEL 3
REMARK VINA RESULT:      -3.0      5.792      6.292
REMARK  1 active torsions:
REMARK  status: ('A' for Active; 'I' for Inactive)
REMARK    1  A    between atoms: C_2  and  C_3 
ROOT
HETATM    1  C   LIG     1      18.556  39.087  22.080  1.00  0.00     0.007 C 
HETATM    2  C   LIG     1      18.796  39.520  20.840  1.00  0.00    -0.026 C 
ENDROOT
BRANCH   2   3
HETATM    3  C   LIG     1      19.731  38.791  19.922  1.00  0.00     0.111 C 
HETATM    4 BR   LIG     1      19.032  37.035  19.491  1.00  0.00    -0.092 Br
ENDBRANCH   2   3
TORSDOF 1
ENDMDL
MODEL 4
REMARK VINA RESULT:      -3.0      6.119      6.196
REMARK  1 active torsions:
REMARK  status: ('A' for Active; 'I' for Inactive)
REMARK    1  A    between atoms: C_2  and  C_3 
ROOT
HETATM    1  C   LIG     1      18.830  36.976  19.486  1.00  0.00     0.007 C 
HETATM    2  C   LIG     1      19.574  38.075  19.632  1.00  0.00    -0.026 C 
ENDROOT
BRANCH   2   3
HETATM    3  C   LIG     1      18.998  39.345  20.183  1.00  0.00     0.111 C 
HETATM    4 BR   LIG     1      18.254  39.048  21.947  1.00  0.00    -0.092 Br
ENDBRANCH   2   3
TORSDOF 1
ENDMDL
MODEL 5
REMARK VINA RESULT:      -3.0      2.907      3.447
REMARK  1 active torsions:
REMARK  status: ('A' for Active; 'I' for Inactive)
REMARK    1  A    between atoms: C_2  and  C_3 
ROOT
HETATM    1  C   LIG     1      17.017  38.869  22.771  1.00  0.00     0.007 C 
HETATM    2  C   LIG     1      17.724  38.282  23.741  1.00  0.00    -0.026 C 
ENDROOT
BRANCH   2   3
HETATM    3  C   LIG     1      17.076  37.807  25.007  1.00  0.00     0.111 C 
HETATM    4 BR   LIG     1      18.326  36.771  26.065  1.00  0.00    -0.092 Br
ENDBRANCH   2   3
TORSDOF 1
ENDMDL
MODEL 6
REMARK VINA RESULT:      -3.0      2.741      3.098
REMARK  1 active torsions:
REMARK  status: ('A' for Active; 'I' for Inactive)
REMARK    1  A    between atoms: C_2  and  C_3 
ROOT
HETATM    1  C   LIG     1      16.565  35.492  22.239  1.00  0.00     0.007 C 
HETATM    2  C   LIG     1      17.092  35.088  23.397  1.00  0.00    -0.026 C 
ENDROOT
BRANCH   2   3
HETATM    3  C   LIG     1      17.259  36.027  24.554  1.00  0.00     0.111 C 
HETATM    4 BR   LIG     1      17.867  35.070  26.126  1.00  0.00    -0.092 Br
ENDBRANCH   2   3
TORSDOF 1
ENDMDL
MODEL 7
REMARK VINA RESULT:      -2.8      5.062      5.185
REMARK  1 active torsions:
REMARK  status: ('A' for Active; 'I' for Inactive)
REMARK    1  A    between atoms: C_2  and  C_3 
ROOT
HETATM    1  C   LIG     1      17.377  37.202  21.532  1.00  0.00     0.007 C 
HETATM    2  C   LIG     1      17.406  38.452  22.001  1.00  0.00    -0.026 C 
ENDROOT
BRANCH   2   3
HETATM    3  C   LIG     1      18.590  39.345  21.778  1.00  0.00     0.111 C 
HETATM    4 BR   LIG     1      19.431  38.951  20.077  1.00  0.00    -0.092 Br
ENDBRANCH   2   3
TORSDOF 1
ENDMDL
MODEL 8
REMARK VINA RESULT:      -2.7     13.398     13.486
REMARK  1 active torsions:
REMARK  status: ('A' for Active; 'I' for Inactive)
REMARK    1  A    between atoms: C_2  and  C_3 
ROOT
HETATM    1  C   LIG     1      15.412  30.789  13.539  1.00  0.00     0.007 C 
HETATM    2  C   LIG     1      14.899  29.720  14.154  1.00  0.00    -0.026 C 
ENDROOT
BRANCH   2   3
HETATM    3  C   LIG     1      13.456  29.663  14.556  1.00  0.00     0.111 C 
HETATM    4 BR   LIG     1      13.141  30.760  16.123  1.00  0.00    -0.092 Br
ENDBRANCH   2   3
TORSDOF 1
ENDMDL
MODEL 9
REMARK VINA RESULT:      -2.7      9.639     10.348
REMARK  1 active torsions:
REMARK  status: ('A' for Active; 'I' for Inactive)
REMARK    1  A    between atoms: C_2  and  C_3 
ROOT
HETATM    1  C   LIG     1      13.457  30.837  16.132  1.00  0.00     0.007 C 
HETATM    2  C   LIG     1      13.514  31.787  17.069  1.00  0.00    -0.026 C 
ENDROOT
BRANCH   2   3
HETATM    3  C   LIG     1      14.813  32.419  17.467  1.00  0.00     0.111 C 
HETATM    4 BR   LIG     1      15.144  32.164  19.360  1.00  0.00    -0.092 Br
ENDBRANCH   2   3
TORSDOF 1
ENDMDL
MODEL 10
REMARK VINA RESULT:      -2.7      4.262      4.724
REMARK  1 active torsions:
REMARK  status: ('A' for Active; 'I' for Inactive)
REMARK    1  A    between atoms: C_2  and  C_3 
ROOT
HETATM    1  C   LIG     1      17.939  38.764  21.504  1.00  0.00     0.007 C 
HETATM    2  C   LIG     1      17.436  38.170  22.589  1.00  0.00    -0.026 C 
ENDROOT
BRANCH   2   3
HETATM    3  C   LIG     1      16.263  37.239  22.501  1.00  0.00     0.111 C 
HETATM    4 BR   LIG     1      16.858  35.425  22.163  1.00  0.00    -0.092 Br
ENDBRANCH   2   3
TORSDOF 1
ENDMDL
MODEL 11
REMARK VINA RESULT:      -2.7      7.373      7.570
REMARK  1 active torsions:
REMARK  status: ('A' for Active; 'I' for Inactive)
REMARK    1  A    between atoms: C_2  and  C_3 
ROOT
HETATM    1  C   LIG     1      19.133  36.884  19.592  1.00  0.00     0.007 C 
HETATM    2  C   LIG     1      19.671  38.084  19.358  1.00  0.00    -0.026 C 
ENDROOT
BRANCH   2   3
HETATM    3  C   LIG     1      18.823  39.268  19.001  1.00  0.00     0.111 C 
HETATM    4 BR   LIG     1      18.840  39.565  17.085  1.00  0.00    -0.092 Br
ENDBRANCH   2   3
TORSDOF 1
ENDMDL
MODEL 12
REMARK VINA RESULT:      -2.6      3.684      3.856
REMARK  1 active torsions:
REMARK  status: ('A' for Active; 'I' for Inactive)
REMARK    1  A    between atoms: C_2  and  C_3 
ROOT
HETATM    1  C   LIG     1      17.178  36.302  21.440  1.00  0.00     0.007 C 
HETATM    2  C   LIG     1      17.136  37.486  22.056  1.00  0.00    -0.026 C 
ENDROOT
BRANCH   2   3
HETATM    3  C   LIG     1      16.243  37.726  23.236  1.00  0.00     0.111 C 
HETATM    4 BR   LIG     1      17.278  37.783  24.874  1.00  0.00    -0.092 Br
ENDBRANCH   2   3
TORSDOF 1
ENDMDL
MODEL 13
REMARK VINA RESULT:      -2.6      5.500      5.715
REMARK  1 active torsions:
REMARK  status: ('A' for Active; 'I' for Inactive)
REMARK    1  A    between atoms: C_2  and  C_3 
ROOT
HETATM    1  C   LIG     1      18.803  37.142  19.336  1.00  0.00     0.007 C 
HETATM    2  C   LIG     1      18.706  37.876  20.447  1.00  0.00    -0.026 C 
ENDROOT
BRANCH   2   3
HETATM    3  C   LIG     1      17.605  37.653  21.441  1.00  0.00     0.111 C 
HETATM    4 BR   LIG     1      17.066  35.791  21.453  1.00  0.00    -0.092 Br
ENDBRANCH   2   3
TORSDOF 1
ENDMDL
MODEL 14
REMARK VINA RESULT:      -2.6      4.397      4.656
REMARK  1 active torsions:
REMARK  status: ('A' for Active; 'I' for Inactive)
REMARK    1  A    between atoms: C_2  and  C_3 
ROOT
HETATM    1  C   LIG     1      16.811  36.260  22.618  1.00  0.00     0.007 C 
HETATM    2  C   LIG     1      17.203  35.844  21.411  1.00  0.00    -0.026 C 
ENDROOT
BRANCH   2   3
HETATM    3  C   LIG     1      18.010  36.721  20.502  1.00  0.00     0.111 C 
HETATM    4 BR   LIG     1      18.218  38.489  21.269  1.00  0.00    -0.092 Br
ENDBRANCH   2   3
TORSDOF 1
ENDMDL
MODEL 15
REMARK VINA RESULT:      -2.6      5.906      6.400
REMARK  1 active torsions:
REMARK  status: ('A' for Active; 'I' for Inactive)
REMARK    1  A    between atoms: C_2  and  C_3 
ROOT
HETATM    1  C   LIG     1      15.340  32.543  19.330  1.00  0.00     0.007 C 
HETATM    2  C   LIG     1      15.368  33.338  20.402  1.00  0.00    -0.026 C 
ENDROOT
BRANCH   2   3
HETATM    3  C   LIG     1      15.834  34.760  20.313  1.00  0.00     0.111 C 
HETATM    4 BR   LIG     1      16.820  35.255  21.907  1.00  0.00    -0.092 Br
ENDBRANCH   2   3
TORSDOF 1
ENDMDL
MODEL 16
REMARK VINA RESULT:      -2.5      3.508      3.841
REMARK  1 active torsions:
REMARK  status: ('A' for Active; 'I' for Inactive)
REMARK    1  A    between atoms: C_2  and  C_3 
ROOT
HETATM    1  C   LIG     1      17.609  37.748  24.591  1.00  0.00     0.007 C 
HETATM    2  C   LIG     1      17.001  37.562  23.417  1.00  0.00    -0.026 C 
ENDROOT
BRANCH   2   3
HETATM    3  C   LIG     1      16.912  38.658  22.397  1.00  0.00     0.111 C 
HETATM    4 BR   LIG     1      18.680  39.164  21.785  1.00  0.00    -0.092 Br
ENDBRANCH   2   3
TORSDOF 1
ENDMDL
MODEL 17
REMARK VINA RESULT:      -2.5     11.998     12.310
REMARK  1 active torsions:
REMARK  status: ('A' for Active; 'I' for Inactive)
REMARK    1  A    between atoms: C_2  and  C_3 
ROOT
HETATM    1  C   LIG     1      13.507  30.892  16.305  1.00  0.00     0.007 C 
HETATM    2  C   LIG     1      14.590  31.667  16.198  1.00  0.00    -0.026 C 
ENDROOT
BRANCH   2   3
HETATM    3  C   LIG     1      15.490  31.596  15.001  1.00  0.00     0.111 C 
HETATM    4 BR   LIG     1      15.110  30.008  13.956  1.00  0.00    -0.092 Br
ENDBRANCH   2   3
TORSDOF 1
ENDMDL
MODEL 18
REMARK VINA RESULT:      -2.5      4.750      5.170
REMARK  1 active torsions:
REMARK  status: ('A' for Active; 'I' for Inactive)
REMARK    1  A    between atoms: C_2  and  C_3 
ROOT
HETATM    1  C   LIG     1      16.974  35.173  22.914  1.00  0.00     0.007 C 
HETATM    2  C   LIG     1      17.036  36.027  21.888  1.00  0.00    -0.026 C 
ENDROOT
BRANCH   2   3
HETATM    3  C   LIG     1      16.596  35.631  20.510  1.00  0.00     0.111 C 
HETATM    4 BR   LIG     1      15.625  33.954  20.560  1.00  0.00    -0.092 Br
ENDBRANCH   2   3
TORSDOF 1
ENDMDL
MODEL 19
REMARK VINA RESULT:      -2.5      9.403      9.690
REMARK  1 active torsions:
REMARK  status: ('A' for Active; 'I' for Inactive)
REMARK    1  A    between atoms: C_2  and  C_3 
ROOT
HETATM    1  C   LIG     1      15.040  34.117  16.990  1.00  0.00     0.007 C 
HETATM    2  C   LIG     1      14.766  32.832  16.754  1.00  0.00    -0.026 C 
ENDROOT
BRANCH   2   3
HETATM    3  C   LIG     1      14.305  31.914  17.846  1.00  0.00     0.111 C 
HETATM    4 BR   LIG     1      15.283  32.260  19.484  1.00  0.00    -0.092 Br
ENDBRANCH   2   3
TORSDOF 1
ENDMDL
