MODEL 1
REMARK VINA RESULT:      -6.2      0.000      0.000
REMARK  1 active torsions:
REMARK  status: ('A' for Active; 'I' for Inactive)
REMARK    1  A    between atoms: O_1  and  C_2 
ROOT
HETATM    1  C   LIG     1      19.665  38.762  19.757  1.00  0.00     0.065 A 
HETATM    2  C   LIG     1      18.983  39.397  20.800  1.00  0.00     0.037 A 
HETATM    3  C   LIG     1      18.006  38.707  21.525  1.00  0.00     0.009 A 
HETATM    4  C   LIG     1      17.695  37.376  21.203  1.00  0.00    -0.062 A 
HETATM    5  C   LIG     1      16.676  36.623  22.005  1.00  0.00     0.048 C 
HETATM    6  C   LIG     1      18.394  36.737  20.167  1.00  0.00     0.009 A 
HETATM    7  C   LIG     1      19.370  37.429  19.443  1.00  0.00     0.037 A 
ENDROOT
BRANCH   1   8
HETATM    8  O   LIG     1      20.636  39.462  19.044  1.00  0.00    -0.361 OA
HETATM    9  H   LIG     1      20.509  39.694  18.065  1.00  0.00     0.217 HD
ENDBRANCH   1   8
TORSDOF 1
ENDMDL
MODEL 2
REMARK VINA RESULT:      -5.9      2.699      3.987
REMARK  1 active torsions:
REMARK  status: ('A' for Active; 'I' for Inactive)
REMARK    1  A    between atoms: O_1  and  C_2 
ROOT
HETATM    1  C   LIG     1      16.296  37.800  22.674  1.00  0.00     0.065 A 
HETATM    2  C   LIG     1      16.311  36.538  22.071  1.00  0.00     0.037 A 
HETATM    3  C   LIG     1      17.237  36.251  21.063  1.00  0.00     0.009 A 
HETATM    4  C   LIG     1      18.150  37.231  20.641  1.00  0.00    -0.062 A 
HETATM    5  C   LIG     1      19.169  36.911  19.589  1.00  0.00     0.048 C 
HETATM    6  C   LIG     1      18.144  38.491  21.261  1.00  0.00     0.009 A 
HETATM    7  C   LIG     1      17.216  38.776  22.268  1.00  0.00     0.037 A 
ENDROOT
BRANCH   1   8
HETATM    8  O   LIG     1      15.368  38.072  23.677  1.00  0.00    -0.361 OA
HETATM    9  H   LIG     1      15.246  37.451  24.468  1.00  0.00     0.217 HD
ENDBRANCH   1   8
TORSDOF 1
ENDMDL
MODEL 3
REMARK VINA RESULT:      -5.9      3.982      4.902
REMARK  1 active torsions:
REMARK  status: ('A' for Active; 'I' for Inactive)
REMARK    1  A    between atoms: O_1  and  C_2 
ROOT
HETATM    1  C   LIG     1      16.857  37.904  23.841  1.00  0.00     0.065 A 
HETATM    2  C   LIG     1      17.369  38.195  25.110  1.00  0.00     0.037 A 
HETATM    3  C   LIG     1      17.823  37.163  25.938  1.00  0.00     0.009 A 
HETATM    4  C   LIG     1      17.758  35.829  25.507  1.00  0.00    -0.062 A 
HETATM    5  C   LIG     1      18.282  34.727  26.379  1.00  0.00     0.048 C 
HETATM    6  C   LIG     1      17.259  35.542  24.226  1.00  0.00     0.009 A 
HETATM    7  C   LIG     1      16.805  36.575  23.400  1.00  0.00     0.037 A 
ENDROOT
BRANCH   1   8
HETATM    8  O   LIG     1      16.407  38.941  23.027  1.00  0.00    -0.361 OA
HETATM    9  H   LIG     1      15.790  39.663  23.382  1.00  0.00     0.217 HD
ENDBRANCH   1   8
TORSDOF 1
ENDMDL
MODEL 4
REMARK VINA RESULT:      -5.6      2.317      3.393
REMARK  1 active torsions:
REMARK  status: ('A' for Active; 'I' for Inactive)
REMARK    1  A    between atoms: O_1  and  C_2 
ROOT
HETATM    1  C   LIG     1      17.177  37.210  21.677  1.00  0.00     0.065 A 
HETATM    2  C   LIG     1      17.628  38.510  21.931  1.00  0.00     0.037 A 
HETATM    3  C   LIG     1      18.654  39.062  21.158  1.00  0.00     0.009 A 
HETATM    4  C   LIG     1      19.246  38.313  20.129  1.00  0.00    -0.062 A 
HETATM    5  C   LIG     1      20.318  38.919  19.274  1.00  0.00     0.048 C 
HETATM    6  C   LIG     1      18.780  37.015  19.866  1.00  0.00     0.009 A 
HETATM    7  C   LIG     1      17.754  36.464  20.641  1.00  0.00     0.037 A 
ENDROOT
BRANCH   1   8
HETATM    8  O   LIG     1      16.155  36.672  22.456  1.00  0.00    -0.361 OA
HETATM    9  H   LIG     1      15.421  37.255  22.842  1.00  0.00     0.217 HD
ENDBRANCH   1   8
TORSDOF 1
ENDMDL
MODEL 5
REMARK VINA RESULT:      -5.5      3.902      4.638
REMARK  1 active torsions:
REMARK  status: ('A' for Active; 'I' for Inactive)
REMARK    1  A    between atoms: O_1  and  C_2 
ROOT
HETATM    1  C   LIG     1      17.269  37.489  24.796  1.00  0.00     0.065 A 
HETATM    2  C   LIG     1      16.939  38.000  23.536  1.00  0.00     0.037 A 
HETATM    3  C   LIG     1      16.716  37.133  22.462  1.00  0.00     0.009 A 
HETATM    4  C   LIG     1      16.834  35.745  22.637  1.00  0.00    -0.062 A 
HETATM    5  C   LIG     1      16.556  34.813  21.495  1.00  0.00     0.048 C 
HETATM    6  C   LIG     1      17.149  35.235  23.907  1.00  0.00     0.009 A 
HETATM    7  C   LIG     1      17.372  36.104  24.979  1.00  0.00     0.037 A 
ENDROOT
BRANCH   1   8
HETATM    8  O   LIG     1      17.489  38.365  25.857  1.00  0.00    -0.361 OA
HETATM    9  H   LIG     1      18.335  38.920  25.918  1.00  0.00     0.217 HD
ENDBRANCH   1   8
TORSDOF 1
ENDMDL
MODEL 6
REMARK VINA RESULT:      -5.4      1.342      2.365
REMARK  1 active torsions:
REMARK  status: ('A' for Active; 'I' for Inactive)
REMARK    1  A    between atoms: O_1  and  C_2 
ROOT
HETATM    1  C   LIG     1      18.386  38.746  21.186  1.00  0.00     0.065 A 
HETATM    2  C   LIG     1      18.698  37.766  20.238  1.00  0.00     0.037 A 
HETATM    3  C   LIG     1      18.081  36.512  20.293  1.00  0.00     0.009 A 
HETATM    4  C   LIG     1      17.153  36.224  21.307  1.00  0.00    -0.062 A 
HETATM    5  C   LIG     1      16.462  34.894  21.344  1.00  0.00     0.048 C 
HETATM    6  C   LIG     1      16.830  37.216  22.247  1.00  0.00     0.009 A 
HETATM    7  C   LIG     1      17.449  38.469  22.190  1.00  0.00     0.037 A 
ENDROOT
BRANCH   1   8
HETATM    8  O   LIG     1      19.009  39.991  21.118  1.00  0.00    -0.361 OA
HETATM    9  H   LIG     1      18.677  40.779  21.663  1.00  0.00     0.217 HD
ENDBRANCH   1   8
TORSDOF 1
ENDMDL
MODEL 7
REMARK VINA RESULT:      -5.4      4.267      5.324
REMARK  1 active torsions:
REMARK  status: ('A' for Active; 'I' for Inactive)
REMARK    1  A    between atoms: O_1  and  C_2 
ROOT
HETATM    1  C   LIG     1      17.578  35.659  25.390  1.00  0.00     0.065 A 
HETATM    2  C   LIG     1      17.787  36.990  25.768  1.00  0.00     0.037 A 
HETATM    3  C   LIG     1      17.568  38.024  24.852  1.00  0.00     0.009 A 
HETATM    4  C   LIG     1      17.149  37.733  23.544  1.00  0.00    -0.062 A 
HETATM    5  C   LIG     1      16.877  38.843  22.573  1.00  0.00     0.048 C 
HETATM    6  C   LIG     1      16.925  36.398  23.173  1.00  0.00     0.009 A 
HETATM    7  C   LIG     1      17.145  35.365  24.090  1.00  0.00     0.037 A 
ENDROOT
BRANCH   1   8
HETATM    8  O   LIG     1      17.801  34.640  26.313  1.00  0.00    -0.361 OA
HETATM    9  H   LIG     1      18.705  34.190  26.397  1.00  0.00     0.217 HD
ENDBRANCH   1   8
TORSDOF 1
ENDMDL
MODEL 8
REMARK VINA RESULT:      -5.3      4.032      4.718
REMARK  1 active torsions:
REMARK  status: ('A' for Active; 'I' for Inactive)
REMARK    1  A    between atoms: O_1  and  C_2 
ROOT
HETATM    1  C   LIG     1      16.910  37.457  24.519  1.00  0.00     0.065 A 
HETATM    2  C   LIG     1      17.277  36.118  24.694  1.00  0.00     0.037 A 
HETATM    3  C   LIG     1      17.120  35.204  23.648  1.00  0.00     0.009 A 
HETATM    4  C   LIG     1      16.583  35.620  22.419  1.00  0.00    -0.062 A 
HETATM    5  C   LIG     1      16.452  34.648  21.284  1.00  0.00     0.048 C 
HETATM    6  C   LIG     1      16.232  36.967  22.242  1.00  0.00     0.009 A 
HETATM    7  C   LIG     1      16.388  37.880  23.289  1.00  0.00     0.037 A 
ENDROOT
BRANCH   1   8
HETATM    8  O   LIG     1      17.071  38.357  25.570  1.00  0.00    -0.361 OA
HETATM    9  H   LIG     1      17.136  39.355  25.407  1.00  0.00     0.217 HD
ENDBRANCH   1   8
TORSDOF 1
ENDMDL
MODEL 9
REMARK VINA RESULT:      -5.2      7.909      8.966
REMARK  1 active torsions:
REMARK  status: ('A' for Active; 'I' for Inactive)
REMARK    1  A    between atoms: O_1  and  C_2 
ROOT
HETATM    1  C   LIG     1      14.924  32.890  17.023  1.00  0.00     0.065 A 
HETATM    2  C   LIG     1      15.778  32.685  15.935  1.00  0.00     0.037 A 
HETATM    3  C   LIG     1      15.542  31.633  15.045  1.00  0.00     0.009 A 
HETATM    4  C   LIG     1      14.454  30.768  15.243  1.00  0.00    -0.062 A 
HETATM    5  C   LIG     1      14.178  29.664  14.267  1.00  0.00     0.048 C 
HETATM    6  C   LIG     1      13.589  30.987  16.327  1.00  0.00     0.009 A 
HETATM    7  C   LIG     1      13.827  32.040  17.217  1.00  0.00     0.037 A 
ENDROOT
BRANCH   1   8
HETATM    8  O   LIG     1      15.171  33.942  17.903  1.00  0.00    -0.361 OA
HETATM    9  H   LIG     1      14.747  33.974  18.823  1.00  0.00     0.217 HD
ENDBRANCH   1   8
TORSDOF 1
ENDMDL
MODEL 10
REMARK VINA RESULT:      -5.1      9.644     10.667
REMARK  1 active torsions:
REMARK  status: ('A' for Active; 'I' for Inactive)
REMARK    1  A    between atoms: O_1  and  C_2 
ROOT
HETATM    1  C   LIG     1      13.487  29.587  14.476  1.00  0.00     0.065 A 
HETATM    2  C   LIG     1      13.035  30.322  15.577  1.00  0.00     0.037 A 
HETATM    3  C   LIG     1      13.823  31.349  16.108  1.00  0.00     0.009 A 
HETATM    4  C   LIG     1      15.076  31.641  15.548  1.00  0.00    -0.062 A 
HETATM    5  C   LIG     1      15.903  32.768  16.092  1.00  0.00     0.048 C 
HETATM    6  C   LIG     1      15.519  30.913  14.432  1.00  0.00     0.009 A 
HETATM    7  C   LIG     1      14.730  29.886  13.903  1.00  0.00     0.037 A 
ENDROOT
BRANCH   1   8
HETATM    8  O   LIG     1      12.693  28.567  13.957  1.00  0.00    -0.361 OA
HETATM    9  H   LIG     1      12.917  27.591  14.112  1.00  0.00     0.217 HD
ENDBRANCH   1   8
TORSDOF 1
ENDMDL
MODEL 11
REMARK VINA RESULT:      -5.1      8.496      9.580
REMARK  1 active torsions:
REMARK  status: ('A' for Active; 'I' for Inactive)
REMARK    1  A    between atoms: O_1  and  C_2 
ROOT
HETATM    1  C   LIG     1      13.464  30.883  16.244  1.00  0.00     0.065 A 
HETATM    2  C   LIG     1      13.964  31.979  16.955  1.00  0.00     0.037 A 
HETATM    3  C   LIG     1      15.128  32.624  16.526  1.00  0.00     0.009 A 
HETATM    4  C   LIG     1      15.810  32.170  15.385  1.00  0.00    -0.062 A 
HETATM    5  C   LIG     1      17.035  32.886  14.902  1.00  0.00     0.048 C 
HETATM    6  C   LIG     1      15.295  31.080  14.664  1.00  0.00     0.009 A 
HETATM    7  C   LIG     1      14.132  30.436  15.096  1.00  0.00     0.037 A 
ENDROOT
BRANCH   1   8
HETATM    8  O   LIG     1      12.304  30.250  16.683  1.00  0.00    -0.361 OA
HETATM    9  H   LIG     1      11.827  30.545  17.528  1.00  0.00     0.217 HD
ENDBRANCH   1   8
TORSDOF 1
ENDMDL
MODEL 12
REMARK VINA RESULT:      -5.1      9.651     10.765
REMARK  1 active torsions:
REMARK  status: ('A' for Active; 'I' for Inactive)
REMARK    1  A    between atoms: O_1  and  C_2 
ROOT
HETATM    1  C   LIG     1      13.477  29.587  14.478  1.00  0.00     0.065 A 
HETATM    2  C   LIG     1      14.718  29.866  13.897  1.00  0.00     0.037 A 
HETATM    3  C   LIG     1      15.523  30.887  14.414  1.00  0.00     0.009 A 
HETATM    4  C   LIG     1      15.086  31.645  15.511  1.00  0.00    -0.062 A 
HETATM    5  C   LIG     1      15.967  32.712  16.090  1.00  0.00     0.048 C 
HETATM    6  C   LIG     1      13.848  31.351  16.103  1.00  0.00     0.009 A 
HETATM    7  C   LIG     1      13.044  30.331  15.584  1.00  0.00     0.037 A 
ENDROOT
BRANCH   1   8
HETATM    8  O   LIG     1      12.685  28.568  13.953  1.00  0.00    -0.361 OA
HETATM    9  H   LIG     1      11.685  28.683  13.833  1.00  0.00     0.217 HD
ENDBRANCH   1   8
TORSDOF 1
ENDMDL
MODEL 13
REMARK VINA RESULT:      -5.1      2.652      4.027
REMARK  1 active torsions:
REMARK  status: ('A' for Active; 'I' for Inactive)
REMARK    1  A    between atoms: O_1  and  C_2 
ROOT
HETATM    1  C   LIG     1      16.715  36.141  21.717  1.00  0.00     0.065 A 
HETATM    2  C   LIG     1      17.558  35.984  20.612  1.00  0.00     0.037 A 
HETATM    3  C   LIG     1      18.378  37.039  20.198  1.00  0.00     0.009 A 
HETATM    4  C   LIG     1      18.353  38.265  20.881  1.00  0.00    -0.062 A 
HETATM    5  C   LIG     1      19.261  39.382  20.462  1.00  0.00     0.048 C 
HETATM    6  C   LIG     1      17.518  38.413  22.000  1.00  0.00     0.009 A 
HETATM    7  C   LIG     1      16.698  37.357  22.412  1.00  0.00     0.037 A 
ENDROOT
BRANCH   1   8
HETATM    8  O   LIG     1      15.903  35.082  22.117  1.00  0.00    -0.361 OA
HETATM    9  H   LIG     1      14.992  35.241  22.531  1.00  0.00     0.217 HD
ENDBRANCH   1   8
TORSDOF 1
ENDMDL
MODEL 14
REMARK VINA RESULT:      -5.0      8.663      9.617
REMARK  1 active torsions:
REMARK  status: ('A' for Active; 'I' for Inactive)
REMARK    1  A    between atoms: O_1  and  C_2 
ROOT
HETATM    1  C   LIG     1      16.184  31.833  13.756  1.00  0.00     0.065 A 
HETATM    2  C   LIG     1      15.363  30.731  13.495  1.00  0.00     0.037 A 
HETATM    3  C   LIG     1      14.409  30.327  14.435  1.00  0.00     0.009 A 
HETATM    4  C   LIG     1      14.277  31.017  15.651  1.00  0.00    -0.062 A 
HETATM    5  C   LIG     1      13.228  30.609  16.641  1.00  0.00     0.048 C 
HETATM    6  C   LIG     1      15.091  32.133  15.901  1.00  0.00     0.009 A 
HETATM    7  C   LIG     1      16.045  32.535  14.960  1.00  0.00     0.037 A 
ENDROOT
BRANCH   1   8
HETATM    8  O   LIG     1      17.131  32.224  12.811  1.00  0.00    -0.361 OA
HETATM    9  H   LIG     1      16.926  32.207  11.818  1.00  0.00     0.217 HD
ENDBRANCH   1   8
TORSDOF 1
ENDMDL
MODEL 15
REMARK VINA RESULT:      -4.8      9.099     10.192
REMARK  1 active torsions:
REMARK  status: ('A' for Active; 'I' for Inactive)
REMARK    1  A    between atoms: O_1  and  C_2 
ROOT
HETATM    1  C   LIG     1      13.669  31.649  16.582  1.00  0.00     0.065 A 
HETATM    2  C   LIG     1      14.949  31.997  16.138  1.00  0.00     0.037 A 
HETATM    3  C   LIG     1      15.536  31.306  15.073  1.00  0.00     0.009 A 
HETATM    4  C   LIG     1      14.850  30.250  14.450  1.00  0.00    -0.062 A 
HETATM    5  C   LIG     1      15.463  29.535  13.284  1.00  0.00     0.048 C 
HETATM    6  C   LIG     1      13.559  29.915  14.888  1.00  0.00     0.009 A 
HETATM    7  C   LIG     1      12.974  30.607  15.953  1.00  0.00     0.037 A 
ENDROOT
BRANCH   1   8
HETATM    8  O   LIG     1      13.096  32.346  17.644  1.00  0.00    -0.361 OA
HETATM    9  H   LIG     1      13.234  33.344  17.757  1.00  0.00     0.217 HD
ENDBRANCH   1   8
TORSDOF 1
ENDMDL
MODEL 16
REMARK VINA RESULT:      -4.8      8.542      9.474
REMARK  1 active torsions:
REMARK  status: ('A' for Active; 'I' for Inactive)
REMARK    1  A    between atoms: O_1  and  C_2 
ROOT
HETATM    1  C   LIG     1      15.823  32.683  15.210  1.00  0.00     0.065 A 
HETATM    2  C   LIG     1      14.909  32.135  16.117  1.00  0.00     0.037 A 
HETATM    3  C   LIG     1      14.226  30.956  15.801  1.00  0.00     0.009 A 
HETATM    4  C   LIG     1      14.443  30.321  14.568  1.00  0.00    -0.062 A 
HETATM    5  C   LIG     1      13.739  29.037  14.246  1.00  0.00     0.048 C 
HETATM    6  C   LIG     1      15.373  30.865  13.668  1.00  0.00     0.009 A 
HETATM    7  C   LIG     1      16.055  32.044  13.985  1.00  0.00     0.037 A 
ENDROOT
BRANCH   1   8
HETATM    8  O   LIG     1      16.497  33.858  15.538  1.00  0.00    -0.361 OA
HETATM    9  H   LIG     1      16.372  34.707  14.999  1.00  0.00     0.217 HD
ENDBRANCH   1   8
TORSDOF 1
ENDMDL
MODEL 17
REMARK VINA RESULT:      -4.7      8.735      9.725
REMARK  1 active torsions:
REMARK  status: ('A' for Active; 'I' for Inactive)
REMARK    1  A    between atoms: O_1  and  C_2 
ROOT
HETATM    1  C   LIG     1      14.787  30.290  14.304  1.00  0.00     0.065 A 
HETATM    2  C   LIG     1      15.784  31.271  14.271  1.00  0.00     0.037 A 
HETATM    3  C   LIG     1      15.840  32.251  15.268  1.00  0.00     0.009 A 
HETATM    4  C   LIG     1      14.890  32.263  16.301  1.00  0.00    -0.062 A 
HETATM    5  C   LIG     1      14.974  33.289  17.392  1.00  0.00     0.048 C 
HETATM    6  C   LIG     1      13.901  31.267  16.340  1.00  0.00     0.009 A 
HETATM    7  C   LIG     1      13.847  30.289  15.342  1.00  0.00     0.037 A 
ENDROOT
BRANCH   1   8
HETATM    8  O   LIG     1      14.743  29.321  13.304  1.00  0.00    -0.361 OA
HETATM    9  H   LIG     1      13.990  29.294  12.625  1.00  0.00     0.217 HD
ENDBRANCH   1   8
TORSDOF 1
ENDMDL
MODEL 18
REMARK VINA RESULT:      -4.0     19.528     20.289
REMARK  1 active torsions:
REMARK  status: ('A' for Active; 'I' for Inactive)
REMARK    1  A    between atoms: O_1  and  C_2 
ROOT
HETATM    1  C   LIG     1      16.305  19.392  15.285  1.00  0.00     0.065 A 
HETATM    2  C   LIG     1      15.458  18.792  16.223  1.00  0.00     0.037 A 
HETATM    3  C   LIG     1      14.170  18.393  15.852  1.00  0.00     0.009 A 
HETATM    4  C   LIG     1      13.713  18.602  14.541  1.00  0.00    -0.062 A 
HETATM    5  C   LIG     1      12.347  18.139  14.134  1.00  0.00     0.048 C 
HETATM    6  C   LIG     1      14.572  19.190  13.599  1.00  0.00     0.009 A 
HETATM    7  C   LIG     1      15.860  19.589  13.971  1.00  0.00     0.037 A 
ENDROOT
BRANCH   1   8
HETATM    8  O   LIG     1      17.586  19.785  15.668  1.00  0.00    -0.361 OA
HETATM    9  H   LIG     1      18.317  19.106  15.845  1.00  0.00     0.217 HD
ENDBRANCH   1   8
TORSDOF 1
ENDMDL
MODEL 19
REMARK VINA RESULT:      -3.8      5.878      6.950
REMARK  1 active torsions:
REMARK  status: ('A' for Active; 'I' for Inactive)
REMARK    1  A    between atoms: O_1  and  C_2 
ROOT
HETATM    1  C   LIG     1      14.594  32.161  17.875  1.00  0.00     0.065 A 
HETATM    2  C   LIG     1      14.866  33.439  17.376  1.00  0.00     0.037 A 
HETATM    3  C   LIG     1      15.367  34.432  18.224  1.00  0.00     0.009 A 
HETATM    4  C   LIG     1      15.589  34.158  19.583  1.00  0.00    -0.062 A 
HETATM    5  C   LIG     1      16.163  35.211  20.483  1.00  0.00     0.048 C 
HETATM    6  C   LIG     1      15.330  32.869  20.076  1.00  0.00     0.009 A 
HETATM    7  C   LIG     1      14.829  31.877  19.227  1.00  0.00     0.037 A 
ENDROOT
BRANCH   1   8
HETATM    8  O   LIG     1      14.094  31.181  17.020  1.00  0.00    -0.361 OA
HETATM    9  H   LIG     1      13.668  31.421  16.132  1.00  0.00     0.217 HD
ENDBRANCH   1   8
TORSDOF 1
ENDMDL
