MODEL 1
REMARK VINA RESULT:      -5.7      0.000      0.000
REMARK  1 active torsions:
REMARK  status: ('A' for Active; 'I' for Inactive)
REMARK    1  A    between atoms: C_5  and  N_6 
ROOT
HETATM    1 CL   LIG     1      16.443  36.488  22.265  1.00  0.00    -0.084 Cl
HETATM    2  C   LIG     1      17.628  37.333  21.285  1.00  0.00     0.034 A 
HETATM    3  C   LIG     1      17.938  38.669  21.558  1.00  0.00     0.026 A 
HETATM    4  C   LIG     1      18.882  39.344  20.777  1.00  0.00     0.030 A 
HETATM    5  C   LIG     1      19.522  38.685  19.719  1.00  0.00     0.025 A 
HETATM    6  C   LIG     1      19.209  37.344  19.448  1.00  0.00     0.030 A 
HETATM    7  C   LIG     1      18.265  36.671  20.229  1.00  0.00     0.026 A 
ENDROOT
BRANCH   5   8
HETATM    8  N   LIG     1      20.488  39.374  18.920  1.00  0.00    -0.399 N 
HETATM    9  H   LIG     1      21.509  39.185  19.034  1.00  0.00     0.156 HD
HETATM   10  H   LIG     1      20.189  40.079  18.209  1.00  0.00     0.156 HD
ENDBRANCH   5   8
TORSDOF 1
ENDMDL
MODEL 2
REMARK VINA RESULT:      -5.5      4.215      4.770
REMARK  1 active torsions:
REMARK  status: ('A' for Active; 'I' for Inactive)
REMARK    1  A    between atoms: C_5  and  N_6 
ROOT
HETATM    1 CL   LIG     1      18.350  34.637  26.451  1.00  0.00    -0.084 Cl
HETATM    2  C   LIG     1      17.756  35.919  25.412  1.00  0.00     0.034 A 
HETATM    3  C   LIG     1      17.792  37.248  25.848  1.00  0.00     0.026 A 
HETATM    4  C   LIG     1      17.319  38.271  25.020  1.00  0.00     0.030 A 
HETATM    5  C   LIG     1      16.807  37.970  23.750  1.00  0.00     0.025 A 
HETATM    6  C   LIG     1      16.773  36.636  23.316  1.00  0.00     0.030 A 
HETATM    7  C   LIG     1      17.246  35.615  24.145  1.00  0.00     0.026 A 
ENDROOT
BRANCH   5   8
HETATM    8  N   LIG     1      16.323  39.016  22.903  1.00  0.00    -0.399 N 
HETATM    9  H   LIG     1      16.271  40.001  23.246  1.00  0.00     0.156 HD
HETATM   10  H   LIG     1      16.014  38.813  21.926  1.00  0.00     0.156 HD
ENDBRANCH   5   8
TORSDOF 1
ENDMDL
MODEL 3
REMARK VINA RESULT:      -5.4      3.074      3.674
REMARK  1 active torsions:
REMARK  status: ('A' for Active; 'I' for Inactive)
REMARK    1  A    between atoms: C_5  and  N_6 
ROOT
HETATM    1 CL   LIG     1      19.528  36.722  19.417  1.00  0.00    -0.084 Cl
HETATM    2  C   LIG     1      18.292  37.123  20.595  1.00  0.00     0.034 A 
HETATM    3  C   LIG     1      18.244  38.406  21.151  1.00  0.00     0.026 A 
HETATM    4  C   LIG     1      17.259  38.726  22.091  1.00  0.00     0.030 A 
HETATM    5  C   LIG     1      16.316  37.764  22.480  1.00  0.00     0.025 A 
HETATM    6  C   LIG     1      16.367  36.478  21.920  1.00  0.00     0.030 A 
HETATM    7  C   LIG     1      17.353  36.160  20.981  1.00  0.00     0.026 A 
ENDROOT
BRANCH   5   8
HETATM    8  N   LIG     1      15.308  38.091  23.441  1.00  0.00    -0.399 N 
HETATM    9  H   LIG     1      15.504  38.026  24.465  1.00  0.00     0.156 HD
HETATM   10  H   LIG     1      14.359  38.400  23.135  1.00  0.00     0.156 HD
ENDBRANCH   5   8
TORSDOF 1
ENDMDL
MODEL 4
REMARK VINA RESULT:      -5.2      3.867      4.631
REMARK  1 active torsions:
REMARK  status: ('A' for Active; 'I' for Inactive)
REMARK    1  A    between atoms: C_5  and  N_6 
ROOT
HETATM    1 CL   LIG     1      16.539  34.659  21.153  1.00  0.00    -0.084 Cl
HETATM    2  C   LIG     1      16.776  35.770  22.489  1.00  0.00     0.034 A 
HETATM    3  C   LIG     1      17.119  35.282  23.755  1.00  0.00     0.026 A 
HETATM    4  C   LIG     1      17.308  36.168  24.820  1.00  0.00     0.030 A 
HETATM    5  C   LIG     1      17.156  37.548  24.626  1.00  0.00     0.025 A 
HETATM    6  C   LIG     1      16.813  38.034  23.355  1.00  0.00     0.030 A 
HETATM    7  C   LIG     1      16.624  37.148  22.291  1.00  0.00     0.026 A 
ENDROOT
BRANCH   5   8
HETATM    8  N   LIG     1      17.350  38.455  25.715  1.00  0.00    -0.399 N 
HETATM    9  H   LIG     1      17.881  38.163  26.566  1.00  0.00     0.156 HD
HETATM   10  H   LIG     1      16.963  39.424  25.679  1.00  0.00     0.156 HD
ENDBRANCH   5   8
TORSDOF 1
ENDMDL
MODEL 5
REMARK VINA RESULT:      -5.2      4.602      5.310
REMARK  1 active torsions:
REMARK  status: ('A' for Active; 'I' for Inactive)
REMARK    1  A    between atoms: C_5  and  N_6 
ROOT
HETATM    1 CL   LIG     1      16.640  38.991  22.454  1.00  0.00    -0.084 Cl
HETATM    2  C   LIG     1      17.042  37.732  23.607  1.00  0.00     0.034 A 
HETATM    3  C   LIG     1      17.504  38.073  24.883  1.00  0.00     0.026 A 
HETATM    4  C   LIG     1      17.825  37.070  25.804  1.00  0.00     0.030 A 
HETATM    5  C   LIG     1      17.684  35.720  25.453  1.00  0.00     0.025 A 
HETATM    6  C   LIG     1      17.219  35.382  24.173  1.00  0.00     0.030 A 
HETATM    7  C   LIG     1      16.899  36.385  23.254  1.00  0.00     0.026 A 
ENDROOT
BRANCH   5   8
HETATM    8  N   LIG     1      18.011  34.694  26.394  1.00  0.00    -0.399 N 
HETATM    9  H   LIG     1      18.563  33.856  26.102  1.00  0.00     0.156 HD
HETATM   10  H   LIG     1      17.704  34.764  27.390  1.00  0.00     0.156 HD
ENDBRANCH   5   8
TORSDOF 1
ENDMDL
MODEL 6
REMARK VINA RESULT:      -5.1      3.105      3.997
REMARK  1 active torsions:
REMARK  status: ('A' for Active; 'I' for Inactive)
REMARK    1  A    between atoms: C_5  and  N_6 
ROOT
HETATM    1 CL   LIG     1      17.472  37.667  25.810  1.00  0.00    -0.084 Cl
HETATM    2  C   LIG     1      17.303  37.065  24.171  1.00  0.00     0.034 A 
HETATM    3  C   LIG     1      17.086  35.702  23.944  1.00  0.00     0.026 A 
HETATM    4  C   LIG     1      16.951  35.221  22.638  1.00  0.00     0.030 A 
HETATM    5  C   LIG     1      17.032  36.102  21.550  1.00  0.00     0.025 A 
HETATM    6  C   LIG     1      17.249  37.470  21.782  1.00  0.00     0.030 A 
HETATM    7  C   LIG     1      17.384  37.948  23.089  1.00  0.00     0.026 A 
ENDROOT
BRANCH   5   8
HETATM    8  N   LIG     1      16.894  35.612  20.214  1.00  0.00    -0.399 N 
HETATM    9  H   LIG     1      17.682  35.114  19.743  1.00  0.00     0.156 HD
HETATM   10  H   LIG     1      16.002  35.743  19.686  1.00  0.00     0.156 HD
ENDBRANCH   5   8
TORSDOF 1
ENDMDL
MODEL 7
REMARK VINA RESULT:      -5.0      1.902      2.391
REMARK  1 active torsions:
REMARK  status: ('A' for Active; 'I' for Inactive)
REMARK    1  A    between atoms: C_5  and  N_6 
ROOT
HETATM    1 CL   LIG     1      16.722  37.997  24.636  1.00  0.00    -0.084 Cl
HETATM    2  C   LIG     1      17.237  37.593  23.009  1.00  0.00     0.034 A 
HETATM    3  C   LIG     1      17.986  38.510  22.263  1.00  0.00     0.026 A 
HETATM    4  C   LIG     1      18.397  38.189  20.965  1.00  0.00     0.030 A 
HETATM    5  C   LIG     1      18.060  36.948  20.405  1.00  0.00     0.025 A 
HETATM    6  C   LIG     1      17.309  36.031  21.157  1.00  0.00     0.030 A 
HETATM    7  C   LIG     1      16.899  36.354  22.454  1.00  0.00     0.026 A 
ENDROOT
BRANCH   5   8
HETATM    8  N   LIG     1      18.480  36.619  19.079  1.00  0.00    -0.399 N 
HETATM    9  H   LIG     1      18.407  35.640  18.722  1.00  0.00     0.156 HD
HETATM   10  H   LIG     1      18.867  37.352  18.443  1.00  0.00     0.156 HD
ENDBRANCH   5   8
TORSDOF 1
ENDMDL
MODEL 8
REMARK VINA RESULT:      -5.0      8.167      9.119
REMARK  1 active torsions:
REMARK  status: ('A' for Active; 'I' for Inactive)
REMARK    1  A    between atoms: C_5  and  N_6 
ROOT
HETATM    1 CL   LIG     1      13.749  29.261  14.202  1.00  0.00    -0.084 Cl
HETATM    2  C   LIG     1      14.169  30.611  15.241  1.00  0.00     0.034 A 
HETATM    3  C   LIG     1      15.297  31.389  14.957  1.00  0.00     0.026 A 
HETATM    4  C   LIG     1      15.632  32.465  15.785  1.00  0.00     0.030 A 
HETATM    5  C   LIG     1      14.841  32.770  16.902  1.00  0.00     0.025 A 
HETATM    6  C   LIG     1      13.710  31.987  17.183  1.00  0.00     0.030 A 
HETATM    7  C   LIG     1      13.376  30.912  16.355  1.00  0.00     0.026 A 
ENDROOT
BRANCH   5   8
HETATM    8  N   LIG     1      15.184  33.870  17.748  1.00  0.00    -0.399 N 
HETATM    9  H   LIG     1      16.154  33.977  18.121  1.00  0.00     0.156 HD
HETATM   10  H   LIG     1      14.469  34.587  18.009  1.00  0.00     0.156 HD
ENDBRANCH   5   8
TORSDOF 1
ENDMDL
MODEL 9
REMARK VINA RESULT:      -4.9      3.453      4.138
REMARK  1 active torsions:
REMARK  status: ('A' for Active; 'I' for Inactive)
REMARK    1  A    between atoms: C_5  and  N_6 
ROOT
HETATM    1 CL   LIG     1      18.892  38.983  21.662  1.00  0.00    -0.084 Cl
HETATM    2  C   LIG     1      17.600  37.798  21.617  1.00  0.00     0.034 A 
HETATM    3  C   LIG     1      16.459  37.975  22.407  1.00  0.00     0.026 A 
HETATM    4  C   LIG     1      15.428  37.030  22.372  1.00  0.00     0.030 A 
HETATM    5  C   LIG     1      15.532  35.903  21.546  1.00  0.00     0.025 A 
HETATM    6  C   LIG     1      16.678  35.729  20.754  1.00  0.00     0.030 A 
HETATM    7  C   LIG     1      17.708  36.674  20.790  1.00  0.00     0.026 A 
ENDROOT
BRANCH   5   8
HETATM    8  N   LIG     1      14.479  34.937  21.509  1.00  0.00    -0.399 N 
HETATM    9  H   LIG     1      13.883  34.763  22.349  1.00  0.00     0.156 HD
HETATM   10  H   LIG     1      14.287  34.388  20.641  1.00  0.00     0.156 HD
ENDBRANCH   5   8
TORSDOF 1
ENDMDL
MODEL 10
REMARK VINA RESULT:      -4.9      9.699     10.634
REMARK  1 active torsions:
REMARK  status: ('A' for Active; 'I' for Inactive)
REMARK    1  A    between atoms: C_5  and  N_6 
ROOT
HETATM    1 CL   LIG     1      16.090  32.949  16.018  1.00  0.00    -0.084 Cl
HETATM    2  C   LIG     1      15.099  31.635  15.412  1.00  0.00     0.034 A 
HETATM    3  C   LIG     1      13.864  31.357  16.007  1.00  0.00     0.026 A 
HETATM    4  C   LIG     1      13.073  30.309  15.525  1.00  0.00     0.030 A 
HETATM    5  C   LIG     1      13.513  29.534  14.443  1.00  0.00     0.025 A 
HETATM    6  C   LIG     1      14.752  29.816  13.848  1.00  0.00     0.030 A 
HETATM    7  C   LIG     1      15.542  30.863  14.332  1.00  0.00     0.026 A 
ENDROOT
BRANCH   5   8
HETATM    8  N   LIG     1      12.704  28.463  13.949  1.00  0.00    -0.399 N 
HETATM    9  H   LIG     1      13.038  27.474  13.998  1.00  0.00     0.156 HD
HETATM   10  H   LIG     1      11.767  28.651  13.529  1.00  0.00     0.156 HD
ENDBRANCH   5   8
TORSDOF 1
ENDMDL
MODEL 11
REMARK VINA RESULT:      -4.9      8.500      9.426
REMARK  1 active torsions:
REMARK  status: ('A' for Active; 'I' for Inactive)
REMARK    1  A    between atoms: C_5  and  N_6 
ROOT
HETATM    1 CL   LIG     1      17.468  32.942  14.868  1.00  0.00    -0.084 Cl
HETATM    2  C   LIG     1      15.978  32.180  15.394  1.00  0.00     0.034 A 
HETATM    3  C   LIG     1      15.330  32.630  16.549  1.00  0.00     0.026 A 
HETATM    4  C   LIG     1      14.142  32.024  16.969  1.00  0.00     0.030 A 
HETATM    5  C   LIG     1      13.594  30.962  16.235  1.00  0.00     0.025 A 
HETATM    6  C   LIG     1      14.246  30.514  15.076  1.00  0.00     0.030 A 
HETATM    7  C   LIG     1      15.434  31.121  14.657  1.00  0.00     0.026 A 
ENDROOT
BRANCH   5   8
HETATM    8  N   LIG     1      12.379  30.342  16.664  1.00  0.00    -0.399 N 
HETATM    9  H   LIG     1      11.463  30.833  16.560  1.00  0.00     0.156 HD
HETATM   10  H   LIG     1      12.387  29.388  17.088  1.00  0.00     0.156 HD
ENDBRANCH   5   8
TORSDOF 1
ENDMDL
MODEL 12
REMARK VINA RESULT:      -4.7      3.197      4.118
REMARK  1 active torsions:
REMARK  status: ('A' for Active; 'I' for Inactive)
REMARK    1  A    between atoms: C_5  and  N_6 
ROOT
HETATM    1 CL   LIG     1      19.524  39.271  20.391  1.00  0.00    -0.084 Cl
HETATM    2  C   LIG     1      18.347  38.068  20.885  1.00  0.00     0.034 A 
HETATM    3  C   LIG     1      18.268  36.846  20.210  1.00  0.00     0.026 A 
HETATM    4  C   LIG     1      17.329  35.887  20.603  1.00  0.00     0.030 A 
HETATM    5  C   LIG     1      16.464  36.145  21.676  1.00  0.00     0.025 A 
HETATM    6  C   LIG     1      16.547  37.372  22.352  1.00  0.00     0.030 A 
HETATM    7  C   LIG     1      17.486  38.330  21.957  1.00  0.00     0.026 A 
ENDROOT
BRANCH   5   8
HETATM    8  N   LIG     1      15.504  35.164  22.079  1.00  0.00    -0.399 N 
HETATM    9  H   LIG     1      15.803  34.194  22.326  1.00  0.00     0.156 HD
HETATM   10  H   LIG     1      14.488  35.401  22.133  1.00  0.00     0.156 HD
ENDBRANCH   5   8
TORSDOF 1
ENDMDL
MODEL 13
REMARK VINA RESULT:      -4.7      8.891      9.769
REMARK  1 active torsions:
REMARK  status: ('A' for Active; 'I' for Inactive)
REMARK    1  A    between atoms: C_5  and  N_6 
ROOT
HETATM    1 CL   LIG     1      13.045  28.610  14.052  1.00  0.00    -0.084 Cl
HETATM    2  C   LIG     1      13.899  29.976  14.746  1.00  0.00     0.034 A 
HETATM    3  C   LIG     1      13.391  30.615  15.882  1.00  0.00     0.026 A 
HETATM    4  C   LIG     1      14.071  31.705  16.437  1.00  0.00     0.030 A 
HETATM    5  C   LIG     1      15.264  32.160  15.858  1.00  0.00     0.025 A 
HETATM    6  C   LIG     1      15.771  31.516  14.718  1.00  0.00     0.030 A 
HETATM    7  C   LIG     1      15.089  30.428  14.165  1.00  0.00     0.026 A 
ENDROOT
BRANCH   5   8
HETATM    8  N   LIG     1      15.960  33.274  16.424  1.00  0.00    -0.399 N 
HETATM    9  H   LIG     1      15.452  33.994  16.984  1.00  0.00     0.156 HD
HETATM   10  H   LIG     1      16.990  33.386  16.287  1.00  0.00     0.156 HD
ENDBRANCH   5   8
TORSDOF 1
ENDMDL
MODEL 14
REMARK VINA RESULT:      -4.5      3.274      4.146
REMARK  1 active torsions:
REMARK  status: ('A' for Active; 'I' for Inactive)
REMARK    1  A    between atoms: C_5  and  N_6 
ROOT
HETATM    1 CL   LIG     1      17.079  38.464  23.448  1.00  0.00    -0.084 Cl
HETATM    2  C   LIG     1      16.622  37.266  22.252  1.00  0.00     0.034 A 
HETATM    3  C   LIG     1      17.554  36.833  21.303  1.00  0.00     0.026 A 
HETATM    4  C   LIG     1      17.191  35.877  20.348  1.00  0.00     0.030 A 
HETATM    5  C   LIG     1      15.892  35.348  20.339  1.00  0.00     0.025 A 
HETATM    6  C   LIG     1      14.960  35.785  21.293  1.00  0.00     0.030 A 
HETATM    7  C   LIG     1      15.325  36.740  22.246  1.00  0.00     0.026 A 
ENDROOT
BRANCH   5   8
HETATM    8  N   LIG     1      15.520  34.371  19.364  1.00  0.00    -0.399 N 
HETATM    9  H   LIG     1      16.204  33.650  19.041  1.00  0.00     0.156 HD
HETATM   10  H   LIG     1      14.558  34.362  18.956  1.00  0.00     0.156 HD
ENDBRANCH   5   8
TORSDOF 1
ENDMDL
MODEL 15
REMARK VINA RESULT:      -4.3      8.332      9.125
REMARK  1 active torsions:
REMARK  status: ('A' for Active; 'I' for Inactive)
REMARK    1  A    between atoms: C_5  and  N_6 
ROOT
HETATM    1 CL   LIG     1      13.374  30.531  17.101  1.00  0.00    -0.084 Cl
HETATM    2  C   LIG     1      14.444  31.147  15.855  1.00  0.00     0.034 A 
HETATM    3  C   LIG     1      15.217  32.288  16.095  1.00  0.00     0.026 A 
HETATM    4  C   LIG     1      16.070  32.779  15.102  1.00  0.00     0.030 A 
HETATM    5  C   LIG     1      16.156  32.131  13.862  1.00  0.00     0.025 A 
HETATM    6  C   LIG     1      15.379  30.986  13.624  1.00  0.00     0.030 A 
HETATM    7  C   LIG     1      14.527  30.497  14.618  1.00  0.00     0.026 A 
ENDROOT
BRANCH   5   8
HETATM    8  N   LIG     1      17.029  32.633  12.846  1.00  0.00    -0.399 N 
HETATM    9  H   LIG     1      16.663  32.872  11.897  1.00  0.00     0.156 HD
HETATM   10  H   LIG     1      18.047  32.769  13.035  1.00  0.00     0.156 HD
ENDBRANCH   5   8
TORSDOF 1
ENDMDL
MODEL 16
REMARK VINA RESULT:      -3.3     20.670     21.361
REMARK  1 active torsions:
REMARK  status: ('A' for Active; 'I' for Inactive)
REMARK    1  A    between atoms: C_5  and  N_6 
ROOT
HETATM    1 CL   LIG     1      19.440  23.208  32.423  1.00  0.00    -0.084 Cl
HETATM    2  C   LIG     1      20.349  22.982  33.906  1.00  0.00     0.034 A 
HETATM    3  C   LIG     1      21.631  23.527  34.033  1.00  0.00     0.026 A 
HETATM    4  C   LIG     1      22.356  23.347  35.215  1.00  0.00     0.030 A 
HETATM    5  C   LIG     1      21.802  22.621  36.279  1.00  0.00     0.025 A 
HETATM    6  C   LIG     1      20.515  22.077  36.149  1.00  0.00     0.030 A 
HETATM    7  C   LIG     1      19.792  22.257  34.966  1.00  0.00     0.026 A 
ENDROOT
BRANCH   5   8
HETATM    8  N   LIG     1      22.543  22.438  37.488  1.00  0.00    -0.399 N 
HETATM    9  H   LIG     1      23.467  22.905  37.626  1.00  0.00     0.156 HD
HETATM   10  H   LIG     1      22.173  21.833  38.255  1.00  0.00     0.156 HD
ENDBRANCH   5   8
TORSDOF 1
ENDMDL
MODEL 17
REMARK VINA RESULT:      -3.3      3.305      4.147
REMARK  1 active torsions:
REMARK  status: ('A' for Active; 'I' for Inactive)
REMARK    1  A    between atoms: C_5  and  N_6 
ROOT
HETATM    1 CL   LIG     1      15.640  34.433  18.873  1.00  0.00    -0.084 Cl
HETATM    2  C   LIG     1      16.159  35.207  20.359  1.00  0.00     0.034 A 
HETATM    3  C   LIG     1      17.000  36.324  20.311  1.00  0.00     0.026 A 
HETATM    4  C   LIG     1      17.414  36.941  21.496  1.00  0.00     0.030 A 
HETATM    5  C   LIG     1      16.988  36.445  22.736  1.00  0.00     0.025 A 
HETATM    6  C   LIG     1      16.144  35.325  22.780  1.00  0.00     0.030 A 
HETATM    7  C   LIG     1      15.731  34.708  21.595  1.00  0.00     0.026 A 
ENDROOT
BRANCH   5   8
HETATM    8  N   LIG     1      17.411  37.076  23.948  1.00  0.00    -0.399 N 
HETATM    9  H   LIG     1      17.399  36.556  24.854  1.00  0.00     0.156 HD
HETATM   10  H   LIG     1      17.738  38.068  23.948  1.00  0.00     0.156 HD
ENDBRANCH   5   8
TORSDOF 1
ENDMDL
MODEL 18
REMARK VINA RESULT:      -3.2      9.340     10.024
REMARK  1 active torsions:
REMARK  status: ('A' for Active; 'I' for Inactive)
REMARK    1  A    between atoms: C_5  and  N_6 
ROOT
HETATM    1 CL   LIG     1      21.660  35.265  10.009  1.00  0.00    -0.084 Cl
HETATM    2  C   LIG     1      20.473  34.675  11.157  1.00  0.00     0.034 A 
HETATM    3  C   LIG     1      19.109  34.744  10.852  1.00  0.00     0.026 A 
HETATM    4  C   LIG     1      18.161  34.273  11.767  1.00  0.00     0.030 A 
HETATM    5  C   LIG     1      18.572  33.729  12.992  1.00  0.00     0.025 A 
HETATM    6  C   LIG     1      19.942  33.661  13.294  1.00  0.00     0.030 A 
HETATM    7  C   LIG     1      20.887  34.132  12.379  1.00  0.00     0.026 A 
ENDROOT
BRANCH   5   8
HETATM    8  N   LIG     1      17.604  33.247  13.927  1.00  0.00    -0.399 N 
HETATM    9  H   LIG     1      17.708  33.436  14.950  1.00  0.00     0.156 HD
HETATM   10  H   LIG     1      16.777  32.697  13.605  1.00  0.00     0.156 HD
ENDBRANCH   5   8
TORSDOF 1
ENDMDL
MODEL 19
REMARK VINA RESULT:      -3.1     18.718     19.045
REMARK  1 active torsions:
REMARK  status: ('A' for Active; 'I' for Inactive)
REMARK    1  A    between atoms: C_5  and  N_6 
ROOT
HETATM    1 CL   LIG     1      26.597  32.195  38.129  1.00  0.00    -0.084 Cl
HETATM    2  C   LIG     1      27.015  31.307  36.676  1.00  0.00     0.034 A 
HETATM    3  C   LIG     1      26.036  30.577  35.994  1.00  0.00     0.026 A 
HETATM    4  C   LIG     1      26.368  29.868  34.835  1.00  0.00     0.030 A 
HETATM    5  C   LIG     1      27.683  29.887  34.350  1.00  0.00     0.025 A 
HETATM    6  C   LIG     1      28.663  30.622  35.036  1.00  0.00     0.030 A 
HETATM    7  C   LIG     1      28.329  31.329  36.194  1.00  0.00     0.026 A 
ENDROOT
BRANCH   5   8
HETATM    8  N   LIG     1      28.024  29.164  33.164  1.00  0.00    -0.399 N 
HETATM    9  H   LIG     1      28.124  28.124  33.182  1.00  0.00     0.156 HD
HETATM   10  H   LIG     1      28.178  29.663  32.260  1.00  0.00     0.156 HD
ENDBRANCH   5   8
TORSDOF 1
ENDMDL
