REMARK  4 active torsions:
REMARK  status: ('A' for Active; 'I' for Inactive)
REMARK    1  A    between atoms: C_5  and  C_6 
REMARK    2  A    between atoms: C_5  and  O_16 
REMARK    3  A    between atoms: C_8  and  O_13 
REMARK    4  A    between atoms: C_11  and  O_12 
ROOT
HETATM    1  C   LIG     1       0.527  -0.322  -0.227  1.00  0.00     0.019 A 
HETATM    2  C   LIG     1       1.039   0.886   0.300  1.00  0.00     0.050 A 
HETATM    3  C   LIG     1       2.350   0.963   0.787  1.00  0.00     0.066 A 
HETATM    4  C   LIG     1       3.161  -0.171   0.780  1.00  0.00     0.039 A 
HETATM    5  C   LIG     1       2.662  -1.385   0.310  1.00  0.00     0.040 A 
HETATM    6  C   LIG     1       1.349  -1.476  -0.175  1.00  0.00     0.075 A 
ENDROOT
BRANCH   1   7
HETATM    7  C   LIG     1      -0.926  -0.402  -0.720  1.00  0.00     0.124 A 
HETATM    8  C   LIG     1      -1.775  -0.869   0.450  1.00  0.00     0.024 A 
HETATM    9  C   LIG     1      -2.783  -0.154   0.956  1.00  0.00     0.054 A 
HETATM   10  C   LIG     1      -3.142   1.142   0.374  1.00  0.00     0.171 A 
HETATM   11  O   LIG     1      -4.086   1.817   0.863  1.00  0.00    -0.289 OA
HETATM   12  C   LIG     1      -2.400   1.643  -0.784  1.00  0.00     0.054 A 
HETATM   13  C   LIG     1      -1.389   0.938  -1.296  1.00  0.00     0.024 A 
BRANCH   7  14
HETATM   14  O   LIG     1      -1.056  -1.361  -1.742  1.00  0.00    -0.377 OA
HETATM   15  H   LIG     1      -0.438  -1.109  -2.479  1.00  0.00     0.211 HD
ENDBRANCH   7  14
ENDBRANCH   1   7
BRANCH   6  16
HETATM   16  O   LIG     1       0.863  -2.717  -0.588  1.00  0.00    -0.360 OA
HETATM   17  H   LIG     1       1.434  -3.553  -0.553  1.00  0.00     0.217 HD
ENDBRANCH   6  16
BRANCH   3  18
HETATM   18  O   LIG     1       2.853   2.163   1.286  1.00  0.00    -0.361 OA
HETATM   19  H   LIG     1       2.292   3.006   1.307  1.00  0.00     0.217 HD
ENDBRANCH   3  18
TORSDOF 4
