REMARK  0 active torsions:
REMARK  status: ('A' for Active; 'I' for Inactive)
ROOT
HETATM    1 BR   LIG     1      -3.905   0.255   0.463  1.00  0.00    -0.051 Br
HETATM    2  C   LIG     1      -2.013   0.132   0.231  1.00  0.00     0.011 A 
HETATM    3  C   LIG     1      -1.240   1.294   0.149  1.00  0.00     0.019 A 
HETATM    4  C   LIG     1       0.146   1.205  -0.018  1.00  0.00     0.008 A 
HETATM    5  C   LIG     1       0.766  -0.050  -0.118  1.00  0.00    -0.062 A 
HETATM    6  C   LIG     1       2.257  -0.147  -0.258  1.00  0.00     0.048 C 
HETATM    7  C   LIG     1      -0.012  -1.214  -0.017  1.00  0.00     0.008 A 
HETATM    8  C   LIG     1      -1.398  -1.122   0.150  1.00  0.00     0.019 A 
ENDROOT
TORSDOF 0
