MODEL 1
REMARK VINA RESULT:      -6.0      0.000      0.000
REMARK  0 active torsions:
REMARK  status: ('A' for Active; 'I' for Inactive)
ROOT
HETATM    1  C   LIG     1      18.163  34.736  26.447  1.00  0.00     0.048 C 
HETATM    2  C   LIG     1      17.750  35.806  25.480  1.00  0.00    -0.062 A 
HETATM    3  C   LIG     1      17.263  35.449  24.213  1.00  0.00     0.008 A 
HETATM    4  C   LIG     1      16.875  36.438  23.303  1.00  0.00     0.024 A 
HETATM    5  C   LIG     1      16.971  37.788  23.653  1.00  0.00     0.034 A 
HETATM    6 CL   LIG     1      16.484  39.028  22.511  1.00  0.00    -0.084 Cl
HETATM    7  C   LIG     1      17.455  38.151  24.915  1.00  0.00     0.024 A 
HETATM    8  C   LIG     1      17.843  37.163  25.827  1.00  0.00     0.008 A 
ENDROOT
TORSDOF 0
ENDMDL
MODEL 2
REMARK VINA RESULT:      -6.0      0.015      1.714
REMARK  0 active torsions:
REMARK  status: ('A' for Active; 'I' for Inactive)
ROOT
HETATM    1  C   LIG     1      18.176  34.740  26.445  1.00  0.00     0.048 C 
HETATM    2  C   LIG     1      17.755  35.794  25.465  1.00  0.00    -0.062 A 
HETATM    3  C   LIG     1      17.856  37.150  25.814  1.00  0.00     0.008 A 
HETATM    4  C   LIG     1      17.467  38.142  24.908  1.00  0.00     0.024 A 
HETATM    5  C   LIG     1      16.975  37.786  23.648  1.00  0.00     0.034 A 
HETATM    6 CL   LIG     1      16.487  39.031  22.512  1.00  0.00    -0.084 Cl
HETATM    7  C   LIG     1      16.872  36.436  23.294  1.00  0.00     0.024 A 
HETATM    8  C   LIG     1      17.261  35.442  24.198  1.00  0.00     0.008 A 
ENDROOT
TORSDOF 0
ENDMDL
MODEL 3
REMARK VINA RESULT:      -5.8      2.253      3.886
REMARK  0 active torsions:
REMARK  status: ('A' for Active; 'I' for Inactive)
ROOT
HETATM    1  C   LIG     1      16.624  38.919  22.419  1.00  0.00     0.048 C 
HETATM    2  C   LIG     1      16.972  37.850  23.412  1.00  0.00    -0.062 A 
HETATM    3  C   LIG     1      17.414  38.208  24.695  1.00  0.00     0.008 A 
HETATM    4  C   LIG     1      17.741  37.220  25.629  1.00  0.00     0.024 A 
HETATM    5  C   LIG     1      17.629  35.868  25.288  1.00  0.00     0.034 A 
HETATM    6 CL   LIG     1      18.040  34.629  26.460  1.00  0.00    -0.084 Cl
HETATM    7  C   LIG     1      17.188  35.504  24.011  1.00  0.00     0.024 A 
HETATM    8  C   LIG     1      16.859  36.491  23.075  1.00  0.00     0.008 A 
ENDROOT
TORSDOF 0
ENDMDL
MODEL 4
REMARK VINA RESULT:      -5.8      2.247      3.488
REMARK  0 active torsions:
REMARK  status: ('A' for Active; 'I' for Inactive)
ROOT
HETATM    1  C   LIG     1      16.699  38.957  22.387  1.00  0.00     0.048 C 
HETATM    2  C   LIG     1      17.017  37.898  23.400  1.00  0.00    -0.062 A 
HETATM    3  C   LIG     1      16.866  36.544  23.064  1.00  0.00     0.008 A 
HETATM    4  C   LIG     1      17.160  35.548  24.001  1.00  0.00     0.024 A 
HETATM    5  C   LIG     1      17.608  35.898  25.278  1.00  0.00     0.034 A 
HETATM    6 CL   LIG     1      17.977  34.648  26.453  1.00  0.00    -0.084 Cl
HETATM    7  C   LIG     1      17.762  37.246  25.620  1.00  0.00     0.024 A 
HETATM    8  C   LIG     1      17.468  38.244  24.684  1.00  0.00     0.008 A 
ENDROOT
TORSDOF 0
ENDMDL
MODEL 5
REMARK VINA RESULT:      -5.7      3.642      4.982
REMARK  0 active torsions:
REMARK  status: ('A' for Active; 'I' for Inactive)
ROOT
HETATM    1  C   LIG     1      20.447  38.935  19.192  1.00  0.00     0.048 C 
HETATM    2  C   LIG     1      19.342  38.319  19.997  1.00  0.00    -0.062 A 
HETATM    3  C   LIG     1      18.924  37.008  19.718  1.00  0.00     0.008 A 
HETATM    4  C   LIG     1      17.895  36.423  20.462  1.00  0.00     0.024 A 
HETATM    5  C   LIG     1      17.276  37.143  21.489  1.00  0.00     0.034 A 
HETATM    6 CL   LIG     1      15.984  36.407  22.422  1.00  0.00    -0.084 Cl
HETATM    7  C   LIG     1      17.687  38.450  21.773  1.00  0.00     0.024 A 
HETATM    8  C   LIG     1      18.718  39.037  21.030  1.00  0.00     0.008 A 
ENDROOT
TORSDOF 0
ENDMDL
MODEL 6
REMARK VINA RESULT:      -5.7      3.538      4.378
REMARK  0 active torsions:
REMARK  status: ('A' for Active; 'I' for Inactive)
ROOT
HETATM    1  C   LIG     1      16.102  36.611  22.436  1.00  0.00     0.048 C 
HETATM    2  C   LIG     1      17.207  37.203  21.613  1.00  0.00    -0.062 A 
HETATM    3  C   LIG     1      17.792  36.448  20.585  1.00  0.00     0.008 A 
HETATM    4  C   LIG     1      18.823  36.990  19.811  1.00  0.00     0.024 A 
HETATM    5  C   LIG     1      19.277  38.289  20.058  1.00  0.00     0.034 A 
HETATM    6 CL   LIG     1      20.571  38.968  19.087  1.00  0.00    -0.084 Cl
HETATM    7  C   LIG     1      18.699  39.048  21.082  1.00  0.00     0.024 A 
HETATM    8  C   LIG     1      17.666  38.508  21.857  1.00  0.00     0.008 A 
ENDROOT
TORSDOF 0
ENDMDL
MODEL 7
REMARK VINA RESULT:      -5.4      2.088      3.398
REMARK  0 active torsions:
REMARK  status: ('A' for Active; 'I' for Inactive)
ROOT
HETATM    1  C   LIG     1      16.515  35.566  20.500  1.00  0.00     0.048 C 
HETATM    2  C   LIG     1      16.809  36.002  21.905  1.00  0.00    -0.062 A 
HETATM    3  C   LIG     1      16.956  35.041  22.917  1.00  0.00     0.008 A 
HETATM    4  C   LIG     1      17.231  35.436  24.230  1.00  0.00     0.024 A 
HETATM    5  C   LIG     1      17.362  36.793  24.541  1.00  0.00     0.034 A 
HETATM    6 CL   LIG     1      17.706  37.287  26.188  1.00  0.00    -0.084 Cl
HETATM    7  C   LIG     1      17.217  37.757  23.537  1.00  0.00     0.024 A 
HETATM    8  C   LIG     1      16.942  37.364  22.222  1.00  0.00     0.008 A 
ENDROOT
TORSDOF 0
ENDMDL
MODEL 8
REMARK VINA RESULT:      -5.3      2.555      3.445
REMARK  0 active torsions:
REMARK  status: ('A' for Active; 'I' for Inactive)
ROOT
HETATM    1  C   LIG     1      16.940  38.072  24.647  1.00  0.00     0.048 C 
HETATM    2  C   LIG     1      17.370  37.851  23.227  1.00  0.00    -0.062 A 
HETATM    3  C   LIG     1      17.007  36.668  22.565  1.00  0.00     0.008 A 
HETATM    4  C   LIG     1      17.402  36.450  21.241  1.00  0.00     0.024 A 
HETATM    5  C   LIG     1      18.162  37.413  20.570  1.00  0.00     0.034 A 
HETATM    6 CL   LIG     1      18.658  37.140  18.910  1.00  0.00    -0.084 Cl
HETATM    7  C   LIG     1      18.528  38.595  21.224  1.00  0.00     0.024 A 
HETATM    8  C   LIG     1      18.133  38.815  22.548  1.00  0.00     0.008 A 
ENDROOT
TORSDOF 0
ENDMDL
MODEL 9
REMARK VINA RESULT:      -5.3      2.927      4.177
REMARK  0 active torsions:
REMARK  status: ('A' for Active; 'I' for Inactive)
ROOT
HETATM    1  C   LIG     1      16.574  37.552  23.903  1.00  0.00     0.048 C 
HETATM    2  C   LIG     1      17.334  37.833  22.641  1.00  0.00    -0.062 A 
HETATM    3  C   LIG     1      17.936  39.088  22.455  1.00  0.00     0.008 A 
HETATM    4  C   LIG     1      18.647  39.361  21.283  1.00  0.00     0.024 A 
HETATM    5  C   LIG     1      18.763  38.384  20.289  1.00  0.00     0.034 A 
HETATM    6 CL   LIG     1      19.656  38.729  18.819  1.00  0.00    -0.084 Cl
HETATM    7  C   LIG     1      18.166  37.131  20.468  1.00  0.00     0.024 A 
HETATM    8  C   LIG     1      17.455  36.855  21.641  1.00  0.00     0.008 A 
ENDROOT
TORSDOF 0
ENDMDL
MODEL 10
REMARK VINA RESULT:      -5.2      3.449      4.395
REMARK  0 active torsions:
REMARK  status: ('A' for Active; 'I' for Inactive)
ROOT
HETATM    1  C   LIG     1      18.972  39.356  21.133  1.00  0.00     0.048 C 
HETATM    2  C   LIG     1      18.056  38.176  21.263  1.00  0.00    -0.062 A 
HETATM    3  C   LIG     1      18.216  37.073  20.409  1.00  0.00     0.008 A 
HETATM    4  C   LIG     1      17.368  35.967  20.521  1.00  0.00     0.024 A 
HETATM    5  C   LIG     1      16.355  35.955  21.486  1.00  0.00     0.034 A 
HETATM    6 CL   LIG     1      15.292  34.566  21.625  1.00  0.00    -0.084 Cl
HETATM    7  C   LIG     1      16.190  37.050  22.340  1.00  0.00     0.024 A 
HETATM    8  C   LIG     1      17.039  38.158  22.230  1.00  0.00     0.008 A 
ENDROOT
TORSDOF 0
ENDMDL
MODEL 11
REMARK VINA RESULT:      -5.2      2.315      3.610
REMARK  0 active torsions:
REMARK  status: ('A' for Active; 'I' for Inactive)
ROOT
HETATM    1  C   LIG     1      17.781  38.939  21.286  1.00  0.00     0.048 C 
HETATM    2  C   LIG     1      17.627  37.914  22.370  1.00  0.00    -0.062 A 
HETATM    3  C   LIG     1      17.124  36.641  22.059  1.00  0.00     0.008 A 
HETATM    4  C   LIG     1      16.977  35.677  23.060  1.00  0.00     0.024 A 
HETATM    5  C   LIG     1      17.331  35.977  24.379  1.00  0.00     0.034 A 
HETATM    6 CL   LIG     1      17.145  34.767  25.636  1.00  0.00    -0.084 Cl
HETATM    7  C   LIG     1      17.833  37.244  24.697  1.00  0.00     0.024 A 
HETATM    8  C   LIG     1      17.982  38.210  23.696  1.00  0.00     0.008 A 
ENDROOT
TORSDOF 0
ENDMDL
MODEL 12
REMARK VINA RESULT:      -5.1      3.185      3.748
REMARK  0 active torsions:
REMARK  status: ('A' for Active; 'I' for Inactive)
ROOT
HETATM    1  C   LIG     1      15.988  34.815  22.002  1.00  0.00     0.048 C 
HETATM    2  C   LIG     1      16.814  36.004  21.611  1.00  0.00    -0.062 A 
HETATM    3  C   LIG     1      17.633  35.939  20.473  1.00  0.00     0.008 A 
HETATM    4  C   LIG     1      18.408  37.042  20.098  1.00  0.00     0.024 A 
HETATM    5  C   LIG     1      18.369  38.216  20.857  1.00  0.00     0.034 A 
HETATM    6 CL   LIG     1      19.341  39.598  20.386  1.00  0.00    -0.084 Cl
HETATM    7  C   LIG     1      17.554  38.287  21.993  1.00  0.00     0.024 A 
HETATM    8  C   LIG     1      16.778  37.185  22.369  1.00  0.00     0.008 A 
ENDROOT
TORSDOF 0
ENDMDL
MODEL 13
REMARK VINA RESULT:      -5.1      9.436     10.824
REMARK  0 active torsions:
REMARK  status: ('A' for Active; 'I' for Inactive)
ROOT
HETATM    1  C   LIG     1      13.795  29.243  14.301  1.00  0.00     0.048 C 
HETATM    2  C   LIG     1      14.152  30.465  15.093  1.00  0.00    -0.062 A 
HETATM    3  C   LIG     1      13.347  30.856  16.174  1.00  0.00     0.008 A 
HETATM    4  C   LIG     1      13.670  31.994  16.920  1.00  0.00     0.024 A 
HETATM    5  C   LIG     1      14.801  32.748  16.591  1.00  0.00     0.034 A 
HETATM    6 CL   LIG     1      15.206  34.176  17.528  1.00  0.00    -0.084 Cl
HETATM    7  C   LIG     1      15.609  32.365  15.516  1.00  0.00     0.024 A 
HETATM    8  C   LIG     1      15.287  31.226  14.769  1.00  0.00     0.008 A 
ENDROOT
TORSDOF 0
ENDMDL
MODEL 14
REMARK VINA RESULT:      -4.9      9.850     11.174
REMARK  0 active torsions:
REMARK  status: ('A' for Active; 'I' for Inactive)
ROOT
HETATM    1  C   LIG     1      15.193  33.759  17.188  1.00  0.00     0.048 C 
HETATM    2  C   LIG     1      14.701  32.544  16.458  1.00  0.00    -0.062 A 
HETATM    3  C   LIG     1      15.469  31.998  15.418  1.00  0.00     0.008 A 
HETATM    4  C   LIG     1      15.021  30.865  14.730  1.00  0.00     0.024 A 
HETATM    5  C   LIG     1      13.803  30.271  15.078  1.00  0.00     0.034 A 
HETATM    6 CL   LIG     1      13.242  28.850  14.215  1.00  0.00    -0.084 Cl
HETATM    7  C   LIG     1      13.033  30.810  16.114  1.00  0.00     0.024 A 
HETATM    8  C   LIG     1      13.480  31.943  16.804  1.00  0.00     0.008 A 
ENDROOT
TORSDOF 0
ENDMDL
MODEL 15
REMARK VINA RESULT:      -4.8      9.693     10.771
REMARK  0 active torsions:
REMARK  status: ('A' for Active; 'I' for Inactive)
ROOT
HETATM    1  C   LIG     1      12.793  30.502  16.339  1.00  0.00     0.048 C 
HETATM    2  C   LIG     1      14.060  31.178  15.906  1.00  0.00    -0.062 A 
HETATM    3  C   LIG     1      14.747  30.711  14.775  1.00  0.00     0.008 A 
HETATM    4  C   LIG     1      15.929  31.333  14.361  1.00  0.00     0.024 A 
HETATM    5  C   LIG     1      16.432  32.426  15.074  1.00  0.00     0.034 A 
HETATM    6 CL   LIG     1      17.916  33.206  14.555  1.00  0.00    -0.084 Cl
HETATM    7  C   LIG     1      15.753  32.897  16.203  1.00  0.00     0.024 A 
HETATM    8  C   LIG     1      14.569  32.276  16.618  1.00  0.00     0.008 A 
ENDROOT
TORSDOF 0
ENDMDL
MODEL 16
REMARK VINA RESULT:      -4.6     10.196     11.584
REMARK  0 active torsions:
REMARK  status: ('A' for Active; 'I' for Inactive)
ROOT
HETATM    1  C   LIG     1      13.729  29.445  14.421  1.00  0.00     0.048 C 
HETATM    2  C   LIG     1      14.664  30.613  14.511  1.00  0.00    -0.062 A 
HETATM    3  C   LIG     1      14.765  31.335  15.710  1.00  0.00     0.008 A 
HETATM    4  C   LIG     1      15.634  32.426  15.806  1.00  0.00     0.024 A 
HETATM    5  C   LIG     1      16.409  32.803  14.704  1.00  0.00     0.034 A 
HETATM    6 CL   LIG     1      17.499  34.173  14.825  1.00  0.00    -0.084 Cl
HETATM    7  C   LIG     1      16.314  32.088  13.505  1.00  0.00     0.024 A 
HETATM    8  C   LIG     1      15.445  30.996  13.408  1.00  0.00     0.008 A 
ENDROOT
TORSDOF 0
ENDMDL
MODEL 17
REMARK VINA RESULT:      -4.6      2.507      3.990
REMARK  0 active torsions:
REMARK  status: ('A' for Active; 'I' for Inactive)
ROOT
HETATM    1  C   LIG     1      15.780  33.772  20.471  1.00  0.00     0.048 C 
HETATM    2  C   LIG     1      16.398  35.017  21.036  1.00  0.00    -0.062 A 
HETATM    3  C   LIG     1      16.263  35.304  22.403  1.00  0.00     0.008 A 
HETATM    4  C   LIG     1      16.835  36.461  22.940  1.00  0.00     0.024 A 
HETATM    5  C   LIG     1      17.546  37.339  22.116  1.00  0.00     0.034 A 
HETATM    6 CL   LIG     1      18.263  38.791  22.792  1.00  0.00    -0.084 Cl
HETATM    7  C   LIG     1      17.685  37.059  20.752  1.00  0.00     0.024 A 
HETATM    8  C   LIG     1      17.114  35.901  20.213  1.00  0.00     0.008 A 
ENDROOT
TORSDOF 0
ENDMDL
MODEL 18
REMARK VINA RESULT:      -4.5     10.045     11.159
REMARK  0 active torsions:
REMARK  status: ('A' for Active; 'I' for Inactive)
ROOT
HETATM    1  C   LIG     1      17.756  33.311  14.028  1.00  0.00     0.048 C 
HETATM    2  C   LIG     1      16.572  32.595  14.606  1.00  0.00    -0.062 A 
HETATM    3  C   LIG     1      15.982  31.538  13.896  1.00  0.00     0.008 A 
HETATM    4  C   LIG     1      14.878  30.863  14.425  1.00  0.00     0.024 A 
HETATM    5  C   LIG     1      14.355  31.239  15.666  1.00  0.00     0.034 A 
HETATM    6 CL   LIG     1      12.969  30.392  16.328  1.00  0.00    -0.084 Cl
HETATM    7  C   LIG     1      14.937  32.293  16.379  1.00  0.00     0.024 A 
HETATM    8  C   LIG     1      16.043  32.969  15.852  1.00  0.00     0.008 A 
ENDROOT
TORSDOF 0
ENDMDL
MODEL 19
REMARK VINA RESULT:      -4.2      6.189      7.396
REMARK  0 active torsions:
REMARK  status: ('A' for Active; 'I' for Inactive)
ROOT
HETATM    1  C   LIG     1      16.024  34.788  21.273  1.00  0.00     0.048 C 
HETATM    2  C   LIG     1      15.624  34.048  20.031  1.00  0.00    -0.062 A 
HETATM    3  C   LIG     1      15.321  32.679  20.103  1.00  0.00     0.008 A 
HETATM    4  C   LIG     1      14.947  31.979  18.952  1.00  0.00     0.024 A 
HETATM    5  C   LIG     1      14.873  32.641  17.722  1.00  0.00     0.034 A 
HETATM    6 CL   LIG     1      14.404  31.761  16.278  1.00  0.00    -0.084 Cl
HETATM    7  C   LIG     1      15.174  34.005  17.643  1.00  0.00     0.024 A 
HETATM    8  C   LIG     1      15.547  34.708  18.794  1.00  0.00     0.008 A 
ENDROOT
TORSDOF 0
ENDMDL
MODEL 20
REMARK VINA RESULT:      -4.1     16.769     17.211
REMARK  0 active torsions:
REMARK  status: ('A' for Active; 'I' for Inactive)
ROOT
HETATM    1  C   LIG     1       3.363  42.150  31.624  1.00  0.00     0.048 C 
HETATM    2  C   LIG     1       3.723  41.467  32.910  1.00  0.00    -0.062 A 
HETATM    3  C   LIG     1       3.657  40.068  32.998  1.00  0.00     0.008 A 
HETATM    4  C   LIG     1       3.991  39.420  34.192  1.00  0.00     0.024 A 
HETATM    5  C   LIG     1       4.392  40.165  35.305  1.00  0.00     0.034 A 
HETATM    6 CL   LIG     1       4.810  39.352  36.802  1.00  0.00    -0.084 Cl
HETATM    7  C   LIG     1       4.460  41.561  35.224  1.00  0.00     0.024 A 
HETATM    8  C   LIG     1       4.128  42.211  34.031  1.00  0.00     0.008 A 
ENDROOT
TORSDOF 0
ENDMDL
