MODEL 1
REMARK VINA RESULT:      -3.8      0.000      0.000
REMARK  1 active torsions:
REMARK  status: ('A' for Active; 'I' for Inactive)
REMARK    1  A    between atoms: C_2  and  C_3 
ROOT
HETATM    1  C   LIG     1      17.398  34.806  25.823  1.00  0.00     0.011 C 
HETATM    2  C   LIG     1      18.296  35.556  26.455  1.00  0.00    -0.011 C 
ENDROOT
BRANCH   2   3
HETATM    3  C   LIG     1      18.515  36.961  26.080  1.00  0.00    -0.011 C 
HETATM    4  C   LIG     1      17.523  37.710  25.604  1.00  0.00     0.011 C 
ENDBRANCH   2   3
TORSDOF 1
ENDMDL
MODEL 2
REMARK VINA RESULT:      -3.8      0.076      2.302
REMARK  1 active torsions:
REMARK  status: ('A' for Active; 'I' for Inactive)
REMARK    1  A    between atoms: C_2  and  C_3 
ROOT
HETATM    1  C   LIG     1      17.541  37.662  25.482  1.00  0.00     0.011 C 
HETATM    2  C   LIG     1      18.515  36.958  26.051  1.00  0.00    -0.011 C 
ENDROOT
BRANCH   2   3
HETATM    3  C   LIG     1      18.300  35.568  26.479  1.00  0.00    -0.011 C 
HETATM    4  C   LIG     1      17.394  34.797  25.886  1.00  0.00     0.011 C 
ENDBRANCH   2   3
TORSDOF 1
ENDMDL
MODEL 3
REMARK VINA RESULT:      -3.5      0.655      2.311
REMARK  1 active torsions:
REMARK  status: ('A' for Active; 'I' for Inactive)
REMARK    1  A    between atoms: C_2  and  C_3 
ROOT
HETATM    1  C   LIG     1      17.178  37.534  24.520  1.00  0.00     0.011 C 
HETATM    2  C   LIG     1      17.551  37.561  25.796  1.00  0.00    -0.011 C 
ENDROOT
BRANCH   2   3
HETATM    3  C   LIG     1      18.486  36.564  26.338  1.00  0.00    -0.011 C 
HETATM    4  C   LIG     1      18.183  35.269  26.348  1.00  0.00     0.011 C 
ENDBRANCH   2   3
TORSDOF 1
ENDMDL
MODEL 4
REMARK VINA RESULT:      -3.2      5.825      6.682
REMARK  1 active torsions:
REMARK  status: ('A' for Active; 'I' for Inactive)
REMARK    1  A    between atoms: C_2  and  C_3 
ROOT
HETATM    1  C   LIG     1      18.483  39.243  21.424  1.00  0.00     0.011 C 
HETATM    2  C   LIG     1      19.360  39.171  20.427  1.00  0.00    -0.011 C 
ENDROOT
BRANCH   2   3
HETATM    3  C   LIG     1      19.179  38.221  19.320  1.00  0.00    -0.011 C 
HETATM    4  C   LIG     1      19.162  36.908  19.535  1.00  0.00     0.011 C 
ENDBRANCH   2   3
TORSDOF 1
ENDMDL
MODEL 5
REMARK VINA RESULT:      -3.2      5.257      6.202
REMARK  1 active torsions:
REMARK  status: ('A' for Active; 'I' for Inactive)
REMARK    1  A    between atoms: C_2  and  C_3 
ROOT
HETATM    1  C   LIG     1      20.064  38.733  19.689  1.00  0.00     0.011 C 
HETATM    2  C   LIG     1      19.084  39.436  20.249  1.00  0.00    -0.011 C 
ENDROOT
BRANCH   2   3
HETATM    3  C   LIG     1      18.606  39.131  21.606  1.00  0.00    -0.011 C 
HETATM    4  C   LIG     1      17.574  38.316  21.805  1.00  0.00     0.011 C 
ENDBRANCH   2   3
TORSDOF 1
ENDMDL
MODEL 6
REMARK VINA RESULT:      -3.1      4.860      5.761
REMARK  1 active torsions:
REMARK  status: ('A' for Active; 'I' for Inactive)
REMARK    1  A    between atoms: C_2  and  C_3 
ROOT
HETATM    1  C   LIG     1      16.981  38.874  22.373  1.00  0.00     0.011 C 
HETATM    2  C   LIG     1      17.921  38.453  21.531  1.00  0.00    -0.011 C 
ENDROOT
BRANCH   2   3
HETATM    3  C   LIG     1      18.818  39.401  20.854  1.00  0.00    -0.011 C 
HETATM    4  C   LIG     1      19.744  38.981  19.997  1.00  0.00     0.011 C 
ENDBRANCH   2   3
TORSDOF 1
ENDMDL
MODEL 7
REMARK VINA RESULT:      -3.1      5.841      6.358
REMARK  1 active torsions:
REMARK  status: ('A' for Active; 'I' for Inactive)
REMARK    1  A    between atoms: C_2  and  C_3 
ROOT
HETATM    1  C   LIG     1      18.360  36.795  20.120  1.00  0.00     0.011 C 
HETATM    2  C   LIG     1      18.421  37.968  20.743  1.00  0.00    -0.011 C 
ENDROOT
BRANCH   2   3
HETATM    3  C   LIG     1      19.250  39.065  20.221  1.00  0.00    -0.011 C 
HETATM    4  C   LIG     1      20.331  38.821  19.486  1.00  0.00     0.011 C 
ENDBRANCH   2   3
TORSDOF 1
ENDMDL
MODEL 8
REMARK VINA RESULT:      -3.0      1.511      2.930
REMARK  1 active torsions:
REMARK  status: ('A' for Active; 'I' for Inactive)
REMARK    1  A    between atoms: C_2  and  C_3 
ROOT
HETATM    1  C   LIG     1      16.906  38.412  23.233  1.00  0.00     0.011 C 
HETATM    2  C   LIG     1      16.916  37.448  24.149  1.00  0.00    -0.011 C 
ENDROOT
BRANCH   2   3
HETATM    3  C   LIG     1      17.428  37.693  25.506  1.00  0.00    -0.011 C 
HETATM    4  C   LIG     1      18.291  36.858  26.077  1.00  0.00     0.011 C 
ENDBRANCH   2   3
TORSDOF 1
ENDMDL
MODEL 9
REMARK VINA RESULT:      -2.9      5.291      5.939
REMARK  1 active torsions:
REMARK  status: ('A' for Active; 'I' for Inactive)
REMARK    1  A    between atoms: C_2  and  C_3 
ROOT
HETATM    1  C   LIG     1      19.091  37.819  19.648  1.00  0.00     0.011 C 
HETATM    2  C   LIG     1      18.466  36.690  19.972  1.00  0.00    -0.011 C 
ENDROOT
BRANCH   2   3
HETATM    3  C   LIG     1      17.488  36.649  21.068  1.00  0.00    -0.011 C 
HETATM    4  C   LIG     1      17.060  35.492  21.567  1.00  0.00     0.011 C 
ENDBRANCH   2   3
TORSDOF 1
ENDMDL
MODEL 10
REMARK VINA RESULT:      -2.9     12.136     13.099
REMARK  1 active torsions:
REMARK  status: ('A' for Active; 'I' for Inactive)
REMARK    1  A    between atoms: C_2  and  C_3 
ROOT
HETATM    1  C   LIG     1      13.507  31.010  16.418  1.00  0.00     0.011 C 
HETATM    2  C   LIG     1      13.233  30.298  15.329  1.00  0.00    -0.011 C 
ENDROOT
BRANCH   2   3
HETATM    3  C   LIG     1      14.300  29.861  14.416  1.00  0.00    -0.011 C 
HETATM    4  C   LIG     1      15.300  30.673  14.087  1.00  0.00     0.011 C 
ENDBRANCH   2   3
TORSDOF 1
ENDMDL
MODEL 11
REMARK VINA RESULT:      -2.9     11.985     12.944
REMARK  1 active torsions:
REMARK  status: ('A' for Active; 'I' for Inactive)
REMARK    1  A    between atoms: C_2  and  C_3 
ROOT
HETATM    1  C   LIG     1      15.359  30.908  14.399  1.00  0.00     0.011 C 
HETATM    2  C   LIG     1      14.367  30.033  14.533  1.00  0.00    -0.011 C 
ENDROOT
BRANCH   2   3
HETATM    3  C   LIG     1      13.194  30.334  15.368  1.00  0.00    -0.011 C 
HETATM    4  C   LIG     1      13.301  31.078  16.464  1.00  0.00     0.011 C 
ENDBRANCH   2   3
TORSDOF 1
ENDMDL
MODEL 12
REMARK VINA RESULT:      -2.9      4.675      5.268
REMARK  1 active torsions:
REMARK  status: ('A' for Active; 'I' for Inactive)
REMARK    1  A    between atoms: C_2  and  C_3 
ROOT
HETATM    1  C   LIG     1      17.582  36.659  20.965  1.00  0.00     0.011 C 
HETATM    2  C   LIG     1      17.544  37.726  21.757  1.00  0.00    -0.011 C 
ENDROOT
BRANCH   2   3
HETATM    3  C   LIG     1      18.074  39.024  21.313  1.00  0.00    -0.011 C 
HETATM    4  C   LIG     1      19.221  39.107  20.644  1.00  0.00     0.011 C 
ENDBRANCH   2   3
TORSDOF 1
ENDMDL
MODEL 13
REMARK VINA RESULT:      -2.9      4.846      5.704
REMARK  1 active torsions:
REMARK  status: ('A' for Active; 'I' for Inactive)
REMARK    1  A    between atoms: C_2  and  C_3 
ROOT
HETATM    1  C   LIG     1      18.688  39.328  21.118  1.00  0.00     0.011 C 
HETATM    2  C   LIG     1      17.722  38.590  21.656  1.00  0.00    -0.011 C 
ENDROOT
BRANCH   2   3
HETATM    3  C   LIG     1      17.597  37.157  21.350  1.00  0.00    -0.011 C 
HETATM    4  C   LIG     1      18.159  36.633  20.265  1.00  0.00     0.011 C 
ENDBRANCH   2   3
TORSDOF 1
ENDMDL
MODEL 14
REMARK VINA RESULT:      -2.9      4.959      5.262
REMARK  1 active torsions:
REMARK  status: ('A' for Active; 'I' for Inactive)
REMARK    1  A    between atoms: C_2  and  C_3 
ROOT
HETATM    1  C   LIG     1      17.142  35.201  21.989  1.00  0.00     0.011 C 
HETATM    2  C   LIG     1      16.951  36.234  21.173  1.00  0.00    -0.011 C 
ENDROOT
BRANCH   2   3
HETATM    3  C   LIG     1      18.069  37.098  20.764  1.00  0.00    -0.011 C 
HETATM    4  C   LIG     1      18.827  36.793  19.716  1.00  0.00     0.011 C 
ENDBRANCH   2   3
TORSDOF 1
ENDMDL
MODEL 15
REMARK VINA RESULT:      -2.8      6.229      7.396
REMARK  1 active torsions:
REMARK  status: ('A' for Active; 'I' for Inactive)
REMARK    1  A    between atoms: C_2  and  C_3 
ROOT
HETATM    1  C   LIG     1      16.224  34.537  20.957  1.00  0.00     0.011 C 
HETATM    2  C   LIG     1      15.253  33.692  20.623  1.00  0.00    -0.011 C 
ENDROOT
BRANCH   2   3
HETATM    3  C   LIG     1      15.529  32.497  19.811  1.00  0.00    -0.011 C 
HETATM    4  C   LIG     1      14.852  31.367  19.996  1.00  0.00     0.011 C 
ENDBRANCH   2   3
TORSDOF 1
ENDMDL
MODEL 16
REMARK VINA RESULT:      -2.8      7.603      8.186
REMARK  1 active torsions:
REMARK  status: ('A' for Active; 'I' for Inactive)
REMARK    1  A    between atoms: C_2  and  C_3 
ROOT
HETATM    1  C   LIG     1      19.122  37.374  19.437  1.00  0.00     0.011 C 
HETATM    2  C   LIG     1      19.452  38.595  19.024  1.00  0.00    -0.011 C 
ENDROOT
BRANCH   2   3
HETATM    3  C   LIG     1      18.595  39.341  18.091  1.00  0.00    -0.011 C 
HETATM    4  C   LIG     1      18.947  39.512  16.820  1.00  0.00     0.011 C 
ENDBRANCH   2   3
TORSDOF 1
ENDMDL
MODEL 17
REMARK VINA RESULT:      -2.7      8.668      9.688
REMARK  1 active torsions:
REMARK  status: ('A' for Active; 'I' for Inactive)
REMARK    1  A    between atoms: C_2  and  C_3 
ROOT
HETATM    1  C   LIG     1      15.470  32.537  19.735  1.00  0.00     0.011 C 
HETATM    2  C   LIG     1      14.710  31.733  18.997  1.00  0.00    -0.011 C 
ENDROOT
BRANCH   2   3
HETATM    3  C   LIG     1      14.341  32.087  17.619  1.00  0.00    -0.011 C 
HETATM    4  C   LIG     1      13.729  31.215  16.824  1.00  0.00     0.011 C 
ENDBRANCH   2   3
TORSDOF 1
ENDMDL
MODEL 18
REMARK VINA RESULT:      -2.7      5.799      6.444
REMARK  1 active torsions:
REMARK  status: ('A' for Active; 'I' for Inactive)
REMARK    1  A    between atoms: C_2  and  C_3 
ROOT
HETATM    1  C   LIG     1      15.240  32.350  19.919  1.00  0.00     0.011 C 
HETATM    2  C   LIG     1      15.641  33.583  20.214  1.00  0.00    -0.011 C 
ENDROOT
BRANCH   2   3
HETATM    3  C   LIG     1      15.035  34.336  21.323  1.00  0.00    -0.011 C 
HETATM    4  C   LIG     1      14.992  35.665  21.310  1.00  0.00     0.011 C 
ENDBRANCH   2   3
TORSDOF 1
ENDMDL
MODEL 19
REMARK VINA RESULT:      -2.7      4.852      5.504
REMARK  1 active torsions:
REMARK  status: ('A' for Active; 'I' for Inactive)
REMARK    1  A    between atoms: C_2  and  C_3 
ROOT
HETATM    1  C   LIG     1      17.385  37.350  21.608  1.00  0.00     0.011 C 
HETATM    2  C   LIG     1      17.493  36.240  20.882  1.00  0.00    -0.011 C 
ENDROOT
BRANCH   2   3
HETATM    3  C   LIG     1      16.383  35.281  20.786  1.00  0.00    -0.011 C 
HETATM    4  C   LIG     1      15.161  35.598  21.204  1.00  0.00     0.011 C 
ENDBRANCH   2   3
TORSDOF 1
ENDMDL
MODEL 20
REMARK VINA RESULT:      -2.7      8.351      9.278
REMARK  1 active torsions:
REMARK  status: ('A' for Active; 'I' for Inactive)
REMARK    1  A    between atoms: C_2  and  C_3 
ROOT
HETATM    1  C   LIG     1      13.792  31.515  17.081  1.00  0.00     0.011 C 
HETATM    2  C   LIG     1      14.664  32.248  17.767  1.00  0.00    -0.011 C 
ENDROOT
BRANCH   2   3
HETATM    3  C   LIG     1      14.973  31.947  19.173  1.00  0.00    -0.011 C 
HETATM    4  C   LIG     1      15.402  32.893  20.002  1.00  0.00     0.011 C 
ENDBRANCH   2   3
TORSDOF 1
ENDMDL
