REMARK  0 active torsions:
REMARK  status: ('A' for Active; 'I' for Inactive)
ROOT
ATOM      1  O   GLY A   1       1.458   2.258   0.054  1.00  0.00    -0.272 OA
ATOM      2  C   GLY A   1       0.778   1.197   0.070  1.00  0.00     0.235 C 
ATOM      3  CA  GLY A   1       1.458  -0.120   0.293  1.00  0.00     0.225 C 
ATOM      4  N   GLY A   1       0.677  -1.214  -0.281  1.00  0.00    -0.351 N 
ATOM      5  H   GLY A   1       1.168  -2.102  -0.532  1.00  0.00     0.163 HD
ATOM      6  C   GLY A   2      -0.751  -1.159  -0.368  1.00  0.00     0.235 C 
ATOM      7  CA  GLY A   2      -1.489   0.076   0.055  1.00  0.00     0.225 C 
ATOM      8  N   GLY A   2      -0.645   1.261  -0.082  1.00  0.00    -0.351 N 
ATOM      9  O   GLY A   2      -1.394  -2.167  -0.767  1.00  0.00    -0.272 OA
ATOM     10  H   GLY A   2      -1.104   2.194  -0.185  1.00  0.00     0.163 HD
ENDROOT
TORSDOF 0
