REMARK  1 active torsions:
REMARK  status: ('A' for Active; 'I' for Inactive)
REMARK    1  A    between atoms: O_1  and  C_2 
ROOT
HETATM    1  C   LIG     1       1.099  -0.418   0.019  1.00  0.00     0.065 A 
HETATM    2  C   LIG     1       0.099  -1.280  -0.447  1.00  0.00     0.038 A 
HETATM    3  C   LIG     1      -1.231  -0.851  -0.498  1.00  0.00     0.026 A 
HETATM    4  C   LIG     1      -1.567   0.443  -0.082  1.00  0.00     0.034 A 
HETATM    5 CL   LIG     1      -3.235   0.981  -0.146  1.00  0.00    -0.084 Cl
HETATM    6  C   LIG     1      -0.569   1.307   0.384  1.00  0.00     0.026 A 
HETATM    7  C   LIG     1       0.761   0.878   0.435  1.00  0.00     0.038 A 
ENDROOT
BRANCH   1   8
HETATM    8  O   LIG     1       2.420  -0.858   0.064  1.00  0.00    -0.361 OA
HETATM    9  H   LIG     1       3.166  -0.258   0.397  1.00  0.00     0.217 HD
ENDBRANCH   1   8
TORSDOF 1
