REMARK  1 active torsions:
REMARK  status: ('A' for Active; 'I' for Inactive)
REMARK    1  A    between atoms: O_1  and  C_2 
ROOT
HETATM    1  C   LIG     1       1.805  -0.064   0.206  1.00  0.00     0.065 A 
HETATM    2  C   LIG     1       1.206   1.175  -0.045  1.00  0.00     0.037 A 
HETATM    3  C   LIG     1      -0.179   1.264  -0.218  1.00  0.00     0.009 A 
HETATM    4  C   LIG     1      -0.976   0.110  -0.153  1.00  0.00    -0.062 A 
HETATM    5  C   LIG     1      -2.465   0.211  -0.299  1.00  0.00     0.048 C 
HETATM    6  C   LIG     1      -0.373  -1.129   0.116  1.00  0.00     0.009 A 
HETATM    7  C   LIG     1       1.012  -1.216   0.288  1.00  0.00     0.037 A 
ENDROOT
BRANCH   1   8
HETATM    8  O   LIG     1       3.186  -0.138   0.376  1.00  0.00    -0.361 OA
HETATM    9  H   LIG     1       3.650  -1.020   0.560  1.00  0.00     0.217 HD
ENDBRANCH   1   8
TORSDOF 1
