REMARK  2 active torsions:
REMARK  status: ('A' for Active; 'I' for Inactive)
REMARK    1  A    between atoms: N_1  and  C_2 
REMARK    2  A    between atoms: C_5  and  N_6 
ROOT
HETATM    1  C   LIG     1      -1.402   0.095  -0.018  1.00  0.00     0.025 A 
HETATM    2  C   LIG     1      -0.774  -1.135  -0.262  1.00  0.00     0.031 A 
HETATM    3  C   LIG     1       0.621  -1.230  -0.243  1.00  0.00     0.031 A 
HETATM    4  C   LIG     1       1.402  -0.095   0.018  1.00  0.00     0.025 A 
HETATM    5  C   LIG     1       0.774   1.135   0.262  1.00  0.00     0.031 A 
HETATM    6  C   LIG     1      -0.621   1.230   0.243  1.00  0.00     0.031 A 
ENDROOT
BRANCH   1   7
HETATM    7  N   LIG     1      -2.829   0.191  -0.037  1.00  0.00    -0.399 N 
HETATM    8  H   LIG     1      -3.418  -0.649  -0.231  1.00  0.00     0.156 HD
HETATM    9  H   LIG     1      -3.305   1.102   0.143  1.00  0.00     0.156 HD
ENDBRANCH   1   7
BRANCH   4  10
HETATM   10  N   LIG     1       2.829  -0.191   0.037  1.00  0.00    -0.399 N 
HETATM   11  H   LIG     1       3.305  -1.102  -0.143  1.00  0.00     0.156 HD
HETATM   12  H   LIG     1       3.418   0.649   0.231  1.00  0.00     0.156 HD
ENDBRANCH   4  10
TORSDOF 2
