MODEL 1
REMARK VINA RESULT:      -6.1      0.000      0.000
REMARK  8 active torsions:
REMARK  status: ('A' for Active; 'I' for Inactive)
REMARK    1  A    between atoms: C_2  and  C_6 
REMARK    2  A    between atoms: C_2  and  O_3 
REMARK    3  A    between atoms: O_3  and  C_4 
REMARK    4  A    between atoms: C_6  and  C_7 
REMARK    5  A    between atoms: C_7  and  C_8 
REMARK    6  A    between atoms: C_8  and  C_9 
REMARK    7  A    between atoms: C_9  and  C_10 
REMARK    8  A    between atoms: C_10  and  C_11 
ROOT
HETATM    1  C   LIG     1      16.910  36.182  22.424  1.00  0.00     0.111 C 
ENDROOT
BRANCH   1   2
HETATM    2  C   LIG     1      17.323  36.348  20.996  1.00  0.00     0.258 C 
HETATM    3  O   LIG     1      16.845  35.584  20.114  1.00  0.00    -0.265 OA
BRANCH   2   4
HETATM    4  O   LIG     1      18.194  37.387  20.649  1.00  0.00    -0.322 OA
BRANCH   4   5
HETATM    5  C   LIG     1      19.184  37.274  19.629  1.00  0.00     0.174 C 
HETATM    6  C   LIG     1      20.031  38.540  19.557  1.00  0.00     0.034 C 
ENDBRANCH   4   5
ENDBRANCH   2   4
ENDBRANCH   1   2
BRANCH   1   7
HETATM    7  C   LIG     1      16.346  37.498  22.974  1.00  0.00     0.010 C 
BRANCH   7   8
HETATM    8  C   LIG     1      17.369  38.270  23.822  1.00  0.00     0.000 C 
BRANCH   8   9
HETATM    9  C   LIG     1      17.310  37.888  25.311  1.00  0.00     0.000 C 
BRANCH   9  10
HETATM   10  C   LIG     1      18.566  37.135  25.778  1.00  0.00    -0.000 C 
BRANCH  10  11
HETATM   11  C   LIG     1      18.232  35.922  26.659  1.00  0.00    -0.005 C 
HETATM   12  C   LIG     1      17.469  34.862  25.868  1.00  0.00     0.005 C 
ENDBRANCH  10  11
ENDBRANCH   9  10
ENDBRANCH   8   9
ENDBRANCH   7   8
ENDBRANCH   1   7
TORSDOF 8
ENDMDL
MODEL 2
REMARK VINA RESULT:      -6.0      2.453      5.546
REMARK  8 active torsions:
REMARK  status: ('A' for Active; 'I' for Inactive)
REMARK    1  A    between atoms: C_2  and  C_6 
REMARK    2  A    between atoms: C_2  and  O_3 
REMARK    3  A    between atoms: O_3  and  C_4 
REMARK    4  A    between atoms: C_6  and  C_7 
REMARK    5  A    between atoms: C_7  and  C_8 
REMARK    6  A    between atoms: C_8  and  C_9 
REMARK    7  A    between atoms: C_9  and  C_10 
REMARK    8  A    between atoms: C_10  and  C_11 
ROOT
HETATM    1  C   LIG     1      16.669  37.428  23.845  1.00  0.00     0.111 C 
ENDROOT
BRANCH   1   2
HETATM    2  C   LIG     1      17.410  37.901  25.055  1.00  0.00     0.258 C 
HETATM    3  O   LIG     1      17.049  38.961  25.636  1.00  0.00    -0.265 OA
BRANCH   2   4
HETATM    4  O   LIG     1      18.462  37.130  25.561  1.00  0.00    -0.322 OA
BRANCH   4   5
HETATM    5  C   LIG     1      18.336  36.276  26.696  1.00  0.00     0.174 C 
HETATM    6  C   LIG     1      18.044  34.844  26.263  1.00  0.00     0.034 C 
ENDBRANCH   4   5
ENDBRANCH   2   4
ENDBRANCH   1   2
BRANCH   1   7
HETATM    7  C   LIG     1      16.716  38.491  22.740  1.00  0.00     0.010 C 
BRANCH   7   8
HETATM    8  C   LIG     1      18.151  38.862  22.338  1.00  0.00     0.000 C 
BRANCH   8   9
HETATM    9  C   LIG     1      18.275  39.212  20.845  1.00  0.00     0.000 C 
BRANCH   9  10
HETATM   10  C   LIG     1      19.717  39.086  20.327  1.00  0.00    -0.000 C 
BRANCH  10  11
HETATM   11  C   LIG     1      19.916  37.853  19.433  1.00  0.00    -0.005 C 
HETATM   12  C   LIG     1      18.740  36.888  19.559  1.00  0.00     0.005 C 
ENDBRANCH  10  11
ENDBRANCH   9  10
ENDBRANCH   8   9
ENDBRANCH   7   8
ENDBRANCH   1   7
TORSDOF 8
ENDMDL
MODEL 3
REMARK VINA RESULT:      -6.0      2.164      5.539
REMARK  8 active torsions:
REMARK  status: ('A' for Active; 'I' for Inactive)
REMARK    1  A    between atoms: C_2  and  C_6 
REMARK    2  A    between atoms: C_2  and  O_3 
REMARK    3  A    between atoms: O_3  and  C_4 
REMARK    4  A    between atoms: C_6  and  C_7 
REMARK    5  A    between atoms: C_7  and  C_8 
REMARK    6  A    between atoms: C_8  and  C_9 
REMARK    7  A    between atoms: C_9  and  C_10 
REMARK    8  A    between atoms: C_10  and  C_11 
ROOT
HETATM    1  C   LIG     1      16.581  37.355  23.439  1.00  0.00     0.111 C 
ENDROOT
BRANCH   1   2
HETATM    2  C   LIG     1      17.258  37.743  24.716  1.00  0.00     0.258 C 
HETATM    3  O   LIG     1      16.826  38.725  25.379  1.00  0.00    -0.265 OA
BRANCH   2   4
HETATM    4  O   LIG     1      18.329  36.975  25.186  1.00  0.00    -0.322 OA
BRANCH   4   5
HETATM    5  C   LIG     1      18.340  36.342  26.463  1.00  0.00     0.174 C 
HETATM    6  C   LIG     1      18.112  34.841  26.322  1.00  0.00     0.034 C 
ENDBRANCH   4   5
ENDBRANCH   2   4
ENDBRANCH   1   2
BRANCH   1   7
HETATM    7  C   LIG     1      16.978  35.929  23.036  1.00  0.00     0.010 C 
BRANCH   7   8
HETATM    8  C   LIG     1      17.213  35.787  21.524  1.00  0.00     0.000 C 
BRANCH   8   9
HETATM    9  C   LIG     1      17.697  37.096  20.875  1.00  0.00     0.000 C 
BRANCH   9  10
HETATM   10  C   LIG     1      18.745  36.858  19.776  1.00  0.00    -0.000 C 
BRANCH  10  11
HETATM   11  C   LIG     1      19.658  38.074  19.561  1.00  0.00    -0.005 C 
HETATM   12  C   LIG     1      19.209  39.257  20.415  1.00  0.00     0.005 C 
ENDBRANCH  10  11
ENDBRANCH   9  10
ENDBRANCH   8   9
ENDBRANCH   7   8
ENDBRANCH   1   7
TORSDOF 8
ENDMDL
MODEL 4
REMARK VINA RESULT:      -6.0      1.577      2.778
REMARK  8 active torsions:
REMARK  status: ('A' for Active; 'I' for Inactive)
REMARK    1  A    between atoms: C_2  and  C_6 
REMARK    2  A    between atoms: C_2  and  O_3 
REMARK    3  A    between atoms: O_3  and  C_4 
REMARK    4  A    between atoms: C_6  and  C_7 
REMARK    5  A    between atoms: C_7  and  C_8 
REMARK    6  A    between atoms: C_8  and  C_9 
REMARK    7  A    between atoms: C_9  and  C_10 
REMARK    8  A    between atoms: C_10  and  C_11 
ROOT
HETATM    1  C   LIG     1      17.085  36.215  22.126  1.00  0.00     0.111 C 
ENDROOT
BRANCH   1   2
HETATM    2  C   LIG     1      17.155  35.912  20.663  1.00  0.00     0.258 C 
HETATM    3  O   LIG     1      18.122  36.345  19.980  1.00  0.00    -0.265 OA
BRANCH   2   4
HETATM    4  O   LIG     1      16.173  35.102  20.081  1.00  0.00    -0.322 OA
BRANCH   4   5
HETATM    5  C   LIG     1      15.539  34.023  20.764  1.00  0.00     0.174 C 
HETATM    6  C   LIG     1      15.461  32.791  19.868  1.00  0.00     0.034 C 
ENDBRANCH   4   5
ENDBRANCH   2   4
ENDBRANCH   1   2
BRANCH   1   7
HETATM    7  C   LIG     1      16.763  37.698  22.349  1.00  0.00     0.010 C 
BRANCH   7   8
HETATM    8  C   LIG     1      17.435  38.264  23.610  1.00  0.00     0.000 C 
BRANCH   8   9
HETATM    9  C   LIG     1      17.134  37.429  24.866  1.00  0.00     0.000 C 
BRANCH   9  10
HETATM   10  C   LIG     1      18.389  37.159  25.712  1.00  0.00    -0.000 C 
BRANCH  10  11
HETATM   11  C   LIG     1      18.261  35.891  26.568  1.00  0.00    -0.005 C 
HETATM   12  C   LIG     1      17.430  34.828  25.854  1.00  0.00     0.005 C 
ENDBRANCH  10  11
ENDBRANCH   9  10
ENDBRANCH   8   9
ENDBRANCH   7   8
ENDBRANCH   1   7
TORSDOF 8
ENDMDL
MODEL 5
REMARK VINA RESULT:      -5.7      1.550      1.980
REMARK  8 active torsions:
REMARK  status: ('A' for Active; 'I' for Inactive)
REMARK    1  A    between atoms: C_2  and  C_6 
REMARK    2  A    between atoms: C_2  and  O_3 
REMARK    3  A    between atoms: O_3  and  C_4 
REMARK    4  A    between atoms: C_6  and  C_7 
REMARK    5  A    between atoms: C_7  and  C_8 
REMARK    6  A    between atoms: C_8  and  C_9 
REMARK    7  A    between atoms: C_9  and  C_10 
REMARK    8  A    between atoms: C_10  and  C_11 
ROOT
HETATM    1  C   LIG     1      18.487  39.009  22.027  1.00  0.00     0.111 C 
ENDROOT
BRANCH   1   2
HETATM    2  C   LIG     1      18.630  38.537  20.614  1.00  0.00     0.258 C 
HETATM    3  O   LIG     1      18.381  37.335  20.328  1.00  0.00    -0.265 OA
BRANCH   2   4
HETATM    4  O   LIG     1      18.986  39.453  19.617  1.00  0.00    -0.322 OA
BRANCH   4   5
HETATM    5  C   LIG     1      19.382  39.068  18.303  1.00  0.00     0.174 C 
HETATM    6  C   LIG     1      18.510  39.751  17.255  1.00  0.00     0.034 C 
ENDBRANCH   4   5
ENDBRANCH   2   4
ENDBRANCH   1   2
BRANCH   1   7
HETATM    7  C   LIG     1      17.080  38.700  22.554  1.00  0.00     0.010 C 
BRANCH   7   8
HETATM    8  C   LIG     1      17.026  37.393  23.360  1.00  0.00     0.000 C 
BRANCH   8   9
HETATM    9  C   LIG     1      17.011  37.637  24.879  1.00  0.00     0.000 C 
BRANCH   9  10
HETATM   10  C   LIG     1      18.383  37.392  25.529  1.00  0.00    -0.000 C 
BRANCH  10  11
HETATM   11  C   LIG     1      18.326  36.335  26.642  1.00  0.00    -0.005 C 
HETATM   12  C   LIG     1      17.967  34.963  26.079  1.00  0.00     0.005 C 
ENDBRANCH  10  11
ENDBRANCH   9  10
ENDBRANCH   8   9
ENDBRANCH   7   8
ENDBRANCH   1   7
TORSDOF 8
ENDMDL
MODEL 6
REMARK VINA RESULT:      -5.5      2.660      3.733
REMARK  8 active torsions:
REMARK  status: ('A' for Active; 'I' for Inactive)
REMARK    1  A    between atoms: C_2  and  C_6 
REMARK    2  A    between atoms: C_2  and  O_3 
REMARK    3  A    between atoms: O_3  and  C_4 
REMARK    4  A    between atoms: C_6  and  C_7 
REMARK    5  A    between atoms: C_7  and  C_8 
REMARK    6  A    between atoms: C_8  and  C_9 
REMARK    7  A    between atoms: C_9  and  C_10 
REMARK    8  A    between atoms: C_10  and  C_11 
ROOT
HETATM    1  C   LIG     1      15.738  35.680  20.984  1.00  0.00     0.111 C 
ENDROOT
BRANCH   1   2
HETATM    2  C   LIG     1      15.343  34.237  20.988  1.00  0.00     0.258 C 
HETATM    3  O   LIG     1      14.399  33.849  21.728  1.00  0.00    -0.265 OA
BRANCH   2   4
HETATM    4  O   LIG     1      15.993  33.345  20.128  1.00  0.00    -0.322 OA
BRANCH   4   5
HETATM    5  C   LIG     1      15.410  32.125  19.676  1.00  0.00     0.174 C 
HETATM    6  C   LIG     1      14.875  32.276  18.256  1.00  0.00     0.034 C 
ENDBRANCH   4   5
ENDBRANCH   2   4
ENDBRANCH   1   2
BRANCH   1   7
HETATM    7  C   LIG     1      16.562  36.012  22.234  1.00  0.00     0.010 C 
BRANCH   7   8
HETATM    8  C   LIG     1      16.877  37.511  22.352  1.00  0.00     0.000 C 
BRANCH   8   9
HETATM    9  C   LIG     1      17.562  37.868  23.683  1.00  0.00     0.000 C 
BRANCH   9  10
HETATM   10  C   LIG     1      17.139  36.939  24.832  1.00  0.00    -0.000 C 
BRANCH  10  11
HETATM   11  C   LIG     1      18.262  36.720  25.856  1.00  0.00    -0.005 C 
HETATM   12  C   LIG     1      18.267  35.281  26.365  1.00  0.00     0.005 C 
ENDBRANCH  10  11
ENDBRANCH   9  10
ENDBRANCH   8   9
ENDBRANCH   7   8
ENDBRANCH   1   7
TORSDOF 8
ENDMDL
MODEL 7
REMARK VINA RESULT:      -5.4      2.676      4.776
REMARK  8 active torsions:
REMARK  status: ('A' for Active; 'I' for Inactive)
REMARK    1  A    between atoms: C_2  and  C_6 
REMARK    2  A    between atoms: C_2  and  O_3 
REMARK    3  A    between atoms: O_3  and  C_4 
REMARK    4  A    between atoms: C_6  and  C_7 
REMARK    5  A    between atoms: C_7  and  C_8 
REMARK    6  A    between atoms: C_8  and  C_9 
REMARK    7  A    between atoms: C_9  and  C_10 
REMARK    8  A    between atoms: C_10  and  C_11 
ROOT
HETATM    1  C   LIG     1      15.974  35.709  21.425  1.00  0.00     0.111 C 
ENDROOT
BRANCH   1   2
HETATM    2  C   LIG     1      15.372  34.386  21.070  1.00  0.00     0.258 C 
HETATM    3  O   LIG     1      14.388  33.950  21.726  1.00  0.00    -0.265 OA
BRANCH   2   4
HETATM    4  O   LIG     1      15.877  33.674  19.976  1.00  0.00    -0.322 OA
BRANCH   4   5
HETATM    5  C   LIG     1      15.401  32.386  19.591  1.00  0.00     0.174 C 
HETATM    6  C   LIG     1      14.969  32.387  18.128  1.00  0.00     0.034 C 
ENDBRANCH   4   5
ENDBRANCH   2   4
ENDBRANCH   1   2
BRANCH   1   7
HETATM    7  C   LIG     1      16.832  35.584  22.690  1.00  0.00     0.010 C 
BRANCH   7   8
HETATM    8  C   LIG     1      17.092  36.940  23.363  1.00  0.00     0.000 C 
BRANCH   8   9
HETATM    9  C   LIG     1      16.722  38.129  22.460  1.00  0.00     0.000 C 
BRANCH   9  10
HETATM   10  C   LIG     1      17.957  38.880  21.936  1.00  0.00    -0.000 C 
BRANCH  10  11
HETATM   11  C   LIG     1      18.539  38.242  20.667  1.00  0.00    -0.005 C 
HETATM   12  C   LIG     1      19.738  39.036  20.153  1.00  0.00     0.005 C 
ENDBRANCH  10  11
ENDBRANCH   9  10
ENDBRANCH   8   9
ENDBRANCH   7   8
ENDBRANCH   1   7
TORSDOF 8
ENDMDL
MODEL 8
REMARK VINA RESULT:      -5.2      1.876      2.539
REMARK  8 active torsions:
REMARK  status: ('A' for Active; 'I' for Inactive)
REMARK    1  A    between atoms: C_2  and  C_6 
REMARK    2  A    between atoms: C_2  and  O_3 
REMARK    3  A    between atoms: O_3  and  C_4 
REMARK    4  A    between atoms: C_6  and  C_7 
REMARK    5  A    between atoms: C_7  and  C_8 
REMARK    6  A    between atoms: C_8  and  C_9 
REMARK    7  A    between atoms: C_9  and  C_10 
REMARK    8  A    between atoms: C_10  and  C_11 
ROOT
HETATM    1  C   LIG     1      17.840  37.621  23.111  1.00  0.00     0.111 C 
ENDROOT
BRANCH   1   2
HETATM    2  C   LIG     1      17.426  38.901  22.458  1.00  0.00     0.258 C 
HETATM    3  O   LIG     1      16.268  39.358  22.654  1.00  0.00    -0.265 OA
BRANCH   2   4
HETATM    4  O   LIG     1      18.352  39.605  21.680  1.00  0.00    -0.322 OA
BRANCH   4   5
HETATM    5  C   LIG     1      18.561  39.357  20.291  1.00  0.00     0.174 C 
HETATM    6  C   LIG     1      19.989  38.884  20.037  1.00  0.00     0.034 C 
ENDBRANCH   4   5
ENDBRANCH   2   4
ENDBRANCH   1   2
BRANCH   1   7
HETATM    7  C   LIG     1      16.698  36.598  23.054  1.00  0.00     0.010 C 
BRANCH   7   8
HETATM    8  C   LIG     1      17.149  35.186  23.460  1.00  0.00     0.000 C 
BRANCH   8   9
HETATM    9  C   LIG     1      16.899  34.892  24.949  1.00  0.00     0.000 C 
BRANCH   9  10
HETATM   10  C   LIG     1      18.202  34.780  25.757  1.00  0.00    -0.000 C 
BRANCH  10  11
HETATM   11  C   LIG     1      18.298  35.835  26.868  1.00  0.00    -0.005 C 
HETATM   12  C   LIG     1      18.664  37.203  26.298  1.00  0.00     0.005 C 
ENDBRANCH  10  11
ENDBRANCH   9  10
ENDBRANCH   8   9
ENDBRANCH   7   8
ENDBRANCH   1   7
TORSDOF 8
ENDMDL
MODEL 9
REMARK VINA RESULT:      -5.1      3.990      5.591
REMARK  8 active torsions:
REMARK  status: ('A' for Active; 'I' for Inactive)
REMARK    1  A    between atoms: C_2  and  C_6 
REMARK    2  A    between atoms: C_2  and  O_3 
REMARK    3  A    between atoms: O_3  and  C_4 
REMARK    4  A    between atoms: C_6  and  C_7 
REMARK    5  A    between atoms: C_7  and  C_8 
REMARK    6  A    between atoms: C_8  and  C_9 
REMARK    7  A    between atoms: C_9  and  C_10 
REMARK    8  A    between atoms: C_10  and  C_11 
ROOT
HETATM    1  C   LIG     1      15.276  32.770  20.178  1.00  0.00     0.111 C 
ENDROOT
BRANCH   1   2
HETATM    2  C   LIG     1      15.035  32.312  18.774  1.00  0.00     0.258 C 
HETATM    3  O   LIG     1      14.181  31.412  18.547  1.00  0.00    -0.265 OA
BRANCH   2   4
HETATM    4  O   LIG     1      15.724  32.928  17.723  1.00  0.00    -0.322 OA
BRANCH   4   5
HETATM    5  C   LIG     1      15.148  33.168  16.441  1.00  0.00     0.174 C 
HETATM    6  C   LIG     1      15.860  32.351  15.369  1.00  0.00     0.034 C 
ENDBRANCH   4   5
ENDBRANCH   2   4
ENDBRANCH   1   2
BRANCH   1   7
HETATM    7  C   LIG     1      15.701  34.244  20.193  1.00  0.00     0.010 C 
BRANCH   7   8
HETATM    8  C   LIG     1      16.065  34.739  21.602  1.00  0.00     0.000 C 
BRANCH   8   9
HETATM    9  C   LIG     1      16.110  36.274  21.695  1.00  0.00     0.000 C 
BRANCH   9  10
HETATM   10  C   LIG     1      17.465  36.853  21.257  1.00  0.00    -0.000 C 
BRANCH  10  11
HETATM   11  C   LIG     1      17.685  38.285  21.764  1.00  0.00    -0.005 C 
HETATM   12  C   LIG     1      18.561  39.081  20.800  1.00  0.00     0.005 C 
ENDBRANCH  10  11
ENDBRANCH   9  10
ENDBRANCH   8   9
ENDBRANCH   7   8
ENDBRANCH   1   7
TORSDOF 8
ENDMDL
MODEL 10
REMARK VINA RESULT:      -5.1      7.157      9.859
REMARK  8 active torsions:
REMARK  status: ('A' for Active; 'I' for Inactive)
REMARK    1  A    between atoms: C_2  and  C_6 
REMARK    2  A    between atoms: C_2  and  O_3 
REMARK    3  A    between atoms: O_3  and  C_4 
REMARK    4  A    between atoms: C_6  and  C_7 
REMARK    5  A    between atoms: C_7  and  C_8 
REMARK    6  A    between atoms: C_8  and  C_9 
REMARK    7  A    between atoms: C_9  and  C_10 
REMARK    8  A    between atoms: C_10  and  C_11 
ROOT
HETATM    1  C   LIG     1      16.348  33.146  15.264  1.00  0.00     0.111 C 
ENDROOT
BRANCH   1   2
HETATM    2  C   LIG     1      15.692  33.512  16.558  1.00  0.00     0.258 C 
HETATM    3  O   LIG     1      15.066  34.602  16.655  1.00  0.00    -0.265 OA
BRANCH   2   4
HETATM    4  O   LIG     1      15.737  32.613  17.629  1.00  0.00    -0.322 OA
BRANCH   4   5
HETATM    5  C   LIG     1      15.199  32.900  18.918  1.00  0.00     0.174 C 
HETATM    6  C   LIG     1      14.950  31.613  19.697  1.00  0.00     0.034 C 
ENDBRANCH   4   5
ENDBRANCH   2   4
ENDBRANCH   1   2
BRANCH   1   7
HETATM    7  C   LIG     1      16.377  31.622  15.092  1.00  0.00     0.010 C 
BRANCH   7   8
HETATM    8  C   LIG     1      15.404  31.131  14.009  1.00  0.00     0.000 C 
BRANCH   8   9
HETATM    9  C   LIG     1      14.675  29.837  14.412  1.00  0.00     0.000 C 
BRANCH   9  10
HETATM   10  C   LIG     1      13.255  30.099  14.940  1.00  0.00    -0.000 C 
BRANCH  10  11
HETATM   11  C   LIG     1      13.243  30.499  16.423  1.00  0.00    -0.005 C 
HETATM   12  C   LIG     1      12.496  31.814  16.631  1.00  0.00     0.005 C 
ENDBRANCH  10  11
ENDBRANCH   9  10
ENDBRANCH   8   9
ENDBRANCH   7   8
ENDBRANCH   1   7
TORSDOF 8
ENDMDL
MODEL 11
REMARK VINA RESULT:      -5.0      9.306     10.516
REMARK  8 active torsions:
REMARK  status: ('A' for Active; 'I' for Inactive)
REMARK    1  A    between atoms: C_2  and  C_6 
REMARK    2  A    between atoms: C_2  and  O_3 
REMARK    3  A    between atoms: O_3  and  C_4 
REMARK    4  A    between atoms: C_6  and  C_7 
REMARK    5  A    between atoms: C_7  and  C_8 
REMARK    6  A    between atoms: C_8  and  C_9 
REMARK    7  A    between atoms: C_9  and  C_10 
REMARK    8  A    between atoms: C_10  and  C_11 
ROOT
HETATM    1  C   LIG     1      16.975  32.855  14.296  1.00  0.00     0.111 C 
ENDROOT
BRANCH   1   2
HETATM    2  C   LIG     1      17.671  33.618  13.213  1.00  0.00     0.258 C 
HETATM    3  O   LIG     1      17.320  34.802  12.957  1.00  0.00    -0.265 OA
BRANCH   2   4
HETATM    4  O   LIG     1      18.741  33.025  12.535  1.00  0.00    -0.322 OA
BRANCH   4   5
HETATM    5  C   LIG     1      19.705  33.765  11.789  1.00  0.00     0.174 C 
HETATM    6  C   LIG     1      20.936  34.059  12.639  1.00  0.00     0.034 C 
ENDBRANCH   4   5
ENDBRANCH   2   4
ENDBRANCH   1   2
BRANCH   1   7
HETATM    7  C   LIG     1      15.948  31.888  13.693  1.00  0.00     0.010 C 
BRANCH   7   8
HETATM    8  C   LIG     1      15.674  30.678  14.599  1.00  0.00     0.000 C 
BRANCH   8   9
HETATM    9  C   LIG     1      14.370  29.948  14.232  1.00  0.00     0.000 C 
BRANCH   9  10
HETATM   10  C   LIG     1      13.238  30.220  15.236  1.00  0.00    -0.000 C 
BRANCH  10  11
HETATM   11  C   LIG     1      13.749  30.834  16.547  1.00  0.00    -0.005 C 
HETATM   12  C   LIG     1      13.093  32.187  16.812  1.00  0.00     0.005 C 
ENDBRANCH  10  11
ENDBRANCH   9  10
ENDBRANCH   8   9
ENDBRANCH   7   8
ENDBRANCH   1   7
TORSDOF 8
ENDMDL
MODEL 12
REMARK VINA RESULT:      -4.9      2.213      4.088
REMARK  8 active torsions:
REMARK  status: ('A' for Active; 'I' for Inactive)
REMARK    1  A    between atoms: C_2  and  C_6 
REMARK    2  A    between atoms: C_2  and  O_3 
REMARK    3  A    between atoms: O_3  and  C_4 
REMARK    4  A    between atoms: C_6  and  C_7 
REMARK    5  A    between atoms: C_7  and  C_8 
REMARK    6  A    between atoms: C_8  and  C_9 
REMARK    7  A    between atoms: C_9  and  C_10 
REMARK    8  A    between atoms: C_10  and  C_11 
ROOT
HETATM    1  C   LIG     1      17.326  38.135  24.421  1.00  0.00     0.111 C 
ENDROOT
BRANCH   1   2
HETATM    2  C   LIG     1      17.143  38.818  23.102  1.00  0.00     0.258 C 
HETATM    3  O   LIG     1      16.005  39.250  22.774  1.00  0.00    -0.265 OA
BRANCH   2   4
HETATM    4  O   LIG     1      18.252  39.016  22.272  1.00  0.00    -0.322 OA
BRANCH   4   5
HETATM    5  C   LIG     1      18.379  38.430  20.979  1.00  0.00     0.174 C 
HETATM    6  C   LIG     1      19.482  39.118  20.182  1.00  0.00     0.034 C 
ENDBRANCH   4   5
ENDBRANCH   2   4
ENDBRANCH   1   2
BRANCH   1   7
HETATM    7  C   LIG     1      17.407  36.616  24.230  1.00  0.00     0.010 C 
BRANCH   7   8
HETATM    8  C   LIG     1      16.451  36.105  23.141  1.00  0.00     0.000 C 
BRANCH   8   9
HETATM    9  C   LIG     1      17.123  35.104  22.186  1.00  0.00     0.000 C 
BRANCH   9  10
HETATM   10  C   LIG     1      16.386  34.984  20.842  1.00  0.00    -0.000 C 
BRANCH  10  11
HETATM   11  C   LIG     1      15.245  33.957  20.885  1.00  0.00    -0.005 C 
HETATM   12  C   LIG     1      15.490  32.823  19.894  1.00  0.00     0.005 C 
ENDBRANCH  10  11
ENDBRANCH   9  10
ENDBRANCH   8   9
ENDBRANCH   7   8
ENDBRANCH   1   7
TORSDOF 8
ENDMDL
MODEL 13
REMARK VINA RESULT:      -4.9      8.152     10.503
REMARK  8 active torsions:
REMARK  status: ('A' for Active; 'I' for Inactive)
REMARK    1  A    between atoms: C_2  and  C_6 
REMARK    2  A    between atoms: C_2  and  O_3 
REMARK    3  A    between atoms: O_3  and  C_4 
REMARK    4  A    between atoms: C_6  and  C_7 
REMARK    5  A    between atoms: C_7  and  C_8 
REMARK    6  A    between atoms: C_8  and  C_9 
REMARK    7  A    between atoms: C_9  and  C_10 
REMARK    8  A    between atoms: C_10  and  C_11 
ROOT
HETATM    1  C   LIG     1      13.667  32.415  16.880  1.00  0.00     0.111 C 
ENDROOT
BRANCH   1   2
HETATM    2  C   LIG     1      15.018  33.055  16.930  1.00  0.00     0.258 C 
HETATM    3  O   LIG     1      15.557  33.296  18.044  1.00  0.00    -0.265 OA
BRANCH   2   4
HETATM    4  O   LIG     1      15.692  33.329  15.734  1.00  0.00    -0.322 OA
BRANCH   4   5
HETATM    5  C   LIG     1      16.858  32.625  15.311  1.00  0.00     0.174 C 
HETATM    6  C   LIG     1      17.643  33.445  14.293  1.00  0.00     0.034 C 
ENDBRANCH   4   5
ENDBRANCH   2   4
ENDBRANCH   1   2
BRANCH   1   7
HETATM    7  C   LIG     1      13.796  30.916  16.585  1.00  0.00     0.010 C 
BRANCH   7   8
HETATM    8  C   LIG     1      12.679  30.397  15.665  1.00  0.00     0.000 C 
BRANCH   8   9
HETATM    9  C   LIG     1      13.223  29.602  14.466  1.00  0.00     0.000 C 
BRANCH   9  10
HETATM   10  C   LIG     1      14.641  30.037  14.063  1.00  0.00    -0.000 C 
BRANCH  10  11
HETATM   11  C   LIG     1      15.639  28.870  14.069  1.00  0.00    -0.005 C 
HETATM   12  C   LIG     1      14.986  27.585  13.566  1.00  0.00     0.005 C 
ENDBRANCH  10  11
ENDBRANCH   9  10
ENDBRANCH   8   9
ENDBRANCH   7   8
ENDBRANCH   1   7
TORSDOF 8
ENDMDL
MODEL 14
REMARK VINA RESULT:      -4.8      6.904      9.608
REMARK  8 active torsions:
REMARK  status: ('A' for Active; 'I' for Inactive)
REMARK    1  A    between atoms: C_2  and  C_6 
REMARK    2  A    between atoms: C_2  and  O_3 
REMARK    3  A    between atoms: O_3  and  C_4 
REMARK    4  A    between atoms: C_6  and  C_7 
REMARK    5  A    between atoms: C_7  and  C_8 
REMARK    6  A    between atoms: C_8  and  C_9 
REMARK    7  A    between atoms: C_9  and  C_10 
REMARK    8  A    between atoms: C_10  and  C_11 
ROOT
HETATM    1  C   LIG     1      14.102  32.886  16.755  1.00  0.00     0.111 C 
ENDROOT
BRANCH   1   2
HETATM    2  C   LIG     1      15.193  33.790  17.237  1.00  0.00     0.258 C 
HETATM    3  O   LIG     1      15.696  34.638  16.451  1.00  0.00    -0.265 OA
BRANCH   2   4
HETATM    4  O   LIG     1      15.603  33.720  18.573  1.00  0.00    -0.322 OA
BRANCH   4   5
HETATM    5  C   LIG     1      15.595  34.838  19.457  1.00  0.00     0.174 C 
HETATM    6  C   LIG     1      15.876  34.396  20.889  1.00  0.00     0.034 C 
ENDBRANCH   4   5
ENDBRANCH   2   4
ENDBRANCH   1   2
BRANCH   1   7
HETATM    7  C   LIG     1      14.142  31.551  17.509  1.00  0.00     0.010 C 
BRANCH   7   8
HETATM    8  C   LIG     1      13.242  30.484  16.867  1.00  0.00     0.000 C 
BRANCH   8   9
HETATM    9  C   LIG     1      13.093  30.673  15.347  1.00  0.00     0.000 C 
BRANCH   9  10
HETATM   10  C   LIG     1      13.862  29.614  14.542  1.00  0.00    -0.000 C 
BRANCH  10  11
HETATM   11  C   LIG     1      15.348  29.963  14.377  1.00  0.00    -0.005 C 
HETATM   12  C   LIG     1      15.531  31.163  13.452  1.00  0.00     0.005 C 
ENDBRANCH  10  11
ENDBRANCH   9  10
ENDBRANCH   8   9
ENDBRANCH   7   8
ENDBRANCH   1   7
TORSDOF 8
ENDMDL
MODEL 15
REMARK VINA RESULT:      -4.7      6.928      8.887
REMARK  8 active torsions:
REMARK  status: ('A' for Active; 'I' for Inactive)
REMARK    1  A    between atoms: C_2  and  C_6 
REMARK    2  A    between atoms: C_2  and  O_3 
REMARK    3  A    between atoms: O_3  and  C_4 
REMARK    4  A    between atoms: C_6  and  C_7 
REMARK    5  A    between atoms: C_7  and  C_8 
REMARK    6  A    between atoms: C_8  and  C_9 
REMARK    7  A    between atoms: C_9  and  C_10 
REMARK    8  A    between atoms: C_10  and  C_11 
ROOT
HETATM    1  C   LIG     1      17.165  32.962  14.743  1.00  0.00     0.111 C 
ENDROOT
BRANCH   1   2
HETATM    2  C   LIG     1      17.661  33.666  13.519  1.00  0.00     0.258 C 
HETATM    3  O   LIG     1      17.464  34.904  13.387  1.00  0.00    -0.265 OA
BRANCH   2   4
HETATM    4  O   LIG     1      18.388  32.950  12.562  1.00  0.00    -0.322 OA
BRANCH   4   5
HETATM    5  C   LIG     1      19.467  33.508  11.816  1.00  0.00     0.174 C 
HETATM    6  C   LIG     1      20.700  33.680  12.697  1.00  0.00     0.034 C 
ENDBRANCH   4   5
ENDBRANCH   2   4
ENDBRANCH   1   2
BRANCH   1   7
HETATM    7  C   LIG     1      16.001  32.028  14.387  1.00  0.00     0.010 C 
BRANCH   7   8
HETATM    8  C   LIG     1      15.055  31.785  15.573  1.00  0.00     0.000 C 
BRANCH   8   9
HETATM    9  C   LIG     1      15.477  32.561  16.833  1.00  0.00     0.000 C 
BRANCH   9  10
HETATM   10  C   LIG     1      14.638  32.185  18.066  1.00  0.00    -0.000 C 
BRANCH  10  11
HETATM   11  C   LIG     1      15.490  32.038  19.335  1.00  0.00    -0.005 C 
HETATM   12  C   LIG     1      15.446  33.311  20.177  1.00  0.00     0.005 C 
ENDBRANCH  10  11
ENDBRANCH   9  10
ENDBRANCH   8   9
ENDBRANCH   7   8
ENDBRANCH   1   7
TORSDOF 8
ENDMDL
MODEL 16
REMARK VINA RESULT:      -4.7      8.286     10.621
REMARK  8 active torsions:
REMARK  status: ('A' for Active; 'I' for Inactive)
REMARK    1  A    between atoms: C_2  and  C_6 
REMARK    2  A    between atoms: C_2  and  O_3 
REMARK    3  A    between atoms: O_3  and  C_4 
REMARK    4  A    between atoms: C_6  and  C_7 
REMARK    5  A    between atoms: C_7  and  C_8 
REMARK    6  A    between atoms: C_8  and  C_9 
REMARK    7  A    between atoms: C_9  and  C_10 
REMARK    8  A    between atoms: C_10  and  C_11 
ROOT
HETATM    1  C   LIG     1      16.559  32.418  15.430  1.00  0.00     0.111 C 
ENDROOT
BRANCH   1   2
HETATM    2  C   LIG     1      15.653  33.381  16.131  1.00  0.00     0.258 C 
HETATM    3  O   LIG     1      16.007  34.582  16.273  1.00  0.00    -0.265 OA
BRANCH   2   4
HETATM    4  O   LIG     1      14.398  32.946  16.573  1.00  0.00    -0.322 OA
BRANCH   4   5
HETATM    5  C   LIG     1      14.173  31.667  17.161  1.00  0.00     0.174 C 
HETATM    6  C   LIG     1      13.215  30.843  16.308  1.00  0.00     0.034 C 
ENDBRANCH   4   5
ENDBRANCH   2   4
ENDBRANCH   1   2
BRANCH   1   7
HETATM    7  C   LIG     1      16.802  32.868  13.985  1.00  0.00     0.010 C 
BRANCH   7   8
HETATM    8  C   LIG     1      18.196  33.485  13.785  1.00  0.00     0.000 C 
BRANCH   8   9
HETATM    9  C   LIG     1      18.346  34.174  12.418  1.00  0.00     0.000 C 
BRANCH   9  10
HETATM   10  C   LIG     1      19.720  33.919  11.776  1.00  0.00    -0.000 C 
BRANCH  10  11
HETATM   11  C   LIG     1      20.818  33.661  12.818  1.00  0.00    -0.005 C 
HETATM   12  C   LIG     1      21.864  34.773  12.800  1.00  0.00     0.005 C 
ENDBRANCH  10  11
ENDBRANCH   9  10
ENDBRANCH   8   9
ENDBRANCH   7   8
ENDBRANCH   1   7
TORSDOF 8
ENDMDL
MODEL 17
REMARK VINA RESULT:      -4.7      6.071      7.636
REMARK  8 active torsions:
REMARK  status: ('A' for Active; 'I' for Inactive)
REMARK    1  A    between atoms: C_2  and  C_6 
REMARK    2  A    between atoms: C_2  and  O_3 
REMARK    3  A    between atoms: O_3  and  C_4 
REMARK    4  A    between atoms: C_6  and  C_7 
REMARK    5  A    between atoms: C_7  and  C_8 
REMARK    6  A    between atoms: C_8  and  C_9 
REMARK    7  A    between atoms: C_9  and  C_10 
REMARK    8  A    between atoms: C_10  and  C_11 
ROOT
HETATM    1  C   LIG     1      15.089  32.001  16.434  1.00  0.00     0.111 C 
ENDROOT
BRANCH   1   2
HETATM    2  C   LIG     1      16.021  32.557  15.405  1.00  0.00     0.258 C 
HETATM    3  O   LIG     1      16.449  33.737  15.521  1.00  0.00    -0.265 OA
BRANCH   2   4
HETATM    4  O   LIG     1      16.450  31.739  14.353  1.00  0.00    -0.322 OA
BRANCH   4   5
HETATM    5  C   LIG     1      15.562  31.139  13.413  1.00  0.00     0.174 C 
HETATM    6  C   LIG     1      15.379  29.655  13.715  1.00  0.00     0.034 C 
ENDBRANCH   4   5
ENDBRANCH   2   4
ENDBRANCH   1   2
BRANCH   1   7
HETATM    7  C   LIG     1      14.957  32.970  17.616  1.00  0.00     0.010 C 
BRANCH   7   8
HETATM    8  C   LIG     1      14.892  32.245  18.969  1.00  0.00     0.000 C 
BRANCH   8   9
HETATM    9  C   LIG     1      15.733  32.943  20.053  1.00  0.00     0.000 C 
BRANCH   9  10
HETATM   10  C   LIG     1      14.874  33.762  21.030  1.00  0.00    -0.000 C 
BRANCH  10  11
HETATM   11  C   LIG     1      15.441  35.168  21.274  1.00  0.00    -0.005 C 
HETATM   12  C   LIG     1      16.805  35.101  21.957  1.00  0.00     0.005 C 
ENDBRANCH  10  11
ENDBRANCH   9  10
ENDBRANCH   8   9
ENDBRANCH   7   8
ENDBRANCH   1   7
TORSDOF 8
ENDMDL
MODEL 18
REMARK VINA RESULT:      -4.6      2.236      5.101
REMARK  8 active torsions:
REMARK  status: ('A' for Active; 'I' for Inactive)
REMARK    1  A    between atoms: C_2  and  C_6 
REMARK    2  A    between atoms: C_2  and  O_3 
REMARK    3  A    between atoms: O_3  and  C_4 
REMARK    4  A    between atoms: C_6  and  C_7 
REMARK    5  A    between atoms: C_7  and  C_8 
REMARK    6  A    between atoms: C_8  and  C_9 
REMARK    7  A    between atoms: C_9  and  C_10 
REMARK    8  A    between atoms: C_10  and  C_11 
ROOT
HETATM    1  C   LIG     1      16.862  35.720  23.358  1.00  0.00     0.111 C 
ENDROOT
BRANCH   1   2
HETATM    2  C   LIG     1      16.937  36.975  24.169  1.00  0.00     0.258 C 
HETATM    3  O   LIG     1      17.420  36.939  25.333  1.00  0.00    -0.265 OA
BRANCH   2   4
HETATM    4  O   LIG     1      16.518  38.184  23.603  1.00  0.00    -0.322 OA
BRANCH   4   5
HETATM    5  C   LIG     1      17.354  39.335  23.502  1.00  0.00     0.174 C 
HETATM    6  C   LIG     1      18.087  39.353  22.165  1.00  0.00     0.034 C 
ENDBRANCH   4   5
ENDBRANCH   2   4
ENDBRANCH   1   2
BRANCH   1   7
HETATM    7  C   LIG     1      16.569  36.050  21.889  1.00  0.00     0.010 C 
BRANCH   7   8
HETATM    8  C   LIG     1      17.695  35.597  20.946  1.00  0.00     0.000 C 
BRANCH   8   9
HETATM    9  C   LIG     1      17.971  36.614  19.825  1.00  0.00     0.000 C 
BRANCH   9  10
HETATM   10  C   LIG     1      19.472  36.788  19.543  1.00  0.00    -0.000 C 
BRANCH  10  11
HETATM   11  C   LIG     1      19.889  38.264  19.463  1.00  0.00    -0.005 C 
HETATM   12  C   LIG     1      19.005  39.032  18.484  1.00  0.00     0.005 C 
ENDBRANCH  10  11
ENDBRANCH   9  10
ENDBRANCH   8   9
ENDBRANCH   7   8
ENDBRANCH   1   7
TORSDOF 8
ENDMDL
MODEL 19
REMARK VINA RESULT:      -4.6      5.324      7.051
REMARK  8 active torsions:
REMARK  status: ('A' for Active; 'I' for Inactive)
REMARK    1  A    between atoms: C_2  and  C_6 
REMARK    2  A    between atoms: C_2  and  O_3 
REMARK    3  A    between atoms: O_3  and  C_4 
REMARK    4  A    between atoms: C_6  and  C_7 
REMARK    5  A    between atoms: C_7  and  C_8 
REMARK    6  A    between atoms: C_8  and  C_9 
REMARK    7  A    between atoms: C_9  and  C_10 
REMARK    8  A    between atoms: C_10  and  C_11 
ROOT
HETATM    1  C   LIG     1      15.333  32.241  16.350  1.00  0.00     0.111 C 
ENDROOT
BRANCH   1   2
HETATM    2  C   LIG     1      15.971  33.443  15.728  1.00  0.00     0.258 C 
HETATM    3  O   LIG     1      15.949  34.548  16.335  1.00  0.00    -0.265 OA
BRANCH   2   4
HETATM    4  O   LIG     1      16.633  33.311  14.502  1.00  0.00    -0.322 OA
BRANCH   4   5
HETATM    5  C   LIG     1      17.823  34.024  14.172  1.00  0.00     0.174 C 
HETATM    6  C   LIG     1      18.271  33.697  12.752  1.00  0.00     0.034 C 
ENDBRANCH   4   5
ENDBRANCH   2   4
ENDBRANCH   1   2
BRANCH   1   7
HETATM    7  C   LIG     1      14.467  32.655  17.547  1.00  0.00     0.010 C 
BRANCH   7   8
HETATM    8  C   LIG     1      14.659  31.734  18.761  1.00  0.00     0.000 C 
BRANCH   8   9
HETATM    9  C   LIG     1      15.536  32.370  19.853  1.00  0.00     0.000 C 
BRANCH   9  10
HETATM   10  C   LIG     1      15.404  33.901  19.899  1.00  0.00    -0.000 C 
BRANCH  10  11
HETATM   11  C   LIG     1      16.122  34.518  21.108  1.00  0.00    -0.005 C 
HETATM   12  C   LIG     1      16.925  35.750  20.700  1.00  0.00     0.005 C 
ENDBRANCH  10  11
ENDBRANCH   9  10
ENDBRANCH   8   9
ENDBRANCH   7   8
ENDBRANCH   1   7
TORSDOF 8
ENDMDL
MODEL 20
REMARK VINA RESULT:      -4.5      9.568     11.459
REMARK  8 active torsions:
REMARK  status: ('A' for Active; 'I' for Inactive)
REMARK    1  A    between atoms: C_2  and  C_6 
REMARK    2  A    between atoms: C_2  and  O_3 
REMARK    3  A    between atoms: O_3  and  C_4 
REMARK    4  A    between atoms: C_6  and  C_7 
REMARK    5  A    between atoms: C_7  and  C_8 
REMARK    6  A    between atoms: C_8  and  C_9 
REMARK    7  A    between atoms: C_9  and  C_10 
REMARK    8  A    between atoms: C_10  and  C_11 
ROOT
HETATM    1  C   LIG     1      16.967  33.232  13.556  1.00  0.00     0.111 C 
ENDROOT
BRANCH   1   2
HETATM    2  C   LIG     1      16.683  32.361  14.739  1.00  0.00     0.258 C 
HETATM    3  O   LIG     1      16.650  32.865  15.894  1.00  0.00    -0.265 OA
BRANCH   2   4
HETATM    4  O   LIG     1      16.404  31.004  14.541  1.00  0.00    -0.322 OA
BRANCH   4   5
HETATM    5  C   LIG     1      15.320  30.534  13.743  1.00  0.00     0.174 C 
HETATM    6  C   LIG     1      15.114  29.036  13.942  1.00  0.00     0.034 C 
ENDBRANCH   4   5
ENDBRANCH   2   4
ENDBRANCH   1   2
BRANCH   1   7
HETATM    7  C   LIG     1      18.442  33.651  13.542  1.00  0.00     0.010 C 
BRANCH   7   8
HETATM    8  C   LIG     1      19.147  33.286  12.226  1.00  0.00     0.000 C 
BRANCH   8   9
HETATM    9  C   LIG     1      19.770  34.510  11.531  1.00  0.00     0.000 C 
BRANCH   9  10
HETATM   10  C   LIG     1      21.307  34.483  11.555  1.00  0.00    -0.000 C 
BRANCH  10  11
HETATM   11  C   LIG     1      21.871  34.323  12.974  1.00  0.00    -0.005 C 
HETATM   12  C   LIG     1      22.866  35.434  13.299  1.00  0.00     0.005 C 
ENDBRANCH  10  11
ENDBRANCH   9  10
ENDBRANCH   8   9
ENDBRANCH   7   8
ENDBRANCH   1   7
TORSDOF 8
ENDMDL
