REMARK  1 active torsions:
REMARK  status: ('A' for Active; 'I' for Inactive)
REMARK    1  A    between atoms: N_1  and  C_2 
ROOT
HETATM    1  C   LIG     1      -1.588  -0.008   0.131  1.00  0.00     0.025 A 
HETATM    2  C   LIG     1      -0.870  -1.211   0.177  1.00  0.00     0.029 A 
HETATM    3  C   LIG     1       0.524  -1.204   0.071  1.00  0.00     0.009 A 
HETATM    4  C   LIG     1       1.217   0.009  -0.068  1.00  0.00    -0.062 A 
HETATM    5  C   LIG     1       2.709   0.014  -0.220  1.00  0.00     0.048 C 
HETATM    6  C   LIG     1       0.496   1.211  -0.132  1.00  0.00     0.009 A 
HETATM    7  C   LIG     1      -0.899   1.203  -0.026  1.00  0.00     0.029 A 
ENDROOT
BRANCH   1   8
HETATM    8  N   LIG     1      -3.014  -0.016   0.237  1.00  0.00    -0.399 N 
HETATM    9  H   LIG     1      -3.536  -0.913   0.352  1.00  0.00     0.156 HD
HETATM   10  H   LIG     1      -3.558   0.875   0.202  1.00  0.00     0.156 HD
ENDBRANCH   1   8
TORSDOF 1
