REMARK  1 active torsions:
REMARK  status: ('A' for Active; 'I' for Inactive)
REMARK    1  A    between atoms: C_2  and  C_3 
ROOT
HETATM    1  C   LIG     1       1.290   0.481   0.096  1.00  0.00     0.007 C 
HETATM    2  C   LIG     1       0.269  -0.286   0.487  1.00  0.00    -0.026 C 
ENDROOT
BRANCH   2   3
HETATM    3  C   LIG     1      -0.992  -0.384  -0.318  1.00  0.00     0.111 C 
HETATM    4 BR   LIG     1      -1.955   1.298  -0.283  1.00  0.00    -0.092 Br
ENDBRANCH   2   3
TORSDOF 1
