REMARK  7 active torsions:
REMARK  status: ('A' for Active; 'I' for Inactive)
REMARK    1  A    between atoms: C_2  and  C_3 
REMARK    2  A    between atoms: C_3  and  C_4 
REMARK    3  A    between atoms: C_4  and  C_5 
REMARK    4  A    between atoms: C_5  and  C_6 
REMARK    5  A    between atoms: C_6  and  C_7 
REMARK    6  A    between atoms: C_7  and  O_8 
REMARK    7  A    between atoms: O_8  and  C_9 
ROOT
HETATM    1  C   LIG     1      -1.028   1.156  -0.011  1.00  0.00     0.111 C 
ENDROOT
BRANCH   1   2
HETATM    2  C   LIG     1       0.097   0.185   0.363  1.00  0.00     0.010 C 
BRANCH   2   3
HETATM    3  C   LIG     1       1.460   0.719  -0.095  1.00  0.00     0.000 C 
BRANCH   3   4
HETATM    4  C   LIG     1       2.585  -0.253   0.277  1.00  0.00    -0.000 C 
BRANCH   4   5
HETATM    5  C   LIG     1       3.947   0.282  -0.180  1.00  0.00    -0.005 C 
HETATM    6  C   LIG     1       5.070  -0.683   0.189  1.00  0.00     0.005 C 
ENDBRANCH   4   5
ENDBRANCH   3   4
ENDBRANCH   2   3
ENDBRANCH   1   2
BRANCH   1   7
HETATM    7  C   LIG     1      -2.353   0.633   0.449  1.00  0.00     0.258 C 
HETATM    8  O   LIG     1      -3.016   1.277   1.307  1.00  0.00    -0.265 OA
BRANCH   7   9
HETATM    9  O   LIG     1      -2.841  -0.567  -0.081  1.00  0.00    -0.322 OA
BRANCH   9  10
HETATM   10  C   LIG     1      -4.110  -1.119   0.265  1.00  0.00     0.174 C 
HETATM   11  C   LIG     1      -5.234  -0.363  -0.434  1.00  0.00     0.034 C 
ENDBRANCH   9  10
ENDBRANCH   7   9
ENDBRANCH   1   7
TORSDOF 7
