MODEL 1
REMARK VINA RESULT:      -3.5      0.000      0.000
REMARK  1 active torsions:
REMARK  status: ('A' for Active; 'I' for Inactive)
REMARK    1  A    between atoms: C_2  and  C_3 
ROOT
HETATM    1 BR   LIG     1      17.644  37.696  25.348  1.00  0.00    -0.097 Br
HETATM    2  C   LIG     1      18.415  36.482  26.653  1.00  0.00     0.084 C 
ENDROOT
BRANCH   2   3
HETATM    3  C   LIG     1      18.193  35.021  26.260  1.00  0.00     0.006 C 
HETATM    4  C   LIG     1      17.319  34.885  25.015  1.00  0.00     0.006 C 
ENDBRANCH   2   3
TORSDOF 1
ENDMDL
MODEL 2
REMARK VINA RESULT:      -3.3      2.331      2.681
REMARK  1 active torsions:
REMARK  status: ('A' for Active; 'I' for Inactive)
REMARK    1  A    between atoms: C_2  and  C_3 
ROOT
HETATM    1 BR   LIG     1      17.911  34.990  26.140  1.00  0.00    -0.097 Br
HETATM    2  C   LIG     1      18.464  36.850  26.200  1.00  0.00     0.084 C 
ENDROOT
BRANCH   2   3
HETATM    3  C   LIG     1      17.414  37.768  25.571  1.00  0.00     0.006 C 
HETATM    4  C   LIG     1      17.780  38.168  24.143  1.00  0.00     0.006 C 
ENDBRANCH   2   3
TORSDOF 1
ENDMDL
MODEL 3
REMARK VINA RESULT:      -3.1      2.162      2.813
REMARK  1 active torsions:
REMARK  status: ('A' for Active; 'I' for Inactive)
REMARK    1  A    between atoms: C_2  and  C_3 
ROOT
HETATM    1 BR   LIG     1      17.190  38.575  22.760  1.00  0.00    -0.097 Br
HETATM    2  C   LIG     1      16.873  37.308  24.197  1.00  0.00     0.084 C 
ENDROOT
BRANCH   2   3
HETATM    3  C   LIG     1      17.449  37.809  25.523  1.00  0.00     0.006 C 
HETATM    4  C   LIG     1      18.359  36.775  26.183  1.00  0.00     0.006 C 
ENDBRANCH   2   3
TORSDOF 1
ENDMDL
MODEL 4
REMARK VINA RESULT:      -3.0      6.011      6.261
REMARK  1 active torsions:
REMARK  status: ('A' for Active; 'I' for Inactive)
REMARK    1  A    between atoms: C_2  and  C_3 
ROOT
HETATM    1 BR   LIG     1      17.852  38.577  21.702  1.00  0.00    -0.097 Br
HETATM    2  C   LIG     1      19.159  39.324  20.475  1.00  0.00     0.084 C 
ENDROOT
BRANCH   2   3
HETATM    3  C   LIG     1      19.524  38.330  19.371  1.00  0.00     0.006 C 
HETATM    4  C   LIG     1      18.984  36.929  19.654  1.00  0.00     0.006 C 
ENDBRANCH   2   3
TORSDOF 1
ENDMDL
MODEL 5
REMARK VINA RESULT:      -3.0      5.964      6.238
REMARK  1 active torsions:
REMARK  status: ('A' for Active; 'I' for Inactive)
REMARK    1  A    between atoms: C_2  and  C_3 
ROOT
HETATM    1 BR   LIG     1      19.038  37.111  19.532  1.00  0.00    -0.097 Br
HETATM    2  C   LIG     1      19.450  38.953  19.987  1.00  0.00     0.084 C 
ENDROOT
BRANCH   2   3
HETATM    3  C   LIG     1      18.683  39.408  21.230  1.00  0.00     0.006 C 
HETATM    4  C   LIG     1      17.682  38.357  21.707  1.00  0.00     0.006 C 
ENDBRANCH   2   3
TORSDOF 1
ENDMDL
MODEL 6
REMARK VINA RESULT:      -2.9      2.025      2.744
REMARK  1 active torsions:
REMARK  status: ('A' for Active; 'I' for Inactive)
REMARK    1  A    between atoms: C_2  and  C_3 
ROOT
HETATM    1 BR   LIG     1      16.890  35.240  22.651  1.00  0.00    -0.097 Br
HETATM    2  C   LIG     1      17.246  34.991  24.543  1.00  0.00     0.084 C 
ENDROOT
BRANCH   2   3
HETATM    3  C   LIG     1      17.469  36.329  25.252  1.00  0.00     0.006 C 
HETATM    4  C   LIG     1      18.363  36.187  26.482  1.00  0.00     0.006 C 
ENDBRANCH   2   3
TORSDOF 1
ENDMDL
MODEL 7
REMARK VINA RESULT:      -2.9      3.821      4.218
REMARK  1 active torsions:
REMARK  status: ('A' for Active; 'I' for Inactive)
REMARK    1  A    between atoms: C_2  and  C_3 
ROOT
HETATM    1 BR   LIG     1      17.468  37.816  25.180  1.00  0.00    -0.097 Br
HETATM    2  C   LIG     1      16.528  37.616  23.492  1.00  0.00     0.084 C 
ENDROOT
BRANCH   2   3
HETATM    3  C   LIG     1      16.708  38.846  22.600  1.00  0.00     0.006 C 
HETATM    4  C   LIG     1      18.114  38.929  22.009  1.00  0.00     0.006 C 
ENDBRANCH   2   3
TORSDOF 1
ENDMDL
MODEL 8
REMARK VINA RESULT:      -2.8      4.047      4.311
REMARK  1 active torsions:
REMARK  status: ('A' for Active; 'I' for Inactive)
REMARK    1  A    between atoms: C_2  and  C_3 
ROOT
HETATM    1 BR   LIG     1      18.316  39.023  21.854  1.00  0.00    -0.097 Br
HETATM    2  C   LIG     1      16.951  37.674  22.152  1.00  0.00     0.084 C 
ENDROOT
BRANCH   2   3
HETATM    3  C   LIG     1      17.203  36.424  21.306  1.00  0.00     0.006 C 
HETATM    4  C   LIG     1      17.014  35.138  22.107  1.00  0.00     0.006 C 
ENDBRANCH   2   3
TORSDOF 1
ENDMDL
MODEL 9
REMARK VINA RESULT:      -2.8      4.783      5.279
REMARK  1 active torsions:
REMARK  status: ('A' for Active; 'I' for Inactive)
REMARK    1  A    between atoms: C_2  and  C_3 
ROOT
HETATM    1 BR   LIG     1      16.847  35.290  22.134  1.00  0.00    -0.097 Br
HETATM    2  C   LIG     1      17.567  36.743  21.065  1.00  0.00     0.084 C 
ENDROOT
BRANCH   2   3
HETATM    3  C   LIG     1      17.563  38.063  21.838  1.00  0.00     0.006 C 
HETATM    4  C   LIG     1      18.508  39.093  21.222  1.00  0.00     0.006 C 
ENDBRANCH   2   3
TORSDOF 1
ENDMDL
MODEL 10
REMARK VINA RESULT:      -2.7      5.080      5.625
REMARK  1 active torsions:
REMARK  status: ('A' for Active; 'I' for Inactive)
REMARK    1  A    between atoms: C_2  and  C_3 
ROOT
HETATM    1 BR   LIG     1      16.726  35.737  22.289  1.00  0.00    -0.097 Br
HETATM    2  C   LIG     1      17.559  37.179  21.290  1.00  0.00     0.084 C 
ENDROOT
BRANCH   2   3
HETATM    3  C   LIG     1      18.283  36.655  20.048  1.00  0.00     0.006 C 
HETATM    4  C   LIG     1      19.377  37.610  19.574  1.00  0.00     0.006 C 
ENDBRANCH   2   3
TORSDOF 1
ENDMDL
MODEL 11
REMARK VINA RESULT:      -2.7      9.309     10.177
REMARK  1 active torsions:
REMARK  status: ('A' for Active; 'I' for Inactive)
REMARK    1  A    between atoms: C_2  and  C_3 
ROOT
HETATM    1 BR   LIG     1      14.994  31.954  19.469  1.00  0.00    -0.097 Br
HETATM    2  C   LIG     1      14.788  32.441  17.600  1.00  0.00     0.084 C 
ENDROOT
BRANCH   2   3
HETATM    3  C   LIG     1      13.468  31.921  17.027  1.00  0.00     0.006 C 
HETATM    4  C   LIG     1      13.683  30.815  15.997  1.00  0.00     0.006 C 
ENDBRANCH   2   3
TORSDOF 1
ENDMDL
MODEL 12
REMARK VINA RESULT:      -2.6      7.524      7.905
REMARK  1 active torsions:
REMARK  status: ('A' for Active; 'I' for Inactive)
REMARK    1  A    between atoms: C_2  and  C_3 
ROOT
HETATM    1 BR   LIG     1      18.793  39.650  16.943  1.00  0.00    -0.097 Br
HETATM    2  C   LIG     1      18.886  38.449  18.466  1.00  0.00     0.084 C 
ENDROOT
BRANCH   2   3
HETATM    3  C   LIG     1      19.776  39.016  19.574  1.00  0.00     0.006 C 
HETATM    4  C   LIG     1      18.988  39.325  20.845  1.00  0.00     0.006 C 
ENDBRANCH   2   3
TORSDOF 1
ENDMDL
MODEL 13
REMARK VINA RESULT:      -2.6     11.588     12.584
REMARK  1 active torsions:
REMARK  status: ('A' for Active; 'I' for Inactive)
REMARK    1  A    between atoms: C_2  and  C_3 
ROOT
HETATM    1 BR   LIG     1      15.337  30.787  14.174  1.00  0.00    -0.097 Br
HETATM    2  C   LIG     1      13.698  29.890  14.700  1.00  0.00     0.084 C 
ENDROOT
BRANCH   2   3
HETATM    3  C   LIG     1      13.009  30.614  15.859  1.00  0.00     0.006 C 
HETATM    4  C   LIG     1      13.987  31.460  16.672  1.00  0.00     0.006 C 
ENDBRANCH   2   3
TORSDOF 1
ENDMDL
MODEL 14
REMARK VINA RESULT:      -2.6     12.469     12.633
REMARK  1 active torsions:
REMARK  status: ('A' for Active; 'I' for Inactive)
REMARK    1  A    between atoms: C_2  and  C_3 
ROOT
HETATM    1 BR   LIG     1      13.679  31.431  16.740  1.00  0.00    -0.097 Br
HETATM    2  C   LIG     1      13.227  30.278  15.244  1.00  0.00     0.084 C 
ENDROOT
BRANCH   2   3
HETATM    3  C   LIG     1      14.471  29.875  14.450  1.00  0.00     0.006 C 
HETATM    4  C   LIG     1      15.437  31.042  14.262  1.00  0.00     0.006 C 
ENDBRANCH   2   3
TORSDOF 1
ENDMDL
MODEL 15
REMARK VINA RESULT:      -2.6     13.401     13.685
REMARK  1 active torsions:
REMARK  status: ('A' for Active; 'I' for Inactive)
REMARK    1  A    between atoms: C_2  and  C_3 
ROOT
HETATM    1 BR   LIG     1      13.506  30.807  15.921  1.00  0.00    -0.097 Br
HETATM    2  C   LIG     1      13.621  29.575  14.425  1.00  0.00     0.084 C 
ENDROOT
BRANCH   2   3
HETATM    3  C   LIG     1      15.076  29.283  14.049  1.00  0.00     0.006 C 
HETATM    4  C   LIG     1      15.280  27.831  13.622  1.00  0.00     0.006 C 
ENDBRANCH   2   3
TORSDOF 1
ENDMDL
MODEL 16
REMARK VINA RESULT:      -2.6      8.262      9.196
REMARK  1 active torsions:
REMARK  status: ('A' for Active; 'I' for Inactive)
REMARK    1  A    between atoms: C_2  and  C_3 
ROOT
HETATM    1 BR   LIG     1      13.490  31.481  16.766  1.00  0.00    -0.097 Br
HETATM    2  C   LIG     1      14.865  32.452  17.734  1.00  0.00     0.084 C 
ENDROOT
BRANCH   2   3
HETATM    3  C   LIG     1      14.956  31.991  19.190  1.00  0.00     0.006 C 
HETATM    4  C   LIG     1      15.479  33.092  20.111  1.00  0.00     0.006 C 
ENDBRANCH   2   3
TORSDOF 1
ENDMDL
MODEL 17
REMARK VINA RESULT:      -2.5     11.614     12.446
REMARK  1 active torsions:
REMARK  status: ('A' for Active; 'I' for Inactive)
REMARK    1  A    between atoms: C_2  and  C_3 
ROOT
HETATM    1 BR   LIG     1      13.369  30.882  16.249  1.00  0.00    -0.097 Br
HETATM    2  C   LIG     1      15.005  31.736  15.646  1.00  0.00     0.084 C 
ENDROOT
BRANCH   2   3
HETATM    3  C   LIG     1      15.514  31.116  14.343  1.00  0.00     0.006 C 
HETATM    4  C   LIG     1      14.866  29.763  14.057  1.00  0.00     0.006 C 
ENDBRANCH   2   3
TORSDOF 1
ENDMDL
MODEL 18
REMARK VINA RESULT:      -2.5     12.477     12.778
REMARK  1 active torsions:
REMARK  status: ('A' for Active; 'I' for Inactive)
REMARK    1  A    between atoms: C_2  and  C_3 
ROOT
HETATM    1 BR   LIG     1      16.564  32.405  15.001  1.00  0.00    -0.097 Br
HETATM    2  C   LIG     1      15.695  31.425  13.568  1.00  0.00     0.084 C 
ENDROOT
BRANCH   2   3
HETATM    3  C   LIG     1      15.081  30.118  14.074  1.00  0.00     0.006 C 
HETATM    4  C   LIG     1      13.957  30.361  15.079  1.00  0.00     0.006 C 
ENDBRANCH   2   3
TORSDOF 1
ENDMDL
MODEL 19
REMARK VINA RESULT:      -2.5     10.839     11.586
REMARK  1 active torsions:
REMARK  status: ('A' for Active; 'I' for Inactive)
REMARK    1  A    between atoms: C_2  and  C_3 
ROOT
HETATM    1 BR   LIG     1      15.755  32.087  15.208  1.00  0.00    -0.097 Br
HETATM    2  C   LIG     1      14.499  32.129  16.688  1.00  0.00     0.084 C 
ENDROOT
BRANCH   2   3
HETATM    3  C   LIG     1      13.360  31.128  16.485  1.00  0.00     0.006 C 
HETATM    4  C   LIG     1      13.530  30.313  15.205  1.00  0.00     0.006 C 
ENDBRANCH   2   3
TORSDOF 1
ENDMDL
MODEL 20
REMARK VINA RESULT:      -2.4      4.270      4.793
REMARK  1 active torsions:
REMARK  status: ('A' for Active; 'I' for Inactive)
REMARK    1  A    between atoms: C_2  and  C_3 
ROOT
HETATM    1 BR   LIG     1      16.004  37.801  22.877  1.00  0.00    -0.097 Br
HETATM    2  C   LIG     1      16.527  36.268  21.806  1.00  0.00     0.084 C 
ENDROOT
BRANCH   2   3
HETATM    3  C   LIG     1      15.307  35.518  21.268  1.00  0.00     0.006 C 
HETATM    4  C   LIG     1      15.688  34.188  20.620  1.00  0.00     0.006 C 
ENDBRANCH   2   3
TORSDOF 1
ENDMDL
