MODEL 1
REMARK VINA RESULT:      -5.4      0.000      0.000
REMARK  5 active torsions:
REMARK  status: ('A' for Active; 'I' for Inactive)
REMARK    1  A    between atoms: C_2  and  C_3 
REMARK    2  A    between atoms: C_3  and  C_4 
REMARK    3  A    between atoms: C_4  and  C_5 
REMARK    4  A    between atoms: C_5  and  C_6 
REMARK    5  A    between atoms: C_6  and  O_7 
ROOT
HETATM    1  C   LIG     1      17.960  38.193  24.465  1.00  0.00     0.111 C 
ENDROOT
BRANCH   1   2
HETATM    2  C   LIG     1      17.533  37.563  25.800  1.00  0.00     0.010 C 
BRANCH   2   3
HETATM    3  C   LIG     1      18.642  36.659  26.359  1.00  0.00     0.000 C 
BRANCH   3   4
HETATM    4  C   LIG     1      18.245  35.175  26.365  1.00  0.00    -0.005 C 
HETATM    5  C   LIG     1      17.316  34.807  25.210  1.00  0.00     0.005 C 
ENDBRANCH   3   4
ENDBRANCH   2   3
ENDBRANCH   1   2
BRANCH   1   6
HETATM    6  C   LIG     1      16.814  38.386  23.512  1.00  0.00     0.258 C 
HETATM    7  O   LIG     1      15.646  38.017  23.816  1.00  0.00    -0.265 OA
BRANCH   6   8
HETATM    8  O   LIG     1      17.066  38.986  22.275  1.00  0.00    -0.326 OA
HETATM    9  C   LIG     1      18.358  39.000  21.679  1.00  0.00     0.213 C 
ENDBRANCH   6   8
ENDBRANCH   1   6
TORSDOF 5
ENDMDL
MODEL 2
REMARK VINA RESULT:      -5.3      1.910      4.570
REMARK  5 active torsions:
REMARK  status: ('A' for Active; 'I' for Inactive)
REMARK    1  A    between atoms: C_2  and  C_3 
REMARK    2  A    between atoms: C_3  and  C_4 
REMARK    3  A    between atoms: C_4  and  C_5 
REMARK    4  A    between atoms: C_5  and  C_6 
REMARK    5  A    between atoms: C_6  and  O_7 
ROOT
HETATM    1  C   LIG     1      17.127  39.110  22.396  1.00  0.00     0.111 C 
ENDROOT
BRANCH   1   2
HETATM    2  C   LIG     1      18.581  38.883  21.956  1.00  0.00     0.010 C 
BRANCH   2   3
HETATM    3  C   LIG     1      18.803  39.381  20.520  1.00  0.00     0.000 C 
BRANCH   3   4
HETATM    4  C   LIG     1      19.633  38.400  19.677  1.00  0.00    -0.005 C 
HETATM    5  C   LIG     1      19.001  37.012  19.593  1.00  0.00     0.005 C 
ENDBRANCH   3   4
ENDBRANCH   2   3
ENDBRANCH   1   2
BRANCH   1   6
HETATM    6  C   LIG     1      16.507  37.895  23.029  1.00  0.00     0.258 C 
HETATM    7  O   LIG     1      16.229  36.873  22.341  1.00  0.00    -0.265 OA
BRANCH   6   8
HETATM    8  O   LIG     1      16.239  37.917  24.400  1.00  0.00    -0.326 OA
HETATM    9  C   LIG     1      17.268  37.980  25.381  1.00  0.00     0.213 C 
ENDBRANCH   6   8
ENDBRANCH   1   6
TORSDOF 5
ENDMDL
MODEL 3
REMARK VINA RESULT:      -5.0      1.725      4.754
REMARK  5 active torsions:
REMARK  status: ('A' for Active; 'I' for Inactive)
REMARK    1  A    between atoms: C_2  and  C_3 
REMARK    2  A    between atoms: C_3  and  C_4 
REMARK    3  A    between atoms: C_4  and  C_5 
REMARK    4  A    between atoms: C_5  and  C_6 
REMARK    5  A    between atoms: C_6  and  O_7 
ROOT
HETATM    1  C   LIG     1      16.865  37.321  23.135  1.00  0.00     0.111 C 
ENDROOT
BRANCH   1   2
HETATM    2  C   LIG     1      17.298  38.559  22.335  1.00  0.00     0.010 C 
BRANCH   2   3
HETATM    3  C   LIG     1      18.131  38.156  21.109  1.00  0.00     0.000 C 
BRANCH   3   4
HETATM    4  C   LIG     1      19.187  39.209  20.741  1.00  0.00    -0.005 C 
HETATM    5  C   LIG     1      20.113  38.751  19.616  1.00  0.00     0.005 C 
ENDBRANCH   3   4
ENDBRANCH   2   3
ENDBRANCH   1   2
BRANCH   1   6
HETATM    6  C   LIG     1      17.068  37.477  24.616  1.00  0.00     0.258 C 
HETATM    7  O   LIG     1      17.037  38.615  25.162  1.00  0.00    -0.265 OA
BRANCH   6   8
HETATM    8  O   LIG     1      17.296  36.332  25.385  1.00  0.00    -0.326 OA
HETATM    9  C   LIG     1      18.232  36.301  26.456  1.00  0.00     0.213 C 
ENDBRANCH   6   8
ENDBRANCH   1   6
TORSDOF 5
ENDMDL
MODEL 4
REMARK VINA RESULT:      -5.0      1.774      2.415
REMARK  5 active torsions:
REMARK  status: ('A' for Active; 'I' for Inactive)
REMARK    1  A    between atoms: C_2  and  C_3 
REMARK    2  A    between atoms: C_3  and  C_4 
REMARK    3  A    between atoms: C_4  and  C_5 
REMARK    4  A    between atoms: C_5  and  C_6 
REMARK    5  A    between atoms: C_6  and  O_7 
ROOT
HETATM    1  C   LIG     1      17.142  37.096  23.117  1.00  0.00     0.111 C 
ENDROOT
BRANCH   1   2
HETATM    2  C   LIG     1      17.188  36.755  24.614  1.00  0.00     0.010 C 
BRANCH   2   3
HETATM    3  C   LIG     1      17.348  35.242  24.827  1.00  0.00     0.000 C 
BRANCH   3   4
HETATM    4  C   LIG     1      17.975  34.902  26.188  1.00  0.00    -0.005 C 
HETATM    5  C   LIG     1      18.543  36.127  26.900  1.00  0.00     0.005 C 
ENDBRANCH   3   4
ENDBRANCH   2   3
ENDBRANCH   1   2
BRANCH   1   6
HETATM    6  C   LIG     1      15.832  37.699  22.691  1.00  0.00     0.258 C 
HETATM    7  O   LIG     1      15.608  38.934  22.831  1.00  0.00    -0.265 OA
BRANCH   6   8
HETATM    8  O   LIG     1      14.860  36.863  22.134  1.00  0.00    -0.326 OA
HETATM    9  C   LIG     1      15.188  35.705  21.375  1.00  0.00     0.213 C 
ENDBRANCH   6   8
ENDBRANCH   1   6
TORSDOF 5
ENDMDL
MODEL 5
REMARK VINA RESULT:      -5.0      1.342      1.526
REMARK  5 active torsions:
REMARK  status: ('A' for Active; 'I' for Inactive)
REMARK    1  A    between atoms: C_2  and  C_3 
REMARK    2  A    between atoms: C_3  and  C_4 
REMARK    3  A    between atoms: C_4  and  C_5 
REMARK    4  A    between atoms: C_5  and  C_6 
REMARK    5  A    between atoms: C_6  and  O_7 
ROOT
HETATM    1  C   LIG     1      17.499  38.196  23.432  1.00  0.00     0.111 C 
ENDROOT
BRANCH   1   2
HETATM    2  C   LIG     1      16.936  37.279  24.529  1.00  0.00     0.010 C 
BRANCH   2   3
HETATM    3  C   LIG     1      17.675  37.496  25.858  1.00  0.00     0.000 C 
BRANCH   3   4
HETATM    4  C   LIG     1      18.410  36.235  26.337  1.00  0.00    -0.005 C 
HETATM    5  C   LIG     1      17.645  34.951  26.026  1.00  0.00     0.005 C 
ENDBRANCH   3   4
ENDBRANCH   2   3
ENDBRANCH   1   2
BRANCH   1   6
HETATM    6  C   LIG     1      17.332  37.630  22.049  1.00  0.00     0.258 C 
HETATM    7  O   LIG     1      16.372  36.857  21.774  1.00  0.00    -0.265 OA
BRANCH   6   8
HETATM    8  O   LIG     1      18.264  37.977  21.067  1.00  0.00    -0.326 OA
HETATM    9  C   LIG     1      18.726  39.310  20.885  1.00  0.00     0.213 C 
ENDBRANCH   6   8
ENDBRANCH   1   6
TORSDOF 5
ENDMDL
MODEL 6
REMARK VINA RESULT:      -4.8      1.895      2.554
REMARK  5 active torsions:
REMARK  status: ('A' for Active; 'I' for Inactive)
REMARK    1  A    between atoms: C_2  and  C_3 
REMARK    2  A    between atoms: C_3  and  C_4 
REMARK    3  A    between atoms: C_4  and  C_5 
REMARK    4  A    between atoms: C_5  and  C_6 
REMARK    5  A    between atoms: C_6  and  O_7 
ROOT
HETATM    1  C   LIG     1      16.946  35.301  22.834  1.00  0.00     0.111 C 
ENDROOT
BRANCH   1   2
HETATM    2  C   LIG     1      17.173  35.908  24.227  1.00  0.00     0.010 C 
BRANCH   2   3
HETATM    3  C   LIG     1      17.398  34.807  25.275  1.00  0.00     0.000 C 
BRANCH   3   4
HETATM    4  C   LIG     1      18.274  35.277  26.445  1.00  0.00    -0.005 C 
HETATM    5  C   LIG     1      18.568  36.776  26.400  1.00  0.00     0.005 C 
ENDBRANCH   3   4
ENDBRANCH   2   3
ENDBRANCH   1   2
BRANCH   1   6
HETATM    6  C   LIG     1      17.123  36.297  21.723  1.00  0.00     0.258 C 
HETATM    7  O   LIG     1      16.739  36.038  20.548  1.00  0.00    -0.265 OA
BRANCH   6   8
HETATM    8  O   LIG     1      17.727  37.524  22.013  1.00  0.00    -0.326 OA
HETATM    9  C   LIG     1      16.983  38.726  22.171  1.00  0.00     0.213 C 
ENDBRANCH   6   8
ENDBRANCH   1   6
TORSDOF 5
ENDMDL
MODEL 7
REMARK VINA RESULT:      -4.8      3.429      4.058
REMARK  5 active torsions:
REMARK  status: ('A' for Active; 'I' for Inactive)
REMARK    1  A    between atoms: C_2  and  C_3 
REMARK    2  A    between atoms: C_3  and  C_4 
REMARK    3  A    between atoms: C_4  and  C_5 
REMARK    4  A    between atoms: C_5  and  C_6 
REMARK    5  A    between atoms: C_6  and  O_7 
ROOT
HETATM    1  C   LIG     1      16.824  35.048  22.431  1.00  0.00     0.111 C 
ENDROOT
BRANCH   1   2
HETATM    2  C   LIG     1      17.030  36.455  23.013  1.00  0.00     0.010 C 
BRANCH   2   3
HETATM    3  C   LIG     1      17.137  36.404  24.545  1.00  0.00     0.000 C 
BRANCH   3   4
HETATM    4  C   LIG     1      17.360  34.979  25.073  1.00  0.00    -0.005 C 
HETATM    5  C   LIG     1      18.294  34.936  26.281  1.00  0.00     0.005 C 
ENDBRANCH   3   4
ENDBRANCH   2   3
ENDBRANCH   1   2
BRANCH   1   6
HETATM    6  C   LIG     1      16.457  35.062  20.974  1.00  0.00     0.258 C 
HETATM    7  O   LIG     1      17.125  35.735  20.140  1.00  0.00    -0.265 OA
BRANCH   6   8
HETATM    8  O   LIG     1      15.355  34.311  20.553  1.00  0.00    -0.326 OA
HETATM    9  C   LIG     1      15.478  32.991  20.038  1.00  0.00     0.213 C 
ENDBRANCH   6   8
ENDBRANCH   1   6
TORSDOF 5
ENDMDL
MODEL 8
REMARK VINA RESULT:      -4.7      2.341      3.721
REMARK  5 active torsions:
REMARK  status: ('A' for Active; 'I' for Inactive)
REMARK    1  A    between atoms: C_2  and  C_3 
REMARK    2  A    between atoms: C_3  and  C_4 
REMARK    3  A    between atoms: C_4  and  C_5 
REMARK    4  A    between atoms: C_5  and  C_6 
REMARK    5  A    between atoms: C_6  and  O_7 
ROOT
HETATM    1  C   LIG     1      17.825  37.855  23.197  1.00  0.00     0.111 C 
ENDROOT
BRANCH   1   2
HETATM    2  C   LIG     1      17.232  37.780  21.782  1.00  0.00     0.010 C 
BRANCH   2   3
HETATM    3  C   LIG     1      17.606  36.454  21.101  1.00  0.00     0.000 C 
BRANCH   3   4
HETATM    4  C   LIG     1      17.031  35.233  21.834  1.00  0.00    -0.005 C 
HETATM    5  C   LIG     1      15.891  34.565  21.067  1.00  0.00     0.005 C 
ENDBRANCH   3   4
ENDBRANCH   2   3
ENDBRANCH   1   2
BRANCH   1   6
HETATM    6  C   LIG     1      16.777  37.888  24.273  1.00  0.00     0.258 C 
HETATM    7  O   LIG     1      15.553  38.007  23.987  1.00  0.00    -0.265 OA
BRANCH   6   8
HETATM    8  O   LIG     1      17.183  37.785  25.607  1.00  0.00    -0.326 OA
HETATM    9  C   LIG     1      18.248  36.937  26.021  1.00  0.00     0.213 C 
ENDBRANCH   6   8
ENDBRANCH   1   6
TORSDOF 5
ENDMDL
MODEL 9
REMARK VINA RESULT:      -4.7      9.367     10.308
REMARK  5 active torsions:
REMARK  status: ('A' for Active; 'I' for Inactive)
REMARK    1  A    between atoms: C_2  and  C_3 
REMARK    2  A    between atoms: C_3  and  C_4 
REMARK    3  A    between atoms: C_4  and  C_5 
REMARK    4  A    between atoms: C_5  and  C_6 
REMARK    5  A    between atoms: C_6  and  O_7 
ROOT
HETATM    1  C   LIG     1      14.329  32.470  17.086  1.00  0.00     0.111 C 
ENDROOT
BRANCH   1   2
HETATM    2  C   LIG     1      13.020  31.743  16.743  1.00  0.00     0.010 C 
BRANCH   2   3
HETATM    3  C   LIG     1      13.284  30.551  15.809  1.00  0.00     0.000 C 
BRANCH   3   4
HETATM    4  C   LIG     1      14.591  30.701  15.017  1.00  0.00    -0.005 C 
HETATM    5  C   LIG     1      14.800  29.578  14.003  1.00  0.00     0.005 C 
ENDBRANCH   3   4
ENDBRANCH   2   3
ENDBRANCH   1   2
BRANCH   1   6
HETATM    6  C   LIG     1      14.774  32.243  18.504  1.00  0.00     0.258 C 
HETATM    7  O   LIG     1      14.384  31.234  19.155  1.00  0.00    -0.265 OA
BRANCH   6   8
HETATM    8  O   LIG     1      15.631  33.176  19.094  1.00  0.00    -0.326 OA
HETATM    9  C   LIG     1      15.459  33.640  20.428  1.00  0.00     0.213 C 
ENDBRANCH   6   8
ENDBRANCH   1   6
TORSDOF 5
ENDMDL
MODEL 10
REMARK VINA RESULT:      -4.7      4.019      5.074
REMARK  5 active torsions:
REMARK  status: ('A' for Active; 'I' for Inactive)
REMARK    1  A    between atoms: C_2  and  C_3 
REMARK    2  A    between atoms: C_3  and  C_4 
REMARK    3  A    between atoms: C_4  and  C_5 
REMARK    4  A    between atoms: C_5  and  C_6 
REMARK    5  A    between atoms: C_6  and  O_7 
ROOT
HETATM    1  C   LIG     1      18.776  38.297  20.243  1.00  0.00     0.111 C 
ENDROOT
BRANCH   1   2
HETATM    2  C   LIG     1      18.573  39.367  21.327  1.00  0.00     0.010 C 
BRANCH   2   3
HETATM    3  C   LIG     1      18.023  38.743  22.618  1.00  0.00     0.000 C 
BRANCH   3   4
HETATM    4  C   LIG     1      16.498  38.883  22.736  1.00  0.00    -0.005 C 
HETATM    5  C   LIG     1      15.777  37.536  22.720  1.00  0.00     0.005 C 
ENDBRANCH   3   4
ENDBRANCH   2   3
ENDBRANCH   1   2
BRANCH   1   6
HETATM    6  C   LIG     1      19.393  38.842  18.986  1.00  0.00     0.258 C 
HETATM    7  O   LIG     1      20.512  39.427  19.010  1.00  0.00    -0.265 OA
BRANCH   6   8
HETATM    8  O   LIG     1      18.702  38.691  17.781  1.00  0.00    -0.326 OA
HETATM    9  C   LIG     1      18.776  39.648  16.729  1.00  0.00     0.213 C 
ENDBRANCH   6   8
ENDBRANCH   1   6
TORSDOF 5
ENDMDL
MODEL 11
REMARK VINA RESULT:      -4.6      4.187      5.759
REMARK  5 active torsions:
REMARK  status: ('A' for Active; 'I' for Inactive)
REMARK    1  A    between atoms: C_2  and  C_3 
REMARK    2  A    between atoms: C_3  and  C_4 
REMARK    3  A    between atoms: C_4  and  C_5 
REMARK    4  A    between atoms: C_5  and  C_6 
REMARK    5  A    between atoms: C_6  and  O_7 
ROOT
HETATM    1  C   LIG     1      16.404  35.241  21.848  1.00  0.00     0.111 C 
ENDROOT
BRANCH   1   2
HETATM    2  C   LIG     1      17.359  35.930  20.861  1.00  0.00     0.010 C 
BRANCH   2   3
HETATM    3  C   LIG     1      17.639  37.379  21.289  1.00  0.00     0.000 C 
BRANCH   3   4
HETATM    4  C   LIG     1      18.696  38.060  20.407  1.00  0.00    -0.005 C 
HETATM    5  C   LIG     1      18.929  39.521  20.786  1.00  0.00     0.005 C 
ENDBRANCH   3   4
ENDBRANCH   2   3
ENDBRANCH   1   2
BRANCH   1   6
HETATM    6  C   LIG     1      15.462  34.278  21.181  1.00  0.00     0.258 C 
HETATM    7  O   LIG     1      14.356  33.977  21.710  1.00  0.00    -0.265 OA
BRANCH   6   8
HETATM    8  O   LIG     1      15.835  33.717  19.957  1.00  0.00    -0.326 OA
HETATM    9  C   LIG     1      15.370  32.444  19.523  1.00  0.00     0.213 C 
ENDBRANCH   6   8
ENDBRANCH   1   6
TORSDOF 5
ENDMDL
MODEL 12
REMARK VINA RESULT:      -4.5      2.957      4.211
REMARK  5 active torsions:
REMARK  status: ('A' for Active; 'I' for Inactive)
REMARK    1  A    between atoms: C_2  and  C_3 
REMARK    2  A    between atoms: C_3  and  C_4 
REMARK    3  A    between atoms: C_4  and  C_5 
REMARK    4  A    between atoms: C_5  and  C_6 
REMARK    5  A    between atoms: C_6  and  O_7 
ROOT
HETATM    1  C   LIG     1      17.189  36.682  21.717  1.00  0.00     0.111 C 
ENDROOT
BRANCH   1   2
HETATM    2  C   LIG     1      17.499  38.187  21.749  1.00  0.00     0.010 C 
BRANCH   2   3
HETATM    3  C   LIG     1      17.375  38.741  23.176  1.00  0.00     0.000 C 
BRANCH   3   4
HETATM    4  C   LIG     1      16.807  37.710  24.162  1.00  0.00    -0.005 C 
HETATM    5  C   LIG     1      17.395  37.847  25.565  1.00  0.00     0.005 C 
ENDBRANCH   3   4
ENDBRANCH   2   3
ENDBRANCH   1   2
BRANCH   1   6
HETATM    6  C   LIG     1      17.326  36.082  20.345  1.00  0.00     0.258 C 
HETATM    7  O   LIG     1      18.264  36.427  19.575  1.00  0.00    -0.265 OA
BRANCH   6   8
HETATM    8  O   LIG     1      16.389  35.130  19.935  1.00  0.00    -0.326 OA
HETATM    9  C   LIG     1      15.639  34.345  20.855  1.00  0.00     0.213 C 
ENDBRANCH   6   8
ENDBRANCH   1   6
TORSDOF 5
ENDMDL
MODEL 13
REMARK VINA RESULT:      -4.4     10.108     11.095
REMARK  5 active torsions:
REMARK  status: ('A' for Active; 'I' for Inactive)
REMARK    1  A    between atoms: C_2  and  C_3 
REMARK    2  A    between atoms: C_3  and  C_4 
REMARK    3  A    between atoms: C_4  and  C_5 
REMARK    4  A    between atoms: C_5  and  C_6 
REMARK    5  A    between atoms: C_6  and  O_7 
ROOT
HETATM    1  C   LIG     1      17.159  32.684  14.967  1.00  0.00     0.111 C 
ENDROOT
BRANCH   1   2
HETATM    2  C   LIG     1      15.728  32.172  15.196  1.00  0.00     0.010 C 
BRANCH   2   3
HETATM    3  C   LIG     1      15.502  30.836  14.473  1.00  0.00     0.000 C 
BRANCH   3   4
HETATM    4  C   LIG     1      14.119  30.235  14.765  1.00  0.00    -0.005 C 
HETATM    5  C   LIG     1      13.494  30.783  16.047  1.00  0.00     0.005 C 
ENDBRANCH   3   4
ENDBRANCH   2   3
ENDBRANCH   1   2
BRANCH   1   6
HETATM    6  C   LIG     1      17.238  34.181  14.860  1.00  0.00     0.258 C 
HETATM    7  O   LIG     1      16.859  34.923  15.809  1.00  0.00    -0.265 OA
BRANCH   6   8
HETATM    8  O   LIG     1      17.741  34.743  13.683  1.00  0.00    -0.326 OA
HETATM    9  C   LIG     1      18.424  33.976  12.699  1.00  0.00     0.213 C 
ENDBRANCH   6   8
ENDBRANCH   1   6
TORSDOF 5
ENDMDL
MODEL 14
REMARK VINA RESULT:      -4.4      2.599      4.759
REMARK  5 active torsions:
REMARK  status: ('A' for Active; 'I' for Inactive)
REMARK    1  A    between atoms: C_2  and  C_3 
REMARK    2  A    between atoms: C_3  and  C_4 
REMARK    3  A    between atoms: C_4  and  C_5 
REMARK    4  A    between atoms: C_5  and  C_6 
REMARK    5  A    between atoms: C_6  and  O_7 
ROOT
HETATM    1  C   LIG     1      16.827  36.447  23.015  1.00  0.00     0.111 C 
ENDROOT
BRANCH   1   2
HETATM    2  C   LIG     1      17.110  35.423  21.905  1.00  0.00     0.010 C 
BRANCH   2   3
HETATM    3  C   LIG     1      17.131  36.100  20.526  1.00  0.00     0.000 C 
BRANCH   3   4
HETATM    4  C   LIG     1      18.522  36.636  20.154  1.00  0.00    -0.005 C 
HETATM    5  C   LIG     1      18.656  38.140  20.381  1.00  0.00     0.005 C 
ENDBRANCH   3   4
ENDBRANCH   2   3
ENDBRANCH   1   2
BRANCH   1   6
HETATM    6  C   LIG     1      17.270  35.980  24.373  1.00  0.00     0.258 C 
HETATM    7  O   LIG     1      17.323  34.751  24.654  1.00  0.00    -0.265 OA
BRANCH   6   8
HETATM    8  O   LIG     1      17.625  36.938  25.328  1.00  0.00    -0.326 OA
HETATM    9  C   LIG     1      18.344  36.612  26.511  1.00  0.00     0.213 C 
ENDBRANCH   6   8
ENDBRANCH   1   6
TORSDOF 5
ENDMDL
MODEL 15
REMARK VINA RESULT:      -4.4      2.437      4.941
REMARK  5 active torsions:
REMARK  status: ('A' for Active; 'I' for Inactive)
REMARK    1  A    between atoms: C_2  and  C_3 
REMARK    2  A    between atoms: C_3  and  C_4 
REMARK    3  A    between atoms: C_4  and  C_5 
REMARK    4  A    between atoms: C_5  and  C_6 
REMARK    5  A    between atoms: C_6  and  O_7 
ROOT
HETATM    1  C   LIG     1      17.465  35.789  21.307  1.00  0.00     0.111 C 
ENDROOT
BRANCH   1   2
HETATM    2  C   LIG     1      17.653  36.610  20.022  1.00  0.00     0.010 C 
BRANCH   2   3
HETATM    3  C   LIG     1      19.144  36.801  19.707  1.00  0.00     0.000 C 
BRANCH   3   4
HETATM    4  C   LIG     1      19.517  38.276  19.491  1.00  0.00    -0.005 C 
HETATM    5  C   LIG     1      19.135  39.162  20.675  1.00  0.00     0.005 C 
ENDBRANCH   3   4
ENDBRANCH   2   3
ENDBRANCH   1   2
BRANCH   1   6
HETATM    6  C   LIG     1      16.585  36.470  22.317  1.00  0.00     0.258 C 
HETATM    7  O   LIG     1      15.379  36.736  22.056  1.00  0.00    -0.265 OA
BRANCH   6   8
HETATM    8  O   LIG     1      17.129  36.807  23.560  1.00  0.00    -0.326 OA
HETATM    9  C   LIG     1      17.282  38.154  23.989  1.00  0.00     0.213 C 
ENDBRANCH   6   8
ENDBRANCH   1   6
TORSDOF 5
ENDMDL
MODEL 16
REMARK VINA RESULT:      -4.4      6.647      7.439
REMARK  5 active torsions:
REMARK  status: ('A' for Active; 'I' for Inactive)
REMARK    1  A    between atoms: C_2  and  C_3 
REMARK    2  A    between atoms: C_3  and  C_4 
REMARK    3  A    between atoms: C_4  and  C_5 
REMARK    4  A    between atoms: C_5  and  C_6 
REMARK    5  A    between atoms: C_6  and  O_7 
ROOT
HETATM    1  C   LIG     1      15.339  32.641  19.804  1.00  0.00     0.111 C 
ENDROOT
BRANCH   1   2
HETATM    2  C   LIG     1      15.742  34.107  20.022  1.00  0.00     0.010 C 
BRANCH   2   3
HETATM    3  C   LIG     1      15.591  34.504  21.498  1.00  0.00     0.000 C 
BRANCH   3   4
HETATM    4  C   LIG     1      16.763  35.360  22.001  1.00  0.00    -0.005 C 
HETATM    5  C   LIG     1      17.074  35.127  23.478  1.00  0.00     0.005 C 
ENDBRANCH   3   4
ENDBRANCH   2   3
ENDBRANCH   1   2
BRANCH   1   6
HETATM    6  C   LIG     1      15.043  32.319  18.366  1.00  0.00     0.258 C 
HETATM    7  O   LIG     1      15.767  32.770  17.436  1.00  0.00    -0.265 OA
BRANCH   6   8
HETATM    8  O   LIG     1      13.944  31.507  18.074  1.00  0.00    -0.326 OA
HETATM    9  C   LIG     1      13.710  30.969  16.778  1.00  0.00     0.213 C 
ENDBRANCH   6   8
ENDBRANCH   1   6
TORSDOF 5
ENDMDL
MODEL 17
REMARK VINA RESULT:      -4.4     10.168     11.274
REMARK  5 active torsions:
REMARK  status: ('A' for Active; 'I' for Inactive)
REMARK    1  A    between atoms: C_2  and  C_3 
REMARK    2  A    between atoms: C_3  and  C_4 
REMARK    3  A    between atoms: C_4  and  C_5 
REMARK    4  A    between atoms: C_5  and  C_6 
REMARK    5  A    between atoms: C_6  and  O_7 
ROOT
HETATM    1  C   LIG     1      15.857  32.054  14.251  1.00  0.00     0.111 C 
ENDROOT
BRANCH   1   2
HETATM    2  C   LIG     1      15.618  30.648  14.822  1.00  0.00     0.010 C 
BRANCH   2   3
HETATM    3  C   LIG     1      14.310  30.051  14.280  1.00  0.00     0.000 C 
BRANCH   3   4
HETATM    4  C   LIG     1      13.117  30.301  15.214  1.00  0.00    -0.005 C 
HETATM    5  C   LIG     1      13.543  30.731  16.616  1.00  0.00     0.005 C 
ENDBRANCH   3   4
ENDBRANCH   2   3
ENDBRANCH   1   2
BRANCH   1   6
HETATM    6  C   LIG     1      16.780  32.884  15.098  1.00  0.00     0.258 C 
HETATM    7  O   LIG     1      17.995  32.571  15.235  1.00  0.00    -0.265 OA
BRANCH   6   8
HETATM    8  O   LIG     1      16.266  34.016  15.737  1.00  0.00    -0.326 OA
HETATM    9  C   LIG     1      15.234  33.943  16.714  1.00  0.00     0.213 C 
ENDBRANCH   6   8
ENDBRANCH   1   6
TORSDOF 5
ENDMDL
MODEL 18
REMARK VINA RESULT:      -4.4     10.042     11.242
REMARK  5 active torsions:
REMARK  status: ('A' for Active; 'I' for Inactive)
REMARK    1  A    between atoms: C_2  and  C_3 
REMARK    2  A    between atoms: C_3  and  C_4 
REMARK    3  A    between atoms: C_4  and  C_5 
REMARK    4  A    between atoms: C_5  and  C_6 
REMARK    5  A    between atoms: C_6  and  O_7 
ROOT
HETATM    1  C   LIG     1      16.298  32.293  15.602  1.00  0.00     0.111 C 
ENDROOT
BRANCH   1   2
HETATM    2  C   LIG     1      16.351  32.454  14.075  1.00  0.00     0.010 C 
BRANCH   2   3
HETATM    3  C   LIG     1      15.637  31.287  13.376  1.00  0.00     0.000 C 
BRANCH   3   4
HETATM    4  C   LIG     1      15.047  30.276  14.370  1.00  0.00    -0.005 C 
HETATM    5  C   LIG     1      15.217  28.829  13.913  1.00  0.00     0.005 C 
ENDBRANCH   3   4
ENDBRANCH   2   3
ENDBRANCH   1   2
BRANCH   1   6
HETATM    6  C   LIG     1      15.517  33.383  16.281  1.00  0.00     0.258 C 
HETATM    7  O   LIG     1      15.936  34.574  16.293  1.00  0.00    -0.265 OA
BRANCH   6   8
HETATM    8  O   LIG     1      14.311  33.053  16.906  1.00  0.00    -0.326 OA
HETATM    9  C   LIG     1      14.141  31.861  17.665  1.00  0.00     0.213 C 
ENDBRANCH   6   8
ENDBRANCH   1   6
TORSDOF 5
ENDMDL
MODEL 19
REMARK VINA RESULT:      -4.3      9.749     10.852
REMARK  5 active torsions:
REMARK  status: ('A' for Active; 'I' for Inactive)
REMARK    1  A    between atoms: C_2  and  C_3 
REMARK    2  A    between atoms: C_3  and  C_4 
REMARK    3  A    between atoms: C_4  and  C_5 
REMARK    4  A    between atoms: C_5  and  C_6 
REMARK    5  A    between atoms: C_6  and  O_7 
ROOT
HETATM    1  C   LIG     1      14.856  32.835  16.666  1.00  0.00     0.111 C 
ENDROOT
BRANCH   1   2
HETATM    2  C   LIG     1      15.947  32.037  15.935  1.00  0.00     0.010 C 
BRANCH   2   3
HETATM    3  C   LIG     1      15.638  31.935  14.434  1.00  0.00     0.000 C 
BRANCH   3   4
HETATM    4  C   LIG     1      15.492  30.481  13.960  1.00  0.00    -0.005 C 
HETATM    5  C   LIG     1      14.178  29.843  14.407  1.00  0.00     0.005 C 
ENDBRANCH   3   4
ENDBRANCH   2   3
ENDBRANCH   1   2
BRANCH   1   6
HETATM    6  C   LIG     1      13.898  31.960  17.426  1.00  0.00     0.258 C 
HETATM    7  O   LIG     1      12.738  31.727  16.984  1.00  0.00    -0.265 OA
BRANCH   6   8
HETATM    8  O   LIG     1      14.315  31.408  18.640  1.00  0.00    -0.326 OA
HETATM    9  C   LIG     1      15.174  32.097  19.541  1.00  0.00     0.213 C 
ENDBRANCH   6   8
ENDBRANCH   1   6
TORSDOF 5
ENDMDL
MODEL 20
REMARK VINA RESULT:      -4.3      4.525      5.384
REMARK  5 active torsions:
REMARK  status: ('A' for Active; 'I' for Inactive)
REMARK    1  A    between atoms: C_2  and  C_3 
REMARK    2  A    between atoms: C_3  and  C_4 
REMARK    3  A    between atoms: C_4  and  C_5 
REMARK    4  A    between atoms: C_5  and  C_6 
REMARK    5  A    between atoms: C_6  and  O_7 
ROOT
HETATM    1  C   LIG     1      15.697  34.504  21.345  1.00  0.00     0.111 C 
ENDROOT
BRANCH   1   2
HETATM    2  C   LIG     1      16.987  35.211  21.789  1.00  0.00     0.010 C 
BRANCH   2   3
HETATM    3  C   LIG     1      17.024  35.377  23.315  1.00  0.00     0.000 C 
BRANCH   3   4
HETATM    4  C   LIG     1      17.007  36.851  23.748  1.00  0.00    -0.005 C 
HETATM    5  C   LIG     1      17.397  37.042  25.212  1.00  0.00     0.005 C 
ENDBRANCH   3   4
ENDBRANCH   2   3
ENDBRANCH   1   2
BRANCH   1   6
HETATM    6  C   LIG     1      15.722  34.085  19.902  1.00  0.00     0.258 C 
HETATM    7  O   LIG     1      15.717  34.941  18.974  1.00  0.00    -0.265 OA
BRANCH   6   8
HETATM    8  O   LIG     1      15.752  32.720  19.602  1.00  0.00    -0.326 OA
HETATM    9  C   LIG     1      14.787  31.803  20.106  1.00  0.00     0.213 C 
ENDBRANCH   6   8
ENDBRANCH   1   6
TORSDOF 5
ENDMDL
