REMARK  0 active torsions:
REMARK  status: ('A' for Active; 'I' for Inactive)
ROOT
HETATM    1 CL   LIG     1       3.140   0.291  -0.064  1.00  0.00    -0.084 Cl
HETATM    2  C   LIG     1       1.394   0.129  -0.028  1.00  0.00     0.034 A 
HETATM    3  C   LIG     1       0.807  -1.142  -0.036  1.00  0.00     0.025 A 
HETATM    4  C   LIG     1      -0.585  -1.271  -0.008  1.00  0.00     0.025 A 
HETATM    5  C   LIG     1      -1.394  -0.129   0.028  1.00  0.00     0.034 A 
HETATM    6 CL   LIG     1      -3.140  -0.291   0.064  1.00  0.00    -0.084 Cl
HETATM    7  C   LIG     1      -0.807   1.142   0.036  1.00  0.00     0.025 A 
HETATM    8  C   LIG     1       0.585   1.271   0.008  1.00  0.00     0.025 A 
ENDROOT
TORSDOF 0
