REMARK  8 active torsions:
REMARK  status: ('A' for Active; 'I' for Inactive)
REMARK    1  A    between atoms: C_2  and  C_6 
REMARK    2  A    between atoms: C_2  and  O_3 
REMARK    3  A    between atoms: O_3  and  C_4 
REMARK    4  A    between atoms: C_6  and  C_7 
REMARK    5  A    between atoms: C_7  and  C_8 
REMARK    6  A    between atoms: C_8  and  C_9 
REMARK    7  A    between atoms: C_9  and  C_10 
REMARK    8  A    between atoms: C_10  and  C_11 
ROOT
HETATM    1  C   LIG     1      -1.209   0.290   0.282  1.00  0.00     0.111 C 
ENDROOT
BRANCH   1   2
HETATM    2  C   LIG     1      -2.667   0.331  -0.051  1.00  0.00     0.258 C 
HETATM    3  O   LIG     1      -3.133   1.305  -0.702  1.00  0.00    -0.265 OA
BRANCH   2   4
HETATM    4  O   LIG     1      -3.486  -0.742   0.318  1.00  0.00    -0.322 OA
BRANCH   4   5
HETATM    5  C   LIG     1      -4.888  -0.784   0.062  1.00  0.00     0.174 C 
HETATM    6  C   LIG     1      -5.640   0.124   1.029  1.00  0.00     0.034 C 
ENDBRANCH   4   5
ENDBRANCH   2   4
ENDBRANCH   1   2
BRANCH   1   7
HETATM    7  C   LIG     1      -0.425  -0.410  -0.835  1.00  0.00     0.010 C 
BRANCH   7   8
HETATM    8  C   LIG     1       1.059  -0.600  -0.485  1.00  0.00     0.000 C 
BRANCH   8   9
HETATM    9  C   LIG     1       1.834   0.729  -0.456  1.00  0.00     0.000 C 
BRANCH   9  10
HETATM   10  C   LIG     1       3.355   0.524  -0.372  1.00  0.00    -0.000 C 
BRANCH  10  11
HETATM   11  C   LIG     1       3.800  -0.033   0.988  1.00  0.00    -0.005 C 
HETATM   12  C   LIG     1       5.322  -0.102   1.082  1.00  0.00     0.005 C 
ENDBRANCH  10  11
ENDBRANCH   9  10
ENDBRANCH   8   9
ENDBRANCH   7   8
ENDBRANCH   1   7
TORSDOF 8
