REMARK  0 active torsions:
REMARK  status: ('A' for Active; 'I' for Inactive)
ROOT
HETATM    1 BR   LIG     1       3.295  -0.112   0.018  1.00  0.00    -0.051 Br
HETATM    2  C   LIG     1       1.386  -0.047   0.007  1.00  0.00     0.011 A 
HETATM    3  C   LIG     1       0.727   1.188  -0.003  1.00  0.00     0.021 A 
HETATM    4  C   LIG     1      -0.671   1.235  -0.010  1.00  0.00     0.025 A 
HETATM    5  C   LIG     1      -1.413   0.048  -0.007  1.00  0.00     0.034 A 
HETATM    6 CL   LIG     1      -3.166   0.108  -0.017  1.00  0.00    -0.084 Cl
HETATM    7  C   LIG     1      -0.753  -1.187   0.002  1.00  0.00     0.025 A 
HETATM    8  C   LIG     1       0.645  -1.234   0.010  1.00  0.00     0.021 A 
ENDROOT
TORSDOF 0
