REMARK  0 active torsions:
REMARK  status: ('A' for Active; 'I' for Inactive)
ROOT
HETATM    1  C   LIG     1      -2.905   0.052   0.070  1.00  0.00     0.048 C 
HETATM    2  C   LIG     1      -1.406   0.016   0.029  1.00  0.00    -0.062 A 
HETATM    3  C   LIG     1      -0.716  -1.207   0.035  1.00  0.00     0.007 A 
HETATM    4  C   LIG     1       0.682  -1.226  -0.004  1.00  0.00     0.007 A 
HETATM    5  C   LIG     1       1.406  -0.025  -0.062  1.00  0.00    -0.062 A 
HETATM    6  C   LIG     1       2.905  -0.046  -0.063  1.00  0.00     0.048 C 
HETATM    7  C   LIG     1       0.715   1.196  -0.050  1.00  0.00     0.007 A 
HETATM    8  C   LIG     1      -0.682   1.216  -0.012  1.00  0.00     0.007 A 
ENDROOT
TORSDOF 0
