REMARK  5 active torsions:
REMARK  status: ('A' for Active; 'I' for Inactive)
REMARK    1  A    between atoms: C_2  and  C_3 
REMARK    2  A    between atoms: C_3  and  C_4 
REMARK    3  A    between atoms: C_4  and  C_5 
REMARK    4  A    between atoms: C_5  and  C_6 
REMARK    5  A    between atoms: C_6  and  O_7 
ROOT
HETATM    1  C   LIG     1       0.898  -0.717   0.033  1.00  0.00     0.111 C 
ENDROOT
BRANCH   1   2
HETATM    2  C   LIG     1      -0.386   0.029  -0.362  1.00  0.00     0.010 C 
BRANCH   2   3
HETATM    3  C   LIG     1      -1.588  -0.927  -0.393  1.00  0.00     0.000 C 
BRANCH   3   4
HETATM    4  C   LIG     1      -2.868  -0.248  -0.903  1.00  0.00    -0.005 C 
HETATM    5  C   LIG     1      -3.438   0.762   0.091  1.00  0.00     0.005 C 
ENDBRANCH   3   4
ENDBRANCH   2   3
ENDBRANCH   1   2
BRANCH   1   6
HETATM    6  C   LIG     1       2.105   0.177   0.087  1.00  0.00     0.258 C 
HETATM    7  O   LIG     1       2.016   1.408  -0.179  1.00  0.00    -0.265 OA
BRANCH   6   8
HETATM    8  O   LIG     1       3.337  -0.382   0.438  1.00  0.00    -0.326 OA
HETATM    9  C   LIG     1       4.533   0.385   0.515  1.00  0.00     0.213 C 
ENDBRANCH   6   8
ENDBRANCH   1   6
TORSDOF 5
