MODEL 1
REMARK VINA RESULT:      -6.0      0.000      0.000
REMARK  1 active torsions:
REMARK  status: ('A' for Active; 'I' for Inactive)
REMARK    1  A    between atoms: N_1  and  C_2 
ROOT
HETATM    1  C   LIG     1      19.528  38.682  19.716  1.00  0.00     0.025 A 
HETATM    2  C   LIG     1      19.223  37.336  19.470  1.00  0.00     0.029 A 
HETATM    3  C   LIG     1      18.278  36.673  20.258  1.00  0.00     0.009 A 
HETATM    4  C   LIG     1      17.616  37.353  21.293  1.00  0.00    -0.062 A 
HETATM    5  C   LIG     1      16.631  36.631  22.162  1.00  0.00     0.048 C 
HETATM    6  C   LIG     1      17.935  38.695  21.549  1.00  0.00     0.009 A 
HETATM    7  C   LIG     1      18.881  39.359  20.760  1.00  0.00     0.029 A 
ENDROOT
BRANCH   1   8
HETATM    8  N   LIG     1      20.496  39.360  18.911  1.00  0.00    -0.399 N 
HETATM    9  H   LIG     1      20.347  39.482  17.884  1.00  0.00     0.156 HD
HETATM   10  H   LIG     1      21.369  39.746  19.335  1.00  0.00     0.156 HD
ENDBRANCH   1   8
TORSDOF 1
ENDMDL
MODEL 2
REMARK VINA RESULT:      -6.0      0.065      1.714
REMARK  1 active torsions:
REMARK  status: ('A' for Active; 'I' for Inactive)
REMARK    1  A    between atoms: N_1  and  C_2 
ROOT
HETATM    1  C   LIG     1      19.548  38.648  19.758  1.00  0.00     0.025 A 
HETATM    2  C   LIG     1      18.931  39.313  20.827  1.00  0.00     0.029 A 
HETATM    3  C   LIG     1      17.970  38.658  21.603  1.00  0.00     0.009 A 
HETATM    4  C   LIG     1      17.626  37.325  21.327  1.00  0.00    -0.062 A 
HETATM    5  C   LIG     1      16.568  36.634  22.135  1.00  0.00     0.048 C 
HETATM    6  C   LIG     1      18.231  36.667  20.246  1.00  0.00     0.009 A 
HETATM    7  C   LIG     1      19.193  37.323  19.470  1.00  0.00     0.029 A 
ENDROOT
BRANCH   1   8
HETATM    8  N   LIG     1      20.529  39.320  18.963  1.00  0.00    -0.399 N 
HETATM    9  H   LIG     1      20.243  39.943  18.176  1.00  0.00     0.156 HD
HETATM   10  H   LIG     1      21.548  39.198  19.156  1.00  0.00     0.156 HD
ENDBRANCH   1   8
TORSDOF 1
ENDMDL
MODEL 3
REMARK VINA RESULT:      -5.9      3.894      4.811
REMARK  1 active torsions:
REMARK  status: ('A' for Active; 'I' for Inactive)
REMARK    1  A    between atoms: N_1  and  C_2 
ROOT
HETATM    1  C   LIG     1      16.841  37.907  23.806  1.00  0.00     0.025 A 
HETATM    2  C   LIG     1      16.793  36.573  23.378  1.00  0.00     0.029 A 
HETATM    3  C   LIG     1      17.249  35.548  24.213  1.00  0.00     0.009 A 
HETATM    4  C   LIG     1      17.746  35.846  25.491  1.00  0.00    -0.062 A 
HETATM    5  C   LIG     1      18.270  34.751  26.372  1.00  0.00     0.048 C 
HETATM    6  C   LIG     1      17.811  37.183  25.912  1.00  0.00     0.009 A 
HETATM    7  C   LIG     1      17.354  38.208  25.076  1.00  0.00     0.029 A 
ENDROOT
BRANCH   1   8
HETATM    8  N   LIG     1      16.377  38.955  22.951  1.00  0.00    -0.399 N 
HETATM    9  H   LIG     1      15.740  39.698  23.314  1.00  0.00     0.156 HD
HETATM   10  H   LIG     1      16.667  38.995  21.948  1.00  0.00     0.156 HD
ENDBRANCH   1   8
TORSDOF 1
ENDMDL
MODEL 4
REMARK VINA RESULT:      -5.9      3.903      5.083
REMARK  1 active torsions:
REMARK  status: ('A' for Active; 'I' for Inactive)
REMARK    1  A    between atoms: N_1  and  C_2 
ROOT
HETATM    1  C   LIG     1      16.824  37.919  23.810  1.00  0.00     0.025 A 
HETATM    2  C   LIG     1      17.330  38.218  25.083  1.00  0.00     0.029 A 
HETATM    3  C   LIG     1      17.797  37.195  25.913  1.00  0.00     0.009 A 
HETATM    4  C   LIG     1      17.776  35.862  25.474  1.00  0.00    -0.062 A 
HETATM    5  C   LIG     1      18.241  34.760  26.380  1.00  0.00     0.048 C 
HETATM    6  C   LIG     1      17.252  35.562  24.208  1.00  0.00     0.009 A 
HETATM    7  C   LIG     1      16.785  36.586  23.377  1.00  0.00     0.029 A 
ENDROOT
BRANCH   1   8
HETATM    8  N   LIG     1      16.344  38.966  22.962  1.00  0.00    -0.399 N 
HETATM    9  H   LIG     1      16.926  39.320  22.170  1.00  0.00     0.156 HD
HETATM   10  H   LIG     1      15.404  39.393  23.119  1.00  0.00     0.156 HD
ENDBRANCH   1   8
TORSDOF 1
ENDMDL
MODEL 5
REMARK VINA RESULT:      -5.7      2.618      3.879
REMARK  1 active torsions:
REMARK  status: ('A' for Active; 'I' for Inactive)
REMARK    1  A    between atoms: N_1  and  C_2 
ROOT
HETATM    1  C   LIG     1      16.424  37.802  22.491  1.00  0.00     0.025 A 
HETATM    2  C   LIG     1      17.353  38.772  22.091  1.00  0.00     0.029 A 
HETATM    3  C   LIG     1      18.305  38.474  21.112  1.00  0.00     0.009 A 
HETATM    4  C   LIG     1      18.328  37.206  20.510  1.00  0.00    -0.062 A 
HETATM    5  C   LIG     1      19.373  36.874  19.487  1.00  0.00     0.048 C 
HETATM    6  C   LIG     1      17.409  36.230  20.924  1.00  0.00     0.009 A 
HETATM    7  C   LIG     1      16.457  36.529  21.905  1.00  0.00     0.029 A 
ENDROOT
BRANCH   1   8
HETATM    8  N   LIG     1      15.452  38.106  23.495  1.00  0.00    -0.399 N 
HETATM    9  H   LIG     1      14.532  38.528  23.238  1.00  0.00     0.156 HD
HETATM   10  H   LIG     1      15.645  37.912  24.503  1.00  0.00     0.156 HD
ENDBRANCH   1   8
TORSDOF 1
ENDMDL
MODEL 6
REMARK VINA RESULT:      -5.6      2.271      3.384
REMARK  1 active torsions:
REMARK  status: ('A' for Active; 'I' for Inactive)
REMARK    1  A    between atoms: N_1  and  C_2 
ROOT
HETATM    1  C   LIG     1      17.211  37.169  21.595  1.00  0.00     0.025 A 
HETATM    2  C   LIG     1      17.815  36.438  20.563  1.00  0.00     0.029 A 
HETATM    3  C   LIG     1      18.842  37.008  19.803  1.00  0.00     0.009 A 
HETATM    4  C   LIG     1      19.285  38.311  20.077  1.00  0.00    -0.062 A 
HETATM    5  C   LIG     1      20.359  38.936  19.239  1.00  0.00     0.048 C 
HETATM    6  C   LIG     1      18.667  39.048  21.099  1.00  0.00     0.009 A 
HETATM    7  C   LIG     1      17.640  38.477  21.858  1.00  0.00     0.029 A 
ENDROOT
BRANCH   1   8
HETATM    8  N   LIG     1      16.160  36.586  22.369  1.00  0.00    -0.399 N 
HETATM    9  H   LIG     1      15.364  36.094  21.906  1.00  0.00     0.156 HD
HETATM   10  H   LIG     1      16.170  36.643  23.412  1.00  0.00     0.156 HD
ENDBRANCH   1   8
TORSDOF 1
ENDMDL
MODEL 7
REMARK VINA RESULT:      -5.5      3.815      4.536
REMARK  1 active torsions:
REMARK  status: ('A' for Active; 'I' for Inactive)
REMARK    1  A    between atoms: N_1  and  C_2 
ROOT
HETATM    1  C   LIG     1      17.136  37.571  24.636  1.00  0.00     0.025 A 
HETATM    2  C   LIG     1      17.295  36.196  24.858  1.00  0.00     0.029 A 
HETATM    3  C   LIG     1      17.117  35.288  23.810  1.00  0.00     0.009 A 
HETATM    4  C   LIG     1      16.791  35.747  22.524  1.00  0.00    -0.062 A 
HETATM    5  C   LIG     1      16.562  34.771  21.408  1.00  0.00     0.048 C 
HETATM    6  C   LIG     1      16.615  37.122  22.307  1.00  0.00     0.009 A 
HETATM    7  C   LIG     1      16.793  38.030  23.357  1.00  0.00     0.029 A 
ENDROOT
BRANCH   1   8
HETATM    8  N   LIG     1      17.317  38.498  25.709  1.00  0.00    -0.399 N 
HETATM    9  H   LIG     1      17.147  39.519  25.567  1.00  0.00     0.156 HD
HETATM   10  H   LIG     1      17.620  38.172  26.654  1.00  0.00     0.156 HD
ENDBRANCH   1   8
TORSDOF 1
ENDMDL
MODEL 8
REMARK VINA RESULT:      -5.4      4.098      5.294
REMARK  1 active torsions:
REMARK  status: ('A' for Active; 'I' for Inactive)
REMARK    1  A    between atoms: N_1  and  C_2 
ROOT
HETATM    1  C   LIG     1      17.513  36.313  25.451  1.00  0.00     0.025 A 
HETATM    2  C   LIG     1      17.354  37.492  24.710  1.00  0.00     0.029 A 
HETATM    3  C   LIG     1      17.053  37.433  23.346  1.00  0.00     0.009 A 
HETATM    4  C   LIG     1      16.893  36.191  22.710  1.00  0.00    -0.062 A 
HETATM    5  C   LIG     1      16.608  36.126  21.239  1.00  0.00     0.048 C 
HETATM    6  C   LIG     1      17.070  35.011  23.449  1.00  0.00     0.009 A 
HETATM    7  C   LIG     1      17.371  35.072  24.814  1.00  0.00     0.029 A 
ENDROOT
BRANCH   1   8
HETATM    8  N   LIG     1      17.823  36.374  26.845  1.00  0.00    -0.399 N 
HETATM    9  H   LIG     1      17.064  36.451  27.558  1.00  0.00     0.156 HD
HETATM   10  H   LIG     1      18.814  36.342  27.175  1.00  0.00     0.156 HD
ENDBRANCH   1   8
TORSDOF 1
ENDMDL
MODEL 9
REMARK VINA RESULT:      -5.3      1.535      2.091
REMARK  1 active torsions:
REMARK  status: ('A' for Active; 'I' for Inactive)
REMARK    1  A    between atoms: N_1  and  C_2 
ROOT
HETATM    1  C   LIG     1      18.238  38.612  21.488  1.00  0.00     0.025 A 
HETATM    2  C   LIG     1      18.517  37.760  20.411  1.00  0.00     0.029 A 
HETATM    3  C   LIG     1      17.902  36.507  20.326  1.00  0.00     0.009 A 
HETATM    4  C   LIG     1      16.990  36.099  21.312  1.00  0.00    -0.062 A 
HETATM    5  C   LIG     1      16.359  34.740  21.241  1.00  0.00     0.048 C 
HETATM    6  C   LIG     1      16.725  36.945  22.399  1.00  0.00     0.009 A 
HETATM    7  C   LIG     1      17.341  38.199  22.483  1.00  0.00     0.029 A 
ENDROOT
BRANCH   1   8
HETATM    8  N   LIG     1      18.869  39.893  21.575  1.00  0.00    -0.399 N 
HETATM    9  H   LIG     1      18.689  40.522  22.388  1.00  0.00     0.156 HD
HETATM   10  H   LIG     1      19.521  40.220  20.827  1.00  0.00     0.156 HD
ENDBRANCH   1   8
TORSDOF 1
ENDMDL
MODEL 10
REMARK VINA RESULT:      -5.3      7.905      8.963
REMARK  1 active torsions:
REMARK  status: ('A' for Active; 'I' for Inactive)
REMARK    1  A    between atoms: N_1  and  C_2 
ROOT
HETATM    1  C   LIG     1      14.888  32.919  16.897  1.00  0.00     0.025 A 
HETATM    2  C   LIG     1      13.794  32.072  17.125  1.00  0.00     0.029 A 
HETATM    3  C   LIG     1      13.557  30.984  16.278  1.00  0.00     0.009 A 
HETATM    4  C   LIG     1      14.420  30.724  15.202  1.00  0.00    -0.062 A 
HETATM    5  C   LIG     1      14.144  29.580  14.272  1.00  0.00     0.048 C 
HETATM    6  C   LIG     1      15.504  31.583  14.965  1.00  0.00     0.009 A 
HETATM    7  C   LIG     1      15.740  32.671  15.812  1.00  0.00     0.029 A 
ENDROOT
BRANCH   1   8
HETATM    8  N   LIG     1      15.128  34.032  17.762  1.00  0.00    -0.399 N 
HETATM    9  H   LIG     1      16.101  34.362  17.949  1.00  0.00     0.156 HD
HETATM   10  H   LIG     1      14.335  34.534  18.220  1.00  0.00     0.156 HD
ENDBRANCH   1   8
TORSDOF 1
ENDMDL
MODEL 11
REMARK VINA RESULT:      -5.2      1.695      2.727
REMARK  1 active torsions:
REMARK  status: ('A' for Active; 'I' for Inactive)
REMARK    1  A    between atoms: N_1  and  C_2 
ROOT
HETATM    1  C   LIG     1      18.059  36.932  20.393  1.00  0.00     0.025 A 
HETATM    2  C   LIG     1      18.310  38.177  20.986  1.00  0.00     0.029 A 
HETATM    3  C   LIG     1      17.865  38.441  22.285  1.00  0.00     0.009 A 
HETATM    4  C   LIG     1      17.175  37.457  23.010  1.00  0.00    -0.062 A 
HETATM    5  C   LIG     1      16.664  37.754  24.389  1.00  0.00     0.048 C 
HETATM    6  C   LIG     1      16.908  36.218  22.409  1.00  0.00     0.009 A 
HETATM    7  C   LIG     1      17.354  35.954  21.109  1.00  0.00     0.029 A 
ENDROOT
BRANCH   1   8
HETATM    8  N   LIG     1      18.512  36.663  19.064  1.00  0.00    -0.399 N 
HETATM    9  H   LIG     1      18.191  37.248  18.261  1.00  0.00     0.156 HD
HETATM   10  H   LIG     1      19.173  35.877  18.873  1.00  0.00     0.156 HD
ENDBRANCH   1   8
TORSDOF 1
ENDMDL
MODEL 12
REMARK VINA RESULT:      -5.2      9.593     10.613
REMARK  1 active torsions:
REMARK  status: ('A' for Active; 'I' for Inactive)
REMARK    1  A    between atoms: N_1  and  C_2 
ROOT
HETATM    1  C   LIG     1      13.491  29.557  14.504  1.00  0.00     0.025 A 
HETATM    2  C   LIG     1      14.715  29.866  13.895  1.00  0.00     0.029 A 
HETATM    3  C   LIG     1      15.503  30.911  14.386  1.00  0.00     0.009 A 
HETATM    4  C   LIG     1      15.081  31.651  15.502  1.00  0.00    -0.062 A 
HETATM    5  C   LIG     1      15.908  32.797  16.005  1.00  0.00     0.048 C 
HETATM    6  C   LIG     1      13.847  31.354  16.100  1.00  0.00     0.009 A 
HETATM    7  C   LIG     1      13.060  30.307  15.608  1.00  0.00     0.029 A 
ENDROOT
BRANCH   1   8
HETATM    8  N   LIG     1      12.685  28.490  14.000  1.00  0.00    -0.399 N 
HETATM    9  H   LIG     1      11.643  28.561  14.000  1.00  0.00     0.156 HD
HETATM   10  H   LIG     1      13.123  27.620  13.623  1.00  0.00     0.156 HD
ENDBRANCH   1   8
TORSDOF 1
ENDMDL
MODEL 13
REMARK VINA RESULT:      -5.2      9.528     10.634
REMARK  1 active torsions:
REMARK  status: ('A' for Active; 'I' for Inactive)
REMARK    1  A    between atoms: N_1  and  C_2 
ROOT
HETATM    1  C   LIG     1      13.546  29.620  14.493  1.00  0.00     0.025 A 
HETATM    2  C   LIG     1      13.119  30.354  15.608  1.00  0.00     0.029 A 
HETATM    3  C   LIG     1      13.912  31.387  16.118  1.00  0.00     0.009 A 
HETATM    4  C   LIG     1      15.135  31.706  15.508  1.00  0.00    -0.062 A 
HETATM    5  C   LIG     1      16.004  32.789  16.077  1.00  0.00     0.048 C 
HETATM    6  C   LIG     1      15.570  30.959  14.402  1.00  0.00     0.009 A 
HETATM    7  C   LIG     1      14.776  29.926  13.893  1.00  0.00     0.029 A 
ENDROOT
BRANCH   1   8
HETATM    8  N   LIG     1      12.736  28.562  13.974  1.00  0.00    -0.399 N 
HETATM    9  H   LIG     1      13.133  27.863  13.308  1.00  0.00     0.156 HD
HETATM   10  H   LIG     1      11.734  28.470  14.252  1.00  0.00     0.156 HD
ENDBRANCH   1   8
TORSDOF 1
ENDMDL
MODEL 14
REMARK VINA RESULT:      -5.1      3.119      4.406
REMARK  1 active torsions:
REMARK  status: ('A' for Active; 'I' for Inactive)
REMARK    1  A    between atoms: N_1  and  C_2 
ROOT
HETATM    1  C   LIG     1      15.501  35.939  21.572  1.00  0.00     0.025 A 
HETATM    2  C   LIG     1      15.333  37.064  22.391  1.00  0.00     0.029 A 
HETATM    3  C   LIG     1      16.337  38.033  22.473  1.00  0.00     0.009 A 
HETATM    4  C   LIG     1      17.517  37.894  21.725  1.00  0.00    -0.062 A 
HETATM    5  C   LIG     1      18.611  38.913  21.842  1.00  0.00     0.048 C 
HETATM    6  C   LIG     1      17.693  36.758  20.920  1.00  0.00     0.009 A 
HETATM    7  C   LIG     1      16.687  35.789  20.839  1.00  0.00     0.029 A 
ENDROOT
BRANCH   1   8
HETATM    8  N   LIG     1      14.474  34.947  21.491  1.00  0.00    -0.399 N 
HETATM    9  H   LIG     1      14.714  33.931  21.467  1.00  0.00     0.156 HD
HETATM   10  H   LIG     1      13.467  35.222  21.454  1.00  0.00     0.156 HD
ENDBRANCH   1   8
TORSDOF 1
ENDMDL
MODEL 15
REMARK VINA RESULT:      -5.1      8.361      9.447
REMARK  1 active torsions:
REMARK  status: ('A' for Active; 'I' for Inactive)
REMARK    1  A    between atoms: N_1  and  C_2 
ROOT
HETATM    1  C   LIG     1      13.579  30.958  16.219  1.00  0.00     0.025 A 
HETATM    2  C   LIG     1      14.241  30.492  15.075  1.00  0.00     0.029 A 
HETATM    3  C   LIG     1      15.411  31.118  14.634  1.00  0.00     0.009 A 
HETATM    4  C   LIG     1      15.939  32.210  15.340  1.00  0.00    -0.062 A 
HETATM    5  C   LIG     1      17.172  32.906  14.846  1.00  0.00     0.048 C 
HETATM    6  C   LIG     1      15.264  32.688  16.475  1.00  0.00     0.009 A 
HETATM    7  C   LIG     1      14.094  32.060  16.915  1.00  0.00     0.029 A 
ENDROOT
BRANCH   1   8
HETATM    8  N   LIG     1      12.381  30.319  16.668  1.00  0.00    -0.399 N 
HETATM    9  H   LIG     1      12.019  29.465  16.188  1.00  0.00     0.156 HD
HETATM   10  H   LIG     1      11.848  30.694  17.485  1.00  0.00     0.156 HD
ENDBRANCH   1   8
TORSDOF 1
ENDMDL
MODEL 16
REMARK VINA RESULT:      -5.0      8.273      9.464
REMARK  1 active torsions:
REMARK  status: ('A' for Active; 'I' for Inactive)
REMARK    1  A    between atoms: N_1  and  C_2 
ROOT
HETATM    1  C   LIG     1      14.343  31.791  17.293  1.00  0.00     0.025 A 
HETATM    2  C   LIG     1      15.420  32.444  16.678  1.00  0.00     0.029 A 
HETATM    3  C   LIG     1      15.782  32.124  15.366  1.00  0.00     0.009 A 
HETATM    4  C   LIG     1      15.061  31.155  14.650  1.00  0.00    -0.062 A 
HETATM    5  C   LIG     1      15.473  30.784  13.256  1.00  0.00     0.048 C 
HETATM    6  C   LIG     1      13.995  30.489  15.273  1.00  0.00     0.009 A 
HETATM    7  C   LIG     1      13.633  30.810  16.586  1.00  0.00     0.029 A 
ENDROOT
BRANCH   1   8
HETATM    8  N   LIG     1      13.975  32.117  18.636  1.00  0.00    -0.399 N 
HETATM    9  H   LIG     1      14.704  32.325  19.354  1.00  0.00     0.156 HD
HETATM   10  H   LIG     1      12.971  32.154  18.921  1.00  0.00     0.156 HD
ENDBRANCH   1   8
TORSDOF 1
ENDMDL
MODEL 17
REMARK VINA RESULT:      -4.9      8.756      9.713
REMARK  1 active torsions:
REMARK  status: ('A' for Active; 'I' for Inactive)
REMARK    1  A    between atoms: N_1  and  C_2 
ROOT
HETATM    1  C   LIG     1      15.334  32.194  15.833  1.00  0.00     0.025 A 
HETATM    2  C   LIG     1      15.789  31.591  14.653  1.00  0.00     0.029 A 
HETATM    3  C   LIG     1      15.091  30.514  14.097  1.00  0.00     0.009 A 
HETATM    4  C   LIG     1      13.921  30.038  14.710  1.00  0.00    -0.062 A 
HETATM    5  C   LIG     1      13.193  28.859  14.136  1.00  0.00     0.048 C 
HETATM    6  C   LIG     1      13.477  30.631  15.902  1.00  0.00     0.009 A 
HETATM    7  C   LIG     1      14.176  31.708  16.457  1.00  0.00     0.029 A 
ENDROOT
BRANCH   1   8
HETATM    8  N   LIG     1      16.050  33.294  16.402  1.00  0.00    -0.399 N 
HETATM    9  H   LIG     1      16.893  33.685  15.927  1.00  0.00     0.156 HD
HETATM   10  H   LIG     1      15.742  33.724  17.302  1.00  0.00     0.156 HD
ENDBRANCH   1   8
TORSDOF 1
ENDMDL
MODEL 18
REMARK VINA RESULT:      -4.6      8.349      9.150
REMARK  1 active torsions:
REMARK  status: ('A' for Active; 'I' for Inactive)
REMARK    1  A    between atoms: N_1  and  C_2 
ROOT
HETATM    1  C   LIG     1      16.263  32.209  13.820  1.00  0.00     0.025 A 
HETATM    2  C   LIG     1      15.496  31.079  13.505  1.00  0.00     0.029 A 
HETATM    3  C   LIG     1      14.591  30.560  14.436  1.00  0.00     0.009 A 
HETATM    4  C   LIG     1      14.433  31.175  15.688  1.00  0.00    -0.062 A 
HETATM    5  C   LIG     1      13.490  30.596  16.700  1.00  0.00     0.048 C 
HETATM    6  C   LIG     1      15.214  32.296  16.008  1.00  0.00     0.009 A 
HETATM    7  C   LIG     1      16.119  32.814  15.077  1.00  0.00     0.029 A 
ENDROOT
BRANCH   1   8
HETATM    8  N   LIG     1      17.191  32.738  12.869  1.00  0.00    -0.399 N 
HETATM    9  H   LIG     1      18.067  33.212  13.183  1.00  0.00     0.156 HD
HETATM   10  H   LIG     1      17.008  32.659  11.843  1.00  0.00     0.156 HD
ENDBRANCH   1   8
TORSDOF 1
ENDMDL
MODEL 19
REMARK VINA RESULT:      -4.4      3.110      4.148
REMARK  1 active torsions:
REMARK  status: ('A' for Active; 'I' for Inactive)
REMARK    1  A    between atoms: N_1  and  C_2 
ROOT
HETATM    1  C   LIG     1      17.170  36.076  23.597  1.00  0.00     0.025 A 
HETATM    2  C   LIG     1      17.266  35.792  22.228  1.00  0.00     0.029 A 
HETATM    3  C   LIG     1      17.586  36.805  21.319  1.00  0.00     0.009 A 
HETATM    4  C   LIG     1      17.827  38.111  21.772  1.00  0.00    -0.062 A 
HETATM    5  C   LIG     1      18.132  39.206  20.793  1.00  0.00     0.048 C 
HETATM    6  C   LIG     1      17.712  38.398  23.140  1.00  0.00     0.009 A 
HETATM    7  C   LIG     1      17.392  37.384  24.049  1.00  0.00     0.029 A 
ENDROOT
BRANCH   1   8
HETATM    8  N   LIG     1      16.841  35.040  24.526  1.00  0.00    -0.399 N 
HETATM    9  H   LIG     1      17.470  34.217  24.654  1.00  0.00     0.156 HD
HETATM   10  H   LIG     1      15.965  35.088  25.093  1.00  0.00     0.156 HD
ENDBRANCH   1   8
TORSDOF 1
ENDMDL
