MODEL 1
REMARK VINA RESULT:      -3.1      0.000      0.000
REMARK  1 active torsions:
REMARK  status: ('A' for Active; 'I' for Inactive)
REMARK    1  A    between atoms: C_2  and  C_3 
ROOT
HETATM    1 BR   LIG     1      17.878  35.037  26.126  1.00  0.00    -0.096 Br
HETATM    2  C   LIG     1      18.466  36.877  25.940  1.00  0.00     0.096 C 
ENDROOT
BRANCH   2   3
HETATM    3  C   LIG     1      17.324  37.777  25.480  1.00  0.00     0.096 C 
HETATM    4 BR   LIG     1      17.527  38.267  23.613  1.00  0.00    -0.096 Br
ENDBRANCH   2   3
TORSDOF 1
ENDMDL
MODEL 2
REMARK VINA RESULT:      -3.0      1.262      3.285
REMARK  1 active torsions:
REMARK  status: ('A' for Active; 'I' for Inactive)
REMARK    1  A    between atoms: C_2  and  C_3 
ROOT
HETATM    1 BR   LIG     1      17.324  38.626  22.608  1.00  0.00    -0.096 Br
HETATM    2  C   LIG     1      16.891  37.347  24.001  1.00  0.00     0.096 C 
ENDROOT
BRANCH   2   3
HETATM    3  C   LIG     1      17.302  37.868  25.374  1.00  0.00     0.096 C 
HETATM    4 BR   LIG     1      18.329  36.541  26.349  1.00  0.00    -0.096 Br
ENDBRANCH   2   3
TORSDOF 1
ENDMDL
MODEL 3
REMARK VINA RESULT:      -2.9      1.852      3.162
REMARK  1 active torsions:
REMARK  status: ('A' for Active; 'I' for Inactive)
REMARK    1  A    between atoms: C_2  and  C_3 
ROOT
HETATM    1 BR   LIG     1      17.520  37.854  25.259  1.00  0.00    -0.096 Br
HETATM    2  C   LIG     1      17.031  36.498  23.959  1.00  0.00     0.096 C 
ENDROOT
BRANCH   2   3
HETATM    3  C   LIG     1      17.226  35.097  24.527  1.00  0.00     0.096 C 
HETATM    4 BR   LIG     1      18.140  35.154  26.238  1.00  0.00    -0.096 Br
ENDBRANCH   2   3
TORSDOF 1
ENDMDL
MODEL 4
REMARK VINA RESULT:      -2.9      1.891      1.946
REMARK  1 active torsions:
REMARK  status: ('A' for Active; 'I' for Inactive)
REMARK    1  A    between atoms: C_2  and  C_3 
ROOT
HETATM    1 BR   LIG     1      17.548  35.038  25.666  1.00  0.00    -0.096 Br
HETATM    2  C   LIG     1      17.412  36.910  25.173  1.00  0.00     0.096 C 
ENDROOT
BRANCH   2   3
HETATM    3  C   LIG     1      16.929  37.068  23.736  1.00  0.00     0.096 C 
HETATM    4 BR   LIG     1      16.939  35.365  22.803  1.00  0.00    -0.096 Br
ENDBRANCH   2   3
TORSDOF 1
ENDMDL
MODEL 5
REMARK VINA RESULT:      -2.7      4.328      4.885
REMARK  1 active torsions:
REMARK  status: ('A' for Active; 'I' for Inactive)
REMARK    1  A    between atoms: C_2  and  C_3 
ROOT
HETATM    1 BR   LIG     1      18.996  37.031  19.542  1.00  0.00    -0.096 Br
HETATM    2  C   LIG     1      17.630  36.379  20.757  1.00  0.00     0.096 C 
ENDROOT
BRANCH   2   3
HETATM    3  C   LIG     1      17.277  37.430  21.804  1.00  0.00     0.096 C 
HETATM    4 BR   LIG     1      18.335  39.039  21.565  1.00  0.00    -0.096 Br
ENDBRANCH   2   3
TORSDOF 1
ENDMDL
MODEL 6
REMARK VINA RESULT:      -2.7      4.222      4.982
REMARK  1 active torsions:
REMARK  status: ('A' for Active; 'I' for Inactive)
REMARK    1  A    between atoms: C_2  and  C_3 
ROOT
HETATM    1 BR   LIG     1      18.112  38.861  21.713  1.00  0.00    -0.096 Br
HETATM    2  C   LIG     1      17.217  37.141  21.793  1.00  0.00     0.096 C 
ENDROOT
BRANCH   2   3
HETATM    3  C   LIG     1      17.586  36.272  20.596  1.00  0.00     0.096 C 
HETATM    4 BR   LIG     1      18.996  37.091  19.543  1.00  0.00    -0.096 Br
ENDBRANCH   2   3
TORSDOF 1
ENDMDL
MODEL 7
REMARK VINA RESULT:      -2.7      4.322      5.246
REMARK  1 active torsions:
REMARK  status: ('A' for Active; 'I' for Inactive)
REMARK    1  A    between atoms: C_2  and  C_3 
ROOT
HETATM    1 BR   LIG     1      19.003  37.191  19.527  1.00  0.00    -0.096 Br
HETATM    2  C   LIG     1      18.919  39.050  20.075  1.00  0.00     0.096 C 
ENDROOT
BRANCH   2   3
HETATM    3  C   LIG     1      18.868  39.175  21.594  1.00  0.00     0.096 C 
HETATM    4 BR   LIG     1      17.194  38.489  22.297  1.00  0.00    -0.096 Br
ENDBRANCH   2   3
TORSDOF 1
ENDMDL
MODEL 8
REMARK VINA RESULT:      -2.7      2.685      3.842
REMARK  1 active torsions:
REMARK  status: ('A' for Active; 'I' for Inactive)
REMARK    1  A    between atoms: C_2  and  C_3 
ROOT
HETATM    1 BR   LIG     1      17.230  36.082  21.250  1.00  0.00    -0.096 Br
HETATM    2  C   LIG     1      16.915  35.172  22.935  1.00  0.00     0.096 C 
ENDROOT
BRANCH   2   3
HETATM    3  C   LIG     1      17.203  36.090  24.118  1.00  0.00     0.096 C 
HETATM    4 BR   LIG     1      17.574  35.066  25.725  1.00  0.00    -0.096 Br
ENDBRANCH   2   3
TORSDOF 1
ENDMDL
MODEL 9
REMARK VINA RESULT:      -2.7      2.573      2.915
REMARK  1 active torsions:
REMARK  status: ('A' for Active; 'I' for Inactive)
REMARK    1  A    between atoms: C_2  and  C_3 
ROOT
HETATM    1 BR   LIG     1      17.515  37.745  25.109  1.00  0.00    -0.096 Br
HETATM    2  C   LIG     1      16.357  37.700  23.553  1.00  0.00     0.096 C 
ENDROOT
BRANCH   2   3
HETATM    3  C   LIG     1      17.158  37.462  22.277  1.00  0.00     0.096 C 
HETATM    4 BR   LIG     1      18.215  39.022  21.812  1.00  0.00    -0.096 Br
ENDBRANCH   2   3
TORSDOF 1
ENDMDL
MODEL 10
REMARK VINA RESULT:      -2.5      3.009      4.074
REMARK  1 active torsions:
REMARK  status: ('A' for Active; 'I' for Inactive)
REMARK    1  A    between atoms: C_2  and  C_3 
ROOT
HETATM    1 BR   LIG     1      18.248  39.043  21.872  1.00  0.00    -0.096 Br
HETATM    2  C   LIG     1      17.239  38.012  23.170  1.00  0.00     0.096 C 
ENDROOT
BRANCH   2   3
HETATM    3  C   LIG     1      16.193  37.138  22.486  1.00  0.00     0.096 C 
HETATM    4 BR   LIG     1      16.843  35.325  22.246  1.00  0.00    -0.096 Br
ENDBRANCH   2   3
TORSDOF 1
ENDMDL
MODEL 11
REMARK VINA RESULT:      -2.5      4.328      5.365
REMARK  1 active torsions:
REMARK  status: ('A' for Active; 'I' for Inactive)
REMARK    1  A    between atoms: C_2  and  C_3 
ROOT
HETATM    1 BR   LIG     1      19.324  38.745  20.014  1.00  0.00    -0.096 Br
HETATM    2  C   LIG     1      18.397  37.052  20.215  1.00  0.00     0.096 C 
ENDROOT
BRANCH   2   3
HETATM    3  C   LIG     1      17.431  37.090  21.394  1.00  0.00     0.096 C 
HETATM    4 BR   LIG     1      16.929  35.298  21.947  1.00  0.00    -0.096 Br
ENDBRANCH   2   3
TORSDOF 1
ENDMDL
MODEL 12
REMARK VINA RESULT:      -2.5      3.238      3.396
REMARK  1 active torsions:
REMARK  status: ('A' for Active; 'I' for Inactive)
REMARK    1  A    between atoms: C_2  and  C_3 
ROOT
HETATM    1 BR   LIG     1      16.856  36.078  21.897  1.00  0.00    -0.096 Br
HETATM    2  C   LIG     1      16.719  37.472  23.241  1.00  0.00     0.096 C 
ENDROOT
BRANCH   2   3
HETATM    3  C   LIG     1      16.812  38.857  22.609  1.00  0.00     0.096 C 
HETATM    4 BR   LIG     1      18.398  39.016  21.502  1.00  0.00    -0.096 Br
ENDBRANCH   2   3
TORSDOF 1
ENDMDL
MODEL 13
REMARK VINA RESULT:      -2.5      9.903     10.185
REMARK  1 active torsions:
REMARK  status: ('A' for Active; 'I' for Inactive)
REMARK    1  A    between atoms: C_2  and  C_3 
ROOT
HETATM    1 BR   LIG     1      14.156  30.846  15.737  1.00  0.00    -0.096 Br
HETATM    2  C   LIG     1      13.731  32.026  17.218  1.00  0.00     0.096 C 
ENDROOT
BRANCH   2   3
HETATM    3  C   LIG     1      14.994  32.477  17.943  1.00  0.00     0.096 C 
HETATM    4 BR   LIG     1      15.056  31.772  19.750  1.00  0.00    -0.096 Br
ENDBRANCH   2   3
TORSDOF 1
ENDMDL
MODEL 14
REMARK VINA RESULT:      -2.5      9.927      9.993
REMARK  1 active torsions:
REMARK  status: ('A' for Active; 'I' for Inactive)
REMARK    1  A    between atoms: C_2  and  C_3 
ROOT
HETATM    1 BR   LIG     1      15.125  31.893  19.719  1.00  0.00    -0.096 Br
HETATM    2  C   LIG     1      14.957  32.513  17.888  1.00  0.00     0.096 C 
ENDROOT
BRANCH   2   3
HETATM    3  C   LIG     1      13.750  31.881  17.202  1.00  0.00     0.096 C 
HETATM    4 BR   LIG     1      14.278  30.925  15.597  1.00  0.00    -0.096 Br
ENDBRANCH   2   3
TORSDOF 1
ENDMDL
MODEL 15
REMARK VINA RESULT:      -2.5      3.103      3.735
REMARK  1 active torsions:
REMARK  status: ('A' for Active; 'I' for Inactive)
REMARK    1  A    between atoms: C_2  and  C_3 
ROOT
HETATM    1 BR   LIG     1      15.248  35.625  21.300  1.00  0.00    -0.096 Br
HETATM    2  C   LIG     1      16.708  36.432  22.292  1.00  0.00     0.096 C 
ENDROOT
BRANCH   2   3
HETATM    3  C   LIG     1      16.228  37.633  23.099  1.00  0.00     0.096 C 
HETATM    4 BR   LIG     1      17.173  37.766  24.789  1.00  0.00    -0.096 Br
ENDBRANCH   2   3
TORSDOF 1
ENDMDL
MODEL 16
REMARK VINA RESULT:      -2.4     11.797     12.005
REMARK  1 active torsions:
REMARK  status: ('A' for Active; 'I' for Inactive)
REMARK    1  A    between atoms: C_2  and  C_3 
ROOT
HETATM    1 BR   LIG     1      15.073  30.227  14.035  1.00  0.00    -0.096 Br
HETATM    2  C   LIG     1      15.806  31.857  14.793  1.00  0.00     0.096 C 
ENDROOT
BRANCH   2   3
HETATM    3  C   LIG     1      15.121  32.207  16.110  1.00  0.00     0.096 C 
HETATM    4 BR   LIG     1      13.577  31.073  16.422  1.00  0.00    -0.096 Br
ENDBRANCH   2   3
TORSDOF 1
ENDMDL
MODEL 17
REMARK VINA RESULT:      -2.4     11.898     12.056
REMARK  1 active torsions:
REMARK  status: ('A' for Active; 'I' for Inactive)
REMARK    1  A    between atoms: C_2  and  C_3 
ROOT
HETATM    1 BR   LIG     1      13.463  30.991  16.374  1.00  0.00    -0.096 Br
HETATM    2  C   LIG     1      15.033  32.094  16.084  1.00  0.00     0.096 C 
ENDROOT
BRANCH   2   3
HETATM    3  C   LIG     1      15.700  31.763  14.753  1.00  0.00     0.096 C 
HETATM    4 BR   LIG     1      15.055  30.075  14.046  1.00  0.00    -0.096 Br
ENDBRANCH   2   3
TORSDOF 1
ENDMDL
MODEL 18
REMARK VINA RESULT:      -2.4     10.558     10.743
REMARK  1 active torsions:
REMARK  status: ('A' for Active; 'I' for Inactive)
REMARK    1  A    between atoms: C_2  and  C_3 
ROOT
HETATM    1 BR   LIG     1      13.119  30.795  16.122  1.00  0.00    -0.096 Br
HETATM    2  C   LIG     1      14.053  31.814  17.484  1.00  0.00     0.096 C 
ENDROOT
BRANCH   2   3
HETATM    3  C   LIG     1      14.753  33.027  16.880  1.00  0.00     0.096 C 
HETATM    4 BR   LIG     1      16.023  32.496  15.513  1.00  0.00    -0.096 Br
ENDBRANCH   2   3
TORSDOF 1
ENDMDL
MODEL 19
REMARK VINA RESULT:      -2.4     12.828     12.996
REMARK  1 active torsions:
REMARK  status: ('A' for Active; 'I' for Inactive)
REMARK    1  A    between atoms: C_2  and  C_3 
ROOT
HETATM    1 BR   LIG     1      15.939  31.985  14.805  1.00  0.00    -0.096 Br
HETATM    2  C   LIG     1      15.297  30.576  13.635  1.00  0.00     0.096 C 
ENDROOT
BRANCH   2   3
HETATM    3  C   LIG     1      14.230  29.732  14.324  1.00  0.00     0.096 C 
HETATM    4 BR   LIG     1      13.481  30.661  15.854  1.00  0.00    -0.096 Br
ENDBRANCH   2   3
TORSDOF 1
ENDMDL
MODEL 20
REMARK VINA RESULT:      -2.4     12.988     13.039
REMARK  1 active torsions:
REMARK  status: ('A' for Active; 'I' for Inactive)
REMARK    1  A    between atoms: C_2  and  C_3 
ROOT
HETATM    1 BR   LIG     1      13.159  30.709  15.998  1.00  0.00    -0.096 Br
HETATM    2  C   LIG     1      13.606  29.619  14.456  1.00  0.00     0.096 C 
ENDROOT
BRANCH   2   3
HETATM    3  C   LIG     1      15.061  29.817  14.045  1.00  0.00     0.096 C 
HETATM    4 BR   LIG     1      15.727  31.542  14.635  1.00  0.00    -0.096 Br
ENDBRANCH   2   3
TORSDOF 1
ENDMDL
