MODEL 1
REMARK VINA RESULT:      -5.0      0.000      0.000
REMARK  0 active torsions:
REMARK  status: ('A' for Active; 'I' for Inactive)
ROOT
HETATM    1  C   LIG     1      17.974  34.854  26.218  1.00  0.00     0.044 C 
HETATM    2  C   LIG     1      17.266  35.915  25.372  1.00  0.00     0.244 C 
HETATM    3  N   LIG     1      17.375  35.573  23.945  1.00  0.00     0.091 N 
HETATM    4  C   LIG     1      16.713  36.590  23.116  1.00  0.00     0.305 C 
HETATM    5  C   LIG     1      17.301  37.990  23.389  1.00  0.00     0.244 C 
HETATM    6  C   LIG     1      16.593  39.052  22.543  1.00  0.00     0.044 C 
HETATM    7  N   LIG     1      17.191  38.332  24.816  1.00  0.00     0.091 N 
HETATM    8  C   LIG     1      17.854  37.315  25.644  1.00  0.00     0.305 C 
HETATM    9  H   LIG     1      18.387  35.537  23.673  1.00  0.00     0.316 HD
HETATM   10  H   LIG     1      16.180  38.369  25.088  1.00  0.00     0.316 HD
ENDROOT
TORSDOF 0
ENDMDL
MODEL 2
REMARK VINA RESULT:      -4.9      1.057      3.383
REMARK  0 active torsions:
REMARK  status: ('A' for Active; 'I' for Inactive)
ROOT
HETATM    1  C   LIG     1      16.720  38.926  22.514  1.00  0.00     0.044 C 
HETATM    2  C   LIG     1      17.420  37.842  23.339  1.00  0.00     0.244 C 
HETATM    3  N   LIG     1      16.662  36.583  23.257  1.00  0.00     0.091 N 
HETATM    4  C   LIG     1      17.313  35.534  24.055  1.00  0.00     0.305 C 
HETATM    5  C   LIG     1      17.474  35.980  25.523  1.00  0.00     0.244 C 
HETATM    6  C   LIG     1      18.174  34.897  26.347  1.00  0.00     0.044 C 
HETATM    7  N   LIG     1      18.232  37.240  25.604  1.00  0.00     0.091 N 
HETATM    8  C   LIG     1      17.581  38.288  24.807  1.00  0.00     0.305 C 
HETATM    9  H   LIG     1      15.697  36.733  23.637  1.00  0.00     0.316 HD
HETATM   10  H   LIG     1      19.197  37.089  25.224  1.00  0.00     0.316 HD
ENDROOT
TORSDOF 0
ENDMDL
MODEL 3
REMARK VINA RESULT:      -4.5      3.127      4.830
REMARK  0 active torsions:
REMARK  status: ('A' for Active; 'I' for Inactive)
ROOT
HETATM    1  C   LIG     1      20.327  38.811  19.402  1.00  0.00     0.044 C 
HETATM    2  C   LIG     1      18.993  38.695  20.146  1.00  0.00     0.244 C 
HETATM    3  N   LIG     1      19.090  39.361  21.455  1.00  0.00     0.091 N 
HETATM    4  C   LIG     1      17.822  39.248  22.189  1.00  0.00     0.305 C 
HETATM    5  C   LIG     1      17.414  37.769  22.357  1.00  0.00     0.244 C 
HETATM    6  C   LIG     1      16.081  37.654  23.100  1.00  0.00     0.044 C 
HETATM    7  N   LIG     1      17.318  37.104  21.047  1.00  0.00     0.091 N 
HETATM    8  C   LIG     1      18.586  37.217  20.314  1.00  0.00     0.305 C 
HETATM    9  H   LIG     1      19.841  38.901  22.024  1.00  0.00     0.316 HD
HETATM   10  H   LIG     1      16.567  37.564  20.479  1.00  0.00     0.316 HD
ENDROOT
TORSDOF 0
ENDMDL
MODEL 4
REMARK VINA RESULT:      -4.4      6.667      8.056
REMARK  0 active torsions:
REMARK  status: ('A' for Active; 'I' for Inactive)
ROOT
HETATM    1  C   LIG     1      15.870  34.163  20.780  1.00  0.00     0.044 C 
HETATM    2  C   LIG     1      15.640  33.180  19.629  1.00  0.00     0.244 C 
HETATM    3  N   LIG     1      15.243  33.913  18.416  1.00  0.00     0.091 N 
HETATM    4  C   LIG     1      15.003  32.983  17.304  1.00  0.00     0.305 C 
HETATM    5  C   LIG     1      13.936  31.936  17.683  1.00  0.00     0.244 C 
HETATM    6  C   LIG     1      13.706  30.953  16.532  1.00  0.00     0.044 C 
HETATM    7  N   LIG     1      14.333  31.202  18.896  1.00  0.00     0.091 N 
HETATM    8  C   LIG     1      14.572  32.133  20.008  1.00  0.00     0.305 C 
HETATM    9  H   LIG     1      14.354  34.437  18.603  1.00  0.00     0.316 HD
HETATM   10  H   LIG     1      15.221  30.678  18.710  1.00  0.00     0.316 HD
ENDROOT
TORSDOF 0
ENDMDL
MODEL 5
REMARK VINA RESULT:      -4.4      3.322      4.516
REMARK  0 active torsions:
REMARK  status: ('A' for Active; 'I' for Inactive)
ROOT
HETATM    1  C   LIG     1      15.984  36.460  22.171  1.00  0.00     0.044 C 
HETATM    2  C   LIG     1      17.359  36.941  21.701  1.00  0.00     0.244 C 
HETATM    3  N   LIG     1      17.412  38.412  21.730  1.00  0.00     0.091 N 
HETATM    4  C   LIG     1      18.722  38.892  21.268  1.00  0.00     0.305 C 
HETATM    5  C   LIG     1      19.034  38.361  19.853  1.00  0.00     0.244 C 
HETATM    6  C   LIG     1      20.410  38.842  19.383  1.00  0.00     0.044 C 
HETATM    7  N   LIG     1      18.981  36.891  19.824  1.00  0.00     0.091 N 
HETATM    8  C   LIG     1      17.671  36.411  20.286  1.00  0.00     0.305 C 
HETATM    9  H   LIG     1      16.677  38.798  21.091  1.00  0.00     0.316 HD
HETATM   10  H   LIG     1      19.716  36.504  20.463  1.00  0.00     0.316 HD
ENDROOT
TORSDOF 0
ENDMDL
MODEL 6
REMARK VINA RESULT:      -4.3      1.685      2.540
REMARK  0 active torsions:
REMARK  status: ('A' for Active; 'I' for Inactive)
ROOT
HETATM    1  C   LIG     1      17.501  37.802  25.741  1.00  0.00     0.044 C 
HETATM    2  C   LIG     1      16.906  37.230  24.452  1.00  0.00     0.244 C 
HETATM    3  N   LIG     1      17.325  35.829  24.285  1.00  0.00     0.091 N 
HETATM    4  C   LIG     1      16.774  35.268  23.044  1.00  0.00     0.305 C 
HETATM    5  C   LIG     1      17.195  36.113  21.824  1.00  0.00     0.244 C 
HETATM    6  C   LIG     1      16.600  35.541  20.534  1.00  0.00     0.044 C 
HETATM    7  N   LIG     1      16.776  37.514  21.991  1.00  0.00     0.091 N 
HETATM    8  C   LIG     1      17.328  38.075  23.232  1.00  0.00     0.305 C 
HETATM    9  H   LIG     1      18.370  35.784  24.230  1.00  0.00     0.316 HD
HETATM   10  H   LIG     1      15.730  37.559  22.046  1.00  0.00     0.316 HD
ENDROOT
TORSDOF 0
ENDMDL
MODEL 7
REMARK VINA RESULT:      -4.3      6.059      7.525
REMARK  0 active torsions:
REMARK  status: ('A' for Active; 'I' for Inactive)
ROOT
HETATM    1  C   LIG     1      14.000  31.720  16.736  1.00  0.00     0.044 C 
HETATM    2  C   LIG     1      14.926  32.516  17.660  1.00  0.00     0.244 C 
HETATM    3  N   LIG     1      14.569  32.264  19.066  1.00  0.00     0.091 N 
HETATM    4  C   LIG     1      15.439  33.031  19.967  1.00  0.00     0.305 C 
HETATM    5  C   LIG     1      15.368  34.539  19.647  1.00  0.00     0.244 C 
HETATM    6  C   LIG     1      16.294  35.335  20.571  1.00  0.00     0.044 C 
HETATM    7  N   LIG     1      15.725  34.791  18.242  1.00  0.00     0.091 N 
HETATM    8  C   LIG     1      14.854  34.023  17.341  1.00  0.00     0.305 C 
HETATM    9  H   LIG     1      13.578  32.564  19.231  1.00  0.00     0.316 HD
HETATM   10  H   LIG     1      16.715  34.491  18.076  1.00  0.00     0.316 HD
ENDROOT
TORSDOF 0
ENDMDL
MODEL 8
REMARK VINA RESULT:      -4.3      1.527      3.241
REMARK  0 active torsions:
REMARK  status: ('A' for Active; 'I' for Inactive)
ROOT
HETATM    1  C   LIG     1      16.505  35.507  20.564  1.00  0.00     0.044 C 
HETATM    2  C   LIG     1      17.168  35.934  21.876  1.00  0.00     0.244 C 
HETATM    3  N   LIG     1      16.711  35.066  22.974  1.00  0.00     0.091 N 
HETATM    4  C   LIG     1      17.327  35.471  24.244  1.00  0.00     0.305 C 
HETATM    5  C   LIG     1      17.023  36.951  24.556  1.00  0.00     0.244 C 
HETATM    6  C   LIG     1      17.686  37.379  25.868  1.00  0.00     0.044 C 
HETATM    7  N   LIG     1      17.480  37.819  23.458  1.00  0.00     0.091 N 
HETATM    8  C   LIG     1      16.863  37.414  22.188  1.00  0.00     0.305 C 
HETATM    9  H   LIG     1      15.671  35.149  23.072  1.00  0.00     0.316 HD
HETATM   10  H   LIG     1      18.520  37.737  23.360  1.00  0.00     0.316 HD
ENDROOT
TORSDOF 0
ENDMDL
MODEL 9
REMARK VINA RESULT:      -4.2      2.627      4.059
REMARK  0 active torsions:
REMARK  status: ('A' for Active; 'I' for Inactive)
ROOT
HETATM    1  C   LIG     1      18.721  37.319  18.990  1.00  0.00     0.044 C 
HETATM    2  C   LIG     1      18.494  37.237  20.502  1.00  0.00     0.244 C 
HETATM    3  N   LIG     1      17.323  36.393  20.788  1.00  0.00     0.091 N 
HETATM    4  C   LIG     1      17.081  36.314  22.235  1.00  0.00     0.305 C 
HETATM    5  C   LIG     1      16.900  37.722  22.839  1.00  0.00     0.244 C 
HETATM    6  C   LIG     1      16.673  37.640  24.351  1.00  0.00     0.044 C 
HETATM    7  N   LIG     1      18.071  38.566  22.554  1.00  0.00     0.091 N 
HETATM    8  C   LIG     1      18.312  38.645  21.106  1.00  0.00     0.305 C 
HETATM    9  H   LIG     1      16.475  36.811  20.336  1.00  0.00     0.316 HD
HETATM   10  H   LIG     1      18.919  38.148  23.006  1.00  0.00     0.316 HD
ENDROOT
TORSDOF 0
ENDMDL
MODEL 10
REMARK VINA RESULT:      -4.0      2.702      3.711
REMARK  0 active torsions:
REMARK  status: ('A' for Active; 'I' for Inactive)
ROOT
HETATM    1  C   LIG     1      15.763  34.460  21.223  1.00  0.00     0.044 C 
HETATM    2  C   LIG     1      16.783  35.545  21.575  1.00  0.00     0.244 C 
HETATM    3  N   LIG     1      16.149  36.574  22.416  1.00  0.00     0.091 N 
HETATM    4  C   LIG     1      17.111  37.633  22.752  1.00  0.00     0.305 C 
HETATM    5  C   LIG     1      17.706  38.262  21.475  1.00  0.00     0.244 C 
HETATM    6  C   LIG     1      18.726  39.347  21.828  1.00  0.00     0.044 C 
HETATM    7  N   LIG     1      18.340  37.233  20.635  1.00  0.00     0.091 N 
HETATM    8  C   LIG     1      17.377  36.175  20.298  1.00  0.00     0.305 C 
HETATM    9  H   LIG     1      15.353  37.009  21.891  1.00  0.00     0.316 HD
HETATM   10  H   LIG     1      19.136  36.798  21.160  1.00  0.00     0.316 HD
ENDROOT
TORSDOF 0
ENDMDL
MODEL 11
REMARK VINA RESULT:      -4.0      2.912      3.581
REMARK  0 active torsions:
REMARK  status: ('A' for Active; 'I' for Inactive)
ROOT
HETATM    1  C   LIG     1      17.078  37.733  24.159  1.00  0.00     0.044 C 
HETATM    2  C   LIG     1      17.373  38.187  22.727  1.00  0.00     0.244 C 
HETATM    3  N   LIG     1      17.592  37.014  21.865  1.00  0.00     0.091 N 
HETATM    4  C   LIG     1      17.891  37.431  20.489  1.00  0.00     0.305 C 
HETATM    5  C   LIG     1      19.114  38.370  20.452  1.00  0.00     0.244 C 
HETATM    6  C   LIG     1      19.409  38.824  19.020  1.00  0.00     0.044 C 
HETATM    7  N   LIG     1      18.895  39.544  21.314  1.00  0.00     0.091 N 
HETATM    8  C   LIG     1      18.596  39.126  22.691  1.00  0.00     0.305 C 
HETATM    9  H   LIG     1      18.408  36.465  22.226  1.00  0.00     0.316 HD
HETATM   10  H   LIG     1      18.079  40.092  20.952  1.00  0.00     0.316 HD
ENDROOT
TORSDOF 0
ENDMDL
MODEL 12
REMARK VINA RESULT:      -4.0      3.073      4.089
REMARK  0 active torsions:
REMARK  status: ('A' for Active; 'I' for Inactive)
ROOT
HETATM    1  C   LIG     1      18.549  39.454  21.670  1.00  0.00     0.044 C 
HETATM    2  C   LIG     1      17.959  38.058  21.886  1.00  0.00     0.244 C 
HETATM    3  N   LIG     1      18.038  37.282  20.638  1.00  0.00     0.091 N 
HETATM    4  C   LIG     1      17.463  35.942  20.823  1.00  0.00     0.305 C 
HETATM    5  C   LIG     1      16.005  36.034  21.318  1.00  0.00     0.244 C 
HETATM    6  C   LIG     1      15.415  34.638  21.534  1.00  0.00     0.044 C 
HETATM    7  N   LIG     1      15.925  36.810  22.566  1.00  0.00     0.091 N 
HETATM    8  C   LIG     1      16.500  38.149  22.380  1.00  0.00     0.305 C 
HETATM    9  H   LIG     1      17.493  37.772  19.889  1.00  0.00     0.316 HD
HETATM   10  H   LIG     1      16.470  36.320  23.315  1.00  0.00     0.316 HD
ENDROOT
TORSDOF 0
ENDMDL
MODEL 13
REMARK VINA RESULT:      -3.9      9.437     10.842
REMARK  0 active torsions:
REMARK  status: ('A' for Active; 'I' for Inactive)
ROOT
HETATM    1  C   LIG     1      17.820  33.199  14.765  1.00  0.00     0.044 C 
HETATM    2  C   LIG     1      16.353  32.815  14.982  1.00  0.00     0.244 C 
HETATM    3  N   LIG     1      16.025  32.881  16.416  1.00  0.00     0.091 N 
HETATM    4  C   LIG     1      14.624  32.502  16.644  1.00  0.00     0.305 C 
HETATM    5  C   LIG     1      14.337  31.094  16.082  1.00  0.00     0.244 C 
HETATM    6  C   LIG     1      12.870  30.711  16.299  1.00  0.00     0.044 C 
HETATM    7  N   LIG     1      14.665  31.028  14.649  1.00  0.00     0.091 N 
HETATM    8  C   LIG     1      16.066  31.407  14.421  1.00  0.00     0.305 C 
HETATM    9  H   LIG     1      16.636  32.212  16.943  1.00  0.00     0.316 HD
HETATM   10  H   LIG     1      14.054  31.697  14.122  1.00  0.00     0.316 HD
ENDROOT
TORSDOF 0
ENDMDL
MODEL 14
REMARK VINA RESULT:      -3.9      9.348     10.509
REMARK  0 active torsions:
REMARK  status: ('A' for Active; 'I' for Inactive)
ROOT
HETATM    1  C   LIG     1      13.141  30.677  16.422  1.00  0.00     0.044 C 
HETATM    2  C   LIG     1      14.141  31.626  15.757  1.00  0.00     0.244 C 
HETATM    3  N   LIG     1      14.948  30.892  14.768  1.00  0.00     0.091 N 
HETATM    4  C   LIG     1      15.924  31.785  14.129  1.00  0.00     0.305 C 
HETATM    5  C   LIG     1      16.829  32.455  15.184  1.00  0.00     0.244 C 
HETATM    6  C   LIG     1      17.829  33.404  14.519  1.00  0.00     0.044 C 
HETATM    7  N   LIG     1      16.022  33.190  16.172  1.00  0.00     0.091 N 
HETATM    8  C   LIG     1      15.047  32.296  16.811  1.00  0.00     0.305 C 
HETATM    9  H   LIG     1      15.473  30.124  15.251  1.00  0.00     0.316 HD
HETATM   10  H   LIG     1      15.497  33.958  15.689  1.00  0.00     0.316 HD
ENDROOT
TORSDOF 0
ENDMDL
MODEL 15
REMARK VINA RESULT:      -3.8      9.385     10.726
REMARK  0 active torsions:
REMARK  status: ('A' for Active; 'I' for Inactive)
ROOT
HETATM    1  C   LIG     1      14.699  29.267  14.146  1.00  0.00     0.044 C 
HETATM    2  C   LIG     1      14.615  30.702  14.673  1.00  0.00     0.244 C 
HETATM    3  N   LIG     1      15.965  31.283  14.762  1.00  0.00     0.091 N 
HETATM    4  C   LIG     1      15.905  32.656  15.280  1.00  0.00     0.305 C 
HETATM    5  C   LIG     1      15.202  32.696  16.653  1.00  0.00     0.244 C 
HETATM    6  C   LIG     1      15.118  34.131  17.180  1.00  0.00     0.044 C 
HETATM    7  N   LIG     1      13.852  32.115  16.564  1.00  0.00     0.091 N 
HETATM    8  C   LIG     1      13.913  30.741  16.046  1.00  0.00     0.305 C 
HETATM    9  H   LIG     1      16.547  30.709  15.418  1.00  0.00     0.316 HD
HETATM   10  H   LIG     1      13.270  32.688  15.907  1.00  0.00     0.316 HD
ENDROOT
TORSDOF 0
ENDMDL
MODEL 16
REMARK VINA RESULT:      -3.8      2.756      3.989
REMARK  0 active torsions:
REMARK  status: ('A' for Active; 'I' for Inactive)
ROOT
HETATM    1  C   LIG     1      15.323  33.351  20.275  1.00  0.00     0.044 C 
HETATM    2  C   LIG     1      15.493  34.429  21.350  1.00  0.00     0.244 C 
HETATM    3  N   LIG     1      14.630  35.582  21.044  1.00  0.00     0.091 N 
HETATM    4  C   LIG     1      14.791  36.632  22.058  1.00  0.00     0.305 C 
HETATM    5  C   LIG     1      16.266  37.069  22.169  1.00  0.00     0.244 C 
HETATM    6  C   LIG     1      16.436  38.146  23.243  1.00  0.00     0.044 C 
HETATM    7  N   LIG     1      17.129  35.916  22.474  1.00  0.00     0.091 N 
HETATM    8  C   LIG     1      16.968  34.866  21.459  1.00  0.00     0.305 C 
HETATM    9  H   LIG     1      14.900  35.980  20.113  1.00  0.00     0.316 HD
HETATM   10  H   LIG     1      16.859  35.518  23.405  1.00  0.00     0.316 HD
ENDROOT
TORSDOF 0
ENDMDL
MODEL 17
REMARK VINA RESULT:      -3.7      9.320     10.754
REMARK  0 active torsions:
REMARK  status: ('A' for Active; 'I' for Inactive)
ROOT
HETATM    1  C   LIG     1      15.170  33.500  17.917  1.00  0.00     0.044 C 
HETATM    2  C   LIG     1      14.523  32.678  16.799  1.00  0.00     0.244 C 
HETATM    3  N   LIG     1      13.767  31.554  17.376  1.00  0.00     0.091 N 
HETATM    4  C   LIG     1      13.151  30.746  16.315  1.00  0.00     0.305 C 
HETATM    5  C   LIG     1      14.217  30.235  15.324  1.00  0.00     0.244 C 
HETATM    6  C   LIG     1      13.570  29.413  14.206  1.00  0.00     0.044 C 
HETATM    7  N   LIG     1      14.972  31.358  14.747  1.00  0.00     0.091 N 
HETATM    8  C   LIG     1      15.589  32.166  15.808  1.00  0.00     0.305 C 
HETATM    9  H   LIG     1      14.419  30.940  17.920  1.00  0.00     0.316 HD
HETATM   10  H   LIG     1      14.320  31.972  14.203  1.00  0.00     0.316 HD
ENDROOT
TORSDOF 0
ENDMDL
MODEL 18
REMARK VINA RESULT:      -3.6      9.085     10.467
REMARK  0 active torsions:
REMARK  status: ('A' for Active; 'I' for Inactive)
ROOT
HETATM    1  C   LIG     1      15.263  30.232  13.543  1.00  0.00     0.044 C 
HETATM    2  C   LIG     1      15.482  31.005  14.846  1.00  0.00     0.244 C 
HETATM    3  N   LIG     1      14.199  31.177  15.548  1.00  0.00     0.091 N 
HETATM    4  C   LIG     1      14.388  31.929  16.795  1.00  0.00     0.305 C 
HETATM    5  C   LIG     1      15.046  33.297  16.518  1.00  0.00     0.244 C 
HETATM    6  C   LIG     1      15.265  34.070  17.822  1.00  0.00     0.044 C 
HETATM    7  N   LIG     1      16.329  33.125  15.817  1.00  0.00     0.091 N 
HETATM    8  C   LIG     1      16.139  32.372  14.569  1.00  0.00     0.305 C 
HETATM    9  H   LIG     1      13.538  31.714  14.937  1.00  0.00     0.316 HD
HETATM   10  H   LIG     1      16.989  32.587  16.428  1.00  0.00     0.316 HD
ENDROOT
TORSDOF 0
ENDMDL
MODEL 19
REMARK VINA RESULT:      -3.5     11.034     12.421
REMARK  0 active torsions:
REMARK  status: ('A' for Active; 'I' for Inactive)
ROOT
HETATM    1  C   LIG     1      15.414  28.117  13.217  1.00  0.00     0.044 C 
HETATM    2  C   LIG     1      14.688  29.324  13.818  1.00  0.00     0.244 C 
HETATM    3  N   LIG     1      15.567  30.009  14.779  1.00  0.00     0.091 N 
HETATM    4  C   LIG     1      14.882  31.163  15.377  1.00  0.00     0.305 C 
HETATM    5  C   LIG     1      13.565  30.730  16.054  1.00  0.00     0.244 C 
HETATM    6  C   LIG     1      12.839  31.937  16.655  1.00  0.00     0.044 C 
HETATM    7  N   LIG     1      12.686  30.045  15.092  1.00  0.00     0.091 N 
HETATM    8  C   LIG     1      13.372  28.891  14.495  1.00  0.00     0.305 C 
HETATM    9  H   LIG     1      15.824  29.346  15.548  1.00  0.00     0.316 HD
HETATM   10  H   LIG     1      12.428  30.708  14.323  1.00  0.00     0.316 HD
ENDROOT
TORSDOF 0
ENDMDL
MODEL 20
REMARK VINA RESULT:      -3.4     12.104     12.651
REMARK  0 active torsions:
REMARK  status: ('A' for Active; 'I' for Inactive)
ROOT
HETATM    1  C   LIG     1      26.544  37.939  18.153  1.00  0.00     0.044 C 
HETATM    2  C   LIG     1      27.863  38.351  18.812  1.00  0.00     0.244 C 
HETATM    3  N   LIG     1      28.176  37.436  19.922  1.00  0.00     0.091 N 
HETATM    4  C   LIG     1      29.433  37.825  20.575  1.00  0.00     0.305 C 
HETATM    5  C   LIG     1      29.365  39.283  21.073  1.00  0.00     0.244 C 
HETATM    6  C   LIG     1      30.684  39.695  21.732  1.00  0.00     0.044 C 
HETATM    7  N   LIG     1      29.052  40.199  19.964  1.00  0.00     0.091 N 
HETATM    8  C   LIG     1      27.795  39.809  19.311  1.00  0.00     0.305 C 
HETATM    9  H   LIG     1      27.409  37.479  20.634  1.00  0.00     0.316 HD
HETATM   10  H   LIG     1      29.820  40.156  19.251  1.00  0.00     0.316 HD
ENDROOT
TORSDOF 0
ENDMDL
