MODEL 1
REMARK VINA RESULT:      -4.8      0.000      0.000
REMARK  0 active torsions:
REMARK  status: ('A' for Active; 'I' for Inactive)
ROOT
ATOM      1  O   GLY A   1      17.861  34.793  26.128  1.00  0.00    -0.272 OA
ATOM      2  C   GLY A   1      17.568  35.710  25.315  1.00  0.00     0.235 C 
ATOM      3  CA  GLY A   1      17.744  37.144  25.714  1.00  0.00     0.225 C 
ATOM      4  N   GLY A   1      16.854  38.013  24.945  1.00  0.00    -0.351 N 
ATOM      5  H   GLY A   1      16.594  38.943  25.344  1.00  0.00     0.163 HD
ATOM      6  C   GLY A   2      16.456  37.692  23.607  1.00  0.00     0.235 C 
ATOM      7  CA  GLY A   2      16.877  36.397  22.981  1.00  0.00     0.225 C 
ATOM      8  N   GLY A   2      17.109  35.375  24.000  1.00  0.00    -0.351 N 
ATOM      9  O   GLY A   2      15.779  38.520  22.940  1.00  0.00    -0.272 OA
ATOM     10  H   GLY A   2      17.042  34.369  23.725  1.00  0.00     0.163 HD
ENDROOT
TORSDOF 0
ENDMDL
MODEL 2
REMARK VINA RESULT:      -4.8      0.047      3.645
REMARK  0 active torsions:
REMARK  status: ('A' for Active; 'I' for Inactive)
ROOT
ATOM      1  O   GLY A   1      15.734  38.550  22.996  1.00  0.00    -0.272 OA
ATOM      2  C   GLY A   1      16.428  37.719  23.640  1.00  0.00     0.235 C 
ATOM      3  CA  GLY A   1      16.860  36.443  22.984  1.00  0.00     0.225 C 
ATOM      4  N   GLY A   1      17.116  35.404  23.980  1.00  0.00    -0.351 N 
ATOM      5  H   GLY A   1      17.060  34.403  23.685  1.00  0.00     0.163 HD
ATOM      6  C   GLY A   2      17.582  35.718  25.297  1.00  0.00     0.235 C 
ATOM      7  CA  GLY A   2      17.743  37.147  25.724  1.00  0.00     0.225 C 
ATOM      8  N   GLY A   2      16.835  38.018  24.981  1.00  0.00    -0.351 N 
ATOM      9  O   GLY A   2      17.896  34.789  26.089  1.00  0.00    -0.272 OA
ATOM     10  H   GLY A   2      16.565  38.936  25.401  1.00  0.00     0.163 HD
ENDROOT
TORSDOF 0
ENDMDL
MODEL 3
REMARK VINA RESULT:      -4.8      4.020      4.674
REMARK  0 active torsions:
REMARK  status: ('A' for Active; 'I' for Inactive)
ROOT
ATOM      1  O   GLY A   1      16.555  37.349  22.187  1.00  0.00    -0.272 OA
ATOM      2  C   GLY A   1      17.597  37.755  21.605  1.00  0.00     0.235 C 
ATOM      3  CA  GLY A   1      18.380  38.892  22.188  1.00  0.00     0.225 C 
ATOM      4  N   GLY A   1      19.149  39.581  21.153  1.00  0.00    -0.351 N 
ATOM      5  H   GLY A   1      19.434  40.573  21.318  1.00  0.00     0.163 HD
ATOM      6  C   GLY A   2      19.646  38.895  19.999  1.00  0.00     0.235 C 
ATOM      7  CA  GLY A   2      19.315  37.450  19.775  1.00  0.00     0.225 C 
ATOM      8  N   GLY A   2      18.049  37.099  20.415  1.00  0.00    -0.351 N 
ATOM      9  O   GLY A   2      20.398  39.499  19.187  1.00  0.00    -0.272 OA
ATOM     10  H   GLY A   2      17.517  36.276  20.054  1.00  0.00     0.163 HD
ENDROOT
TORSDOF 0
ENDMDL
MODEL 4
REMARK VINA RESULT:      -4.6      1.286      1.989
REMARK  0 active torsions:
REMARK  status: ('A' for Active; 'I' for Inactive)
ROOT
ATOM      1  O   GLY A   1      18.659  34.750  26.470  1.00  0.00    -0.272 OA
ATOM      2  C   GLY A   1      18.042  35.660  25.854  1.00  0.00     0.235 C 
ATOM      3  CA  GLY A   1      17.175  35.310  24.682  1.00  0.00     0.225 C 
ATOM      4  N   GLY A   1      17.031  36.452  23.781  1.00  0.00    -0.351 N 
ATOM      5  H   GLY A   1      16.786  36.273  22.781  1.00  0.00     0.163 HD
ATOM      6  C   GLY A   2      17.068  37.801  24.258  1.00  0.00     0.235 C 
ATOM      7  CA  GLY A   2      17.344  38.086  25.704  1.00  0.00     0.225 C 
ATOM      8  N   GLY A   2      18.138  37.017  26.304  1.00  0.00    -0.351 N 
ATOM      9  O   GLY A   2      16.829  38.753  23.466  1.00  0.00    -0.272 OA
ATOM     10  H   GLY A   2      18.706  37.231  27.154  1.00  0.00     0.163 HD
ENDROOT
TORSDOF 0
ENDMDL
MODEL 5
REMARK VINA RESULT:      -4.6      4.069      5.400
REMARK  0 active torsions:
REMARK  status: ('A' for Active; 'I' for Inactive)
ROOT
ATOM      1  O   GLY A   1      20.264  39.429  18.935  1.00  0.00    -0.272 OA
ATOM      2  C   GLY A   1      19.571  38.861  19.821  1.00  0.00     0.235 C 
ATOM      3  CA  GLY A   1      19.281  37.394  19.713  1.00  0.00     0.225 C 
ATOM      4  N   GLY A   1      18.057  37.051  20.435  1.00  0.00    -0.351 N 
ATOM      5  H   GLY A   1      17.537  36.187  20.157  1.00  0.00     0.163 HD
ATOM      6  C   GLY A   2      17.635  37.774  21.596  1.00  0.00     0.235 C 
ATOM      7  CA  GLY A   2      18.404  38.974  22.062  1.00  0.00     0.225 C 
ATOM      8  N   GLY A   2      19.102  39.611  20.947  1.00  0.00    -0.351 N 
ATOM      9  O   GLY A   2      16.635  37.377  22.253  1.00  0.00    -0.272 OA
ATOM     10  H   GLY A   2      19.359  40.621  21.029  1.00  0.00     0.163 HD
ENDROOT
TORSDOF 0
ENDMDL
MODEL 6
REMARK VINA RESULT:      -4.6      1.271      3.304
REMARK  0 active torsions:
REMARK  status: ('A' for Active; 'I' for Inactive)
ROOT
ATOM      1  O   GLY A   1      16.811  38.640  23.406  1.00  0.00    -0.272 OA
ATOM      2  C   GLY A   1      17.066  37.717  24.225  1.00  0.00     0.235 C 
ATOM      3  CA  GLY A   1      17.349  38.049  25.659  1.00  0.00     0.225 C 
ATOM      4  N   GLY A   1      18.159  37.006  26.285  1.00  0.00    -0.351 N 
ATOM      5  H   GLY A   1      18.732  37.253  27.124  1.00  0.00     0.163 HD
ATOM      6  C   GLY A   2      18.075  35.636  25.878  1.00  0.00     0.235 C 
ATOM      7  CA  GLY A   2      17.203  35.241  24.724  1.00  0.00     0.225 C 
ATOM      8  N   GLY A   2      17.040  36.352  23.789  1.00  0.00    -0.351 N 
ATOM      9  O   GLY A   2      18.707  34.752  26.517  1.00  0.00    -0.272 OA
ATOM     10  H   GLY A   2      16.790  36.140  22.797  1.00  0.00     0.163 HD
ENDROOT
TORSDOF 0
ENDMDL
MODEL 7
REMARK VINA RESULT:      -4.6      6.771      7.555
REMARK  0 active torsions:
REMARK  status: ('A' for Active; 'I' for Inactive)
ROOT
ATOM      1  O   GLY A   1      14.427  30.971  20.474  1.00  0.00    -0.272 OA
ATOM      2  C   GLY A   1      14.707  31.746  19.521  1.00  0.00     0.235 C 
ATOM      3  CA  GLY A   1      15.663  32.880  19.739  1.00  0.00     0.225 C 
ATOM      4  N   GLY A   1      15.423  33.956  18.780  1.00  0.00    -0.351 N 
ATOM      5  H   GLY A   1      15.734  34.924  19.025  1.00  0.00     0.163 HD
ATOM      6  C   GLY A   2      14.917  33.699  17.466  1.00  0.00     0.235 C 
ATOM      7  CA  GLY A   2      14.532  32.307  17.061  1.00  0.00     0.225 C 
ATOM      8  N   GLY A   2      14.142  31.514  18.225  1.00  0.00    -0.351 N 
ATOM      9  O   GLY A   2      14.829  34.641  16.632  1.00  0.00    -0.272 OA
ATOM     10  H   GLY A   2      13.518  30.688  18.083  1.00  0.00     0.163 HD
ENDROOT
TORSDOF 0
ENDMDL
MODEL 8
REMARK VINA RESULT:      -4.5      4.163      5.178
REMARK  0 active torsions:
REMARK  status: ('A' for Active; 'I' for Inactive)
ROOT
ATOM      1  O   GLY A   1      20.601  39.336  19.291  1.00  0.00    -0.272 OA
ATOM      2  C   GLY A   1      19.621  38.756  19.831  1.00  0.00     0.235 C 
ATOM      3  CA  GLY A   1      18.678  39.536  20.695  1.00  0.00     0.225 C 
ATOM      4  N   GLY A   1      18.007  38.662  21.656  1.00  0.00    -0.351 N 
ATOM      5  H   GLY A   1      17.624  39.082  22.533  1.00  0.00     0.163 HD
ATOM      6  C   GLY A   2      17.728  37.289  21.362  1.00  0.00     0.235 C 
ATOM      7  CA  GLY A   2      18.200  36.678  20.077  1.00  0.00     0.225 C 
ATOM      8  N   GLY A   2      19.390  37.364  19.579  1.00  0.00    -0.351 N 
ATOM      9  O   GLY A   2      17.050  36.600  22.171  1.00  0.00    -0.272 OA
ATOM     10  H   GLY A   2      20.030  36.852  18.932  1.00  0.00     0.163 HD
ENDROOT
TORSDOF 0
ENDMDL
MODEL 9
REMARK VINA RESULT:      -4.5      2.677      3.523
REMARK  0 active torsions:
REMARK  status: ('A' for Active; 'I' for Inactive)
ROOT
ATOM      1  O   GLY A   1      15.703  38.028  23.865  1.00  0.00    -0.272 OA
ATOM      2  C   GLY A   1      16.467  37.590  22.963  1.00  0.00     0.235 C 
ATOM      3  CA  GLY A   1      17.667  38.388  22.551  1.00  0.00     0.225 C 
ATOM      4  N   GLY A   1      18.069  38.058  21.185  1.00  0.00    -0.351 N 
ATOM      5  H   GLY A   1      18.622  38.760  20.643  1.00  0.00     0.163 HD
ATOM      6  C   GLY A   2      17.858  36.756  20.628  1.00  0.00     0.235 C 
ATOM      7  CA  GLY A   2      17.131  35.705  21.413  1.00  0.00     0.225 C 
ATOM      8  N   GLY A   2      16.208  36.313  22.369  1.00  0.00    -0.351 N 
ATOM      9  O   GLY A   2      18.317  36.480  19.488  1.00  0.00    -0.272 OA
ATOM     10  H   GLY A   2      15.395  35.750  22.707  1.00  0.00     0.163 HD
ENDROOT
TORSDOF 0
ENDMDL
MODEL 10
REMARK VINA RESULT:      -4.5      2.770      3.954
REMARK  0 active torsions:
REMARK  status: ('A' for Active; 'I' for Inactive)
ROOT
ATOM      1  O   GLY A   1      18.419  36.505  19.495  1.00  0.00    -0.272 OA
ATOM      2  C   GLY A   1      17.896  36.773  20.609  1.00  0.00     0.235 C 
ATOM      3  CA  GLY A   1      17.105  35.724  21.332  1.00  0.00     0.225 C 
ATOM      4  N   GLY A   1      16.136  36.336  22.240  1.00  0.00    -0.351 N 
ATOM      5  H   GLY A   1      15.294  35.783  22.520  1.00  0.00     0.163 HD
ATOM      6  C   GLY A   2      16.382  37.598  22.869  1.00  0.00     0.235 C 
ATOM      7  CA  GLY A   2      17.619  38.380  22.543  1.00  0.00     0.225 C 
ATOM      8  N   GLY A   2      18.097  38.063  21.199  1.00  0.00    -0.351 N 
ATOM      9  O   GLY A   2      15.572  38.038  23.730  1.00  0.00    -0.272 OA
ATOM     10  H   GLY A   2      18.694  38.761  20.701  1.00  0.00     0.163 HD
ENDROOT
TORSDOF 0
ENDMDL
MODEL 11
REMARK VINA RESULT:      -4.4      2.140      2.716
REMARK  0 active torsions:
REMARK  status: ('A' for Active; 'I' for Inactive)
ROOT
ATOM      1  O   GLY A   1      17.096  38.689  25.705  1.00  0.00    -0.272 OA
ATOM      2  C   GLY A   1      17.186  37.777  24.841  1.00  0.00     0.235 C 
ATOM      3  CA  GLY A   1      17.462  38.131  23.410  1.00  0.00     0.225 C 
ATOM      4  N   GLY A   1      16.966  37.091  22.511  1.00  0.00    -0.351 N 
ATOM      5  H   GLY A   1      16.751  37.347  21.520  1.00  0.00     0.163 HD
ATOM      6  C   GLY A   2      16.912  35.715  22.903  1.00  0.00     0.235 C 
ATOM      7  CA  GLY A   2      17.287  35.309  24.297  1.00  0.00     0.225 C 
ATOM      8  N   GLY A   2      17.066  36.406  25.237  1.00  0.00    -0.351 N 
ATOM      9  O   GLY A   2      16.584  34.836  22.061  1.00  0.00    -0.272 OA
ATOM     10  H   GLY A   2      16.925  36.179  26.247  1.00  0.00     0.163 HD
ENDROOT
TORSDOF 0
ENDMDL
MODEL 12
REMARK VINA RESULT:      -4.3      1.972      2.861
REMARK  0 active torsions:
REMARK  status: ('A' for Active; 'I' for Inactive)
ROOT
ATOM      1  O   GLY A   1      16.520  35.247  21.371  1.00  0.00    -0.272 OA
ATOM      2  C   GLY A   1      16.494  35.958  22.411  1.00  0.00     0.235 C 
ATOM      3  CA  GLY A   1      15.644  37.192  22.449  1.00  0.00     0.225 C 
ATOM      4  N   GLY A   1      16.160  38.152  23.423  1.00  0.00    -0.351 N 
ATOM      5  H   GLY A   1      15.919  39.162  23.307  1.00  0.00     0.163 HD
ATOM      6  C   GLY A   2      16.854  37.732  24.603  1.00  0.00     0.235 C 
ATOM      7  CA  GLY A   2      17.149  36.280  24.833  1.00  0.00     0.225 C 
ATOM      8  N   GLY A   2      17.244  35.560  23.565  1.00  0.00    -0.351 N 
ATOM      9  O   GLY A   2      17.185  38.583  25.472  1.00  0.00    -0.272 OA
ATOM     10  H   GLY A   2      17.790  34.669  23.534  1.00  0.00     0.163 HD
ENDROOT
TORSDOF 0
ENDMDL
MODEL 13
REMARK VINA RESULT:      -4.3      8.985     10.071
REMARK  0 active torsions:
REMARK  status: ('A' for Active; 'I' for Inactive)
ROOT
ATOM      1  O   GLY A   1      13.454  30.001  15.124  1.00  0.00    -0.272 OA
ATOM      2  C   GLY A   1      14.096  30.966  15.618  1.00  0.00     0.235 C 
ATOM      3  CA  GLY A   1      13.654  31.567  16.918  1.00  0.00     0.225 C 
ATOM      4  N   GLY A   1      14.103  32.953  17.032  1.00  0.00    -0.351 N 
ATOM      5  H   GLY A   1      13.584  33.597  17.671  1.00  0.00     0.163 HD
ATOM      6  C   GLY A   2      15.312  33.409  16.415  1.00  0.00     0.235 C 
ATOM      7  CA  GLY A   2      16.117  32.485  15.551  1.00  0.00     0.225 C 
ATOM      8  N   GLY A   2      15.269  31.454  14.956  1.00  0.00    -0.351 N 
ATOM      9  O   GLY A   2      15.720  34.582  16.628  1.00  0.00    -0.272 OA
ATOM     10  H   GLY A   2      15.589  30.988  14.078  1.00  0.00     0.163 HD
ENDROOT
TORSDOF 0
ENDMDL
MODEL 14
REMARK VINA RESULT:      -4.1      7.135      8.371
REMARK  0 active torsions:
REMARK  status: ('A' for Active; 'I' for Inactive)
ROOT
ATOM      1  O   GLY A   1      15.972  34.695  16.015  1.00  0.00    -0.272 OA
ATOM      2  C   GLY A   1      15.450  33.953  16.890  1.00  0.00     0.235 C 
ATOM      3  CA  GLY A   1      15.378  34.417  18.313  1.00  0.00     0.225 C 
ATOM      4  N   GLY A   1      15.305  33.281  19.229  1.00  0.00    -0.351 N 
ATOM      5  H   GLY A   1      15.616  33.414  20.218  1.00  0.00     0.163 HD
ATOM      6  C   GLY A   2      14.687  32.045  18.854  1.00  0.00     0.235 C 
ATOM      7  CA  GLY A   2      14.165  31.851  17.461  1.00  0.00     0.225 C 
ATOM      8  N   GLY A   2      14.891  32.690  16.510  1.00  0.00    -0.351 N 
ATOM      9  O   GLY A   2      14.547  31.129  19.708  1.00  0.00    -0.272 OA
ATOM     10  H   GLY A   2      14.907  32.408  15.504  1.00  0.00     0.163 HD
ENDROOT
TORSDOF 0
ENDMDL
MODEL 15
REMARK VINA RESULT:      -4.1      2.905      3.624
REMARK  0 active torsions:
REMARK  status: ('A' for Active; 'I' for Inactive)
ROOT
ATOM      1  O   GLY A   1      16.787  35.172  22.843  1.00  0.00    -0.272 OA
ATOM      2  C   GLY A   1      17.081  36.255  22.269  1.00  0.00     0.235 C 
ATOM      3  CA  GLY A   1      17.504  36.245  20.831  1.00  0.00     0.225 C 
ATOM      4  N   GLY A   1      18.330  37.411  20.522  1.00  0.00    -0.351 N 
ATOM      5  H   GLY A   1      18.984  37.361  19.708  1.00  0.00     0.163 HD
ATOM      6  C   GLY A   2      18.160  38.659  21.203  1.00  0.00     0.235 C 
ATOM      7  CA  GLY A   2      17.175  38.782  22.327  1.00  0.00     0.225 C 
ATOM      8  N   GLY A   2      16.968  37.492  22.982  1.00  0.00    -0.351 N 
ATOM      9  O   GLY A   2      18.815  39.670  20.831  1.00  0.00    -0.272 OA
ATOM     10  H   GLY A   2      16.622  37.481  23.968  1.00  0.00     0.163 HD
ENDROOT
TORSDOF 0
ENDMDL
MODEL 16
REMARK VINA RESULT:      -4.1      6.894      7.900
REMARK  0 active torsions:
REMARK  status: ('A' for Active; 'I' for Inactive)
ROOT
ATOM      1  O   GLY A   1      16.202  33.830  20.454  1.00  0.00    -0.272 OA
ATOM      2  C   GLY A   1      15.453  33.247  19.625  1.00  0.00     0.235 C 
ATOM      3  CA  GLY A   1      14.610  32.090  20.068  1.00  0.00     0.225 C 
ATOM      4  N   GLY A   1      14.291  31.215  18.941  1.00  0.00    -0.351 N 
ATOM      5  H   GLY A   1      14.045  30.218  19.135  1.00  0.00     0.163 HD
ATOM      6  C   GLY A   2      14.160  31.719  17.607  1.00  0.00     0.235 C 
ATOM      7  CA  GLY A   2      14.434  33.163  17.312  1.00  0.00     0.225 C 
ATOM      8  N   GLY A   2      15.379  33.723  18.276  1.00  0.00    -0.351 N 
ATOM      9  O   GLY A   2      13.775  30.952  16.683  1.00  0.00    -0.272 OA
ATOM     10  H   GLY A   2      15.936  34.563  18.001  1.00  0.00     0.163 HD
ENDROOT
TORSDOF 0
ENDMDL
MODEL 17
REMARK VINA RESULT:      -4.1      5.689      6.991
REMARK  0 active torsions:
REMARK  status: ('A' for Active; 'I' for Inactive)
ROOT
ATOM      1  O   GLY A   1      14.932  32.673  16.812  1.00  0.00    -0.272 OA
ATOM      2  C   GLY A   1      15.110  33.041  18.004  1.00  0.00     0.235 C 
ATOM      3  CA  GLY A   1      15.042  32.033  19.112  1.00  0.00     0.225 C 
ATOM      4  N   GLY A   1      14.692  32.673  20.378  1.00  0.00    -0.351 N 
ATOM      5  H   GLY A   1      14.255  32.091  21.129  1.00  0.00     0.163 HD
ATOM      6  C   GLY A   2      15.063  34.024  20.671  1.00  0.00     0.235 C 
ATOM      7  CA  GLY A   2      15.758  34.860  19.638  1.00  0.00     0.225 C 
ATOM      8  N   GLY A   2      15.419  34.410  18.289  1.00  0.00    -0.351 N 
ATOM      9  O   GLY A   2      14.839  34.502  21.816  1.00  0.00    -0.272 OA
ATOM     10  H   GLY A   2      15.512  35.086  17.497  1.00  0.00     0.163 HD
ENDROOT
TORSDOF 0
ENDMDL
MODEL 18
REMARK VINA RESULT:      -4.0      8.968      9.932
REMARK  0 active torsions:
REMARK  status: ('A' for Active; 'I' for Inactive)
ROOT
ATOM      1  O   GLY A   1      16.966  33.768  15.662  1.00  0.00    -0.272 OA
ATOM      2  C   GLY A   1      15.918  33.103  15.880  1.00  0.00     0.235 C 
ATOM      3  CA  GLY A   1      14.865  33.651  16.795  1.00  0.00     0.225 C 
ATOM      4  N   GLY A   1      14.063  32.574  17.371  1.00  0.00    -0.351 N 
ATOM      5  H   GLY A   1      13.562  32.749  18.272  1.00  0.00     0.163 HD
ATOM      6  C   GLY A   2      13.824  31.350  16.668  1.00  0.00     0.235 C 
ATOM      7  CA  GLY A   2      14.470  31.101  15.338  1.00  0.00     0.225 C 
ATOM      8  N   GLY A   2      15.721  31.848  15.218  1.00  0.00    -0.351 N 
ATOM      9  O   GLY A   2      13.037  30.492  17.152  1.00  0.00    -0.272 OA
ATOM     10  H   GLY A   2      16.444  31.509  14.545  1.00  0.00     0.163 HD
ENDROOT
TORSDOF 0
ENDMDL
MODEL 19
REMARK VINA RESULT:      -3.9      9.124     10.250
REMARK  0 active torsions:
REMARK  status: ('A' for Active; 'I' for Inactive)
ROOT
ATOM      1  O   GLY A   1      15.435  33.238  18.260  1.00  0.00    -0.272 OA
ATOM      2  C   GLY A   1      15.219  32.670  17.155  1.00  0.00     0.235 C 
ATOM      3  CA  GLY A   1      13.916  31.966  16.922  1.00  0.00     0.225 C 
ATOM      4  N   GLY A   1      14.061  30.927  15.904  1.00  0.00    -0.351 N 
ATOM      5  H   GLY A   1      13.379  30.135  15.897  1.00  0.00     0.163 HD
ATOM      6  C   GLY A   2      15.006  31.042  14.835  1.00  0.00     0.235 C 
ATOM      7  CA  GLY A   2      15.948  32.208  14.778  1.00  0.00     0.225 C 
ATOM      8  N   GLY A   2      16.202  32.739  16.115  1.00  0.00    -0.351 N 
ATOM      9  O   GLY A   2      15.022  30.179  13.917  1.00  0.00    -0.272 OA
ATOM     10  H   GLY A   2      17.081  33.279  16.282  1.00  0.00     0.163 HD
ENDROOT
TORSDOF 0
ENDMDL
MODEL 20
REMARK VINA RESULT:      -3.9      9.961     11.027
REMARK  0 active torsions:
REMARK  status: ('A' for Active; 'I' for Inactive)
ROOT
ATOM      1  O   GLY A   1      15.248  30.801  13.513  1.00  0.00    -0.272 OA
ATOM      2  C   GLY A   1      15.943  31.778  13.903  1.00  0.00     0.235 C 
ATOM      3  CA  GLY A   1      16.112  32.032  15.370  1.00  0.00     0.225 C 
ATOM      4  N   GLY A   1      16.413  33.440  15.624  1.00  0.00    -0.351 N 
ATOM      5  H   GLY A   1      16.196  33.837  16.566  1.00  0.00     0.163 HD
ATOM      6  C   GLY A   2      17.128  34.242  14.678  1.00  0.00     0.235 C 
ATOM      7  CA  GLY A   2      17.518  33.676  13.345  1.00  0.00     0.225 C 
ATOM      8  N   GLY A   2      16.602  32.611  12.942  1.00  0.00    -0.351 N 
ATOM      9  O   GLY A   2      17.464  35.419  14.981  1.00  0.00    -0.272 OA
ATOM     10  H   GLY A   2      16.513  32.385  11.926  1.00  0.00     0.163 HD
ENDROOT
TORSDOF 0
ENDMDL
