MODEL 1
REMARK VINA RESULT:      -5.8      0.000      0.000
REMARK  0 active torsions:
REMARK  status: ('A' for Active; 'I' for Inactive)
ROOT
HETATM    1 BR   LIG     1      16.489  38.919  22.414  1.00  0.00    -0.051 Br
HETATM    2  C   LIG     1      17.046  37.616  23.695  1.00  0.00     0.011 A 
HETATM    3  C   LIG     1      16.907  36.253  23.413  1.00  0.00     0.019 A 
HETATM    4  C   LIG     1      17.317  35.298  24.349  1.00  0.00     0.008 A 
HETATM    5  C   LIG     1      17.857  35.702  25.581  1.00  0.00    -0.062 A 
HETATM    6  C   LIG     1      18.333  34.678  26.569  1.00  0.00     0.048 C 
HETATM    7  C   LIG     1      18.010  37.070  25.851  1.00  0.00     0.008 A 
HETATM    8  C   LIG     1      17.599  38.024  24.913  1.00  0.00     0.019 A 
ENDROOT
TORSDOF 0
ENDMDL
MODEL 2
REMARK VINA RESULT:      -5.7      0.600      1.810
REMARK  0 active torsions:
REMARK  status: ('A' for Active; 'I' for Inactive)
ROOT
HETATM    1 BR   LIG     1      17.479  38.990  21.954  1.00  0.00    -0.051 Br
HETATM    2  C   LIG     1      17.515  37.669  23.333  1.00  0.00     0.011 A 
HETATM    3  C   LIG     1      17.986  37.998  24.607  1.00  0.00     0.019 A 
HETATM    4  C   LIG     1      18.010  37.032  25.619  1.00  0.00     0.008 A 
HETATM    5  C   LIG     1      17.575  35.724  25.356  1.00  0.00    -0.062 A 
HETATM    6  C   LIG     1      17.564  34.698  26.451  1.00  0.00     0.048 C 
HETATM    7  C   LIG     1      17.086  35.403  24.081  1.00  0.00     0.008 A 
HETATM    8  C   LIG     1      17.063  36.371  23.071  1.00  0.00     0.019 A 
ENDROOT
TORSDOF 0
ENDMDL
MODEL 3
REMARK VINA RESULT:      -5.6      1.432      1.739
REMARK  0 active torsions:
REMARK  status: ('A' for Active; 'I' for Inactive)
ROOT
HETATM    1 BR   LIG     1      16.140  35.904  21.148  1.00  0.00    -0.051 Br
HETATM    2  C   LIG     1      16.817  36.064  22.927  1.00  0.00     0.011 A 
HETATM    3  C   LIG     1      17.034  34.919  23.700  1.00  0.00     0.019 A 
HETATM    4  C   LIG     1      17.533  35.035  25.001  1.00  0.00     0.008 A 
HETATM    5  C   LIG     1      17.804  36.300  25.543  1.00  0.00    -0.062 A 
HETATM    6  C   LIG     1      18.376  36.423  26.926  1.00  0.00     0.048 C 
HETATM    7  C   LIG     1      17.602  37.445  24.757  1.00  0.00     0.008 A 
HETATM    8  C   LIG     1      17.103  37.327  23.456  1.00  0.00     0.019 A 
ENDROOT
TORSDOF 0
ENDMDL
MODEL 4
REMARK VINA RESULT:      -5.5      3.804      5.396
REMARK  0 active torsions:
REMARK  status: ('A' for Active; 'I' for Inactive)
ROOT
HETATM    1 BR   LIG     1      15.999  36.611  22.550  1.00  0.00    -0.051 Br
HETATM    2  C   LIG     1      17.397  37.337  21.470  1.00  0.00     0.011 A 
HETATM    3  C   LIG     1      17.830  38.651  21.675  1.00  0.00     0.019 A 
HETATM    4  C   LIG     1      18.856  39.183  20.887  1.00  0.00     0.008 A 
HETATM    5  C   LIG     1      19.446  38.407  19.878  1.00  0.00    -0.062 A 
HETATM    6  C   LIG     1      20.574  38.963  19.059  1.00  0.00     0.048 C 
HETATM    7  C   LIG     1      19.021  37.082  19.689  1.00  0.00     0.008 A 
HETATM    8  C   LIG     1      17.995  36.553  20.478  1.00  0.00     0.019 A 
ENDROOT
TORSDOF 0
ENDMDL
MODEL 5
REMARK VINA RESULT:      -5.4      2.329      3.985
REMARK  0 active torsions:
REMARK  status: ('A' for Active; 'I' for Inactive)
ROOT
HETATM    1 BR   LIG     1      17.516  34.804  26.307  1.00  0.00    -0.051 Br
HETATM    2  C   LIG     1      17.486  36.104  24.907  1.00  0.00     0.011 A 
HETATM    3  C   LIG     1      17.896  37.416  25.160  1.00  0.00     0.019 A 
HETATM    4  C   LIG     1      17.877  38.368  24.135  1.00  0.00     0.008 A 
HETATM    5  C   LIG     1      17.433  38.015  22.852  1.00  0.00    -0.062 A 
HETATM    6  C   LIG     1      17.449  39.025  21.742  1.00  0.00     0.048 C 
HETATM    7  C   LIG     1      17.039  36.692  22.598  1.00  0.00     0.008 A 
HETATM    8  C   LIG     1      17.059  35.742  23.625  1.00  0.00     0.019 A 
ENDROOT
TORSDOF 0
ENDMDL
MODEL 6
REMARK VINA RESULT:      -5.4      3.483      4.436
REMARK  0 active torsions:
REMARK  status: ('A' for Active; 'I' for Inactive)
ROOT
HETATM    1 BR   LIG     1      20.330  38.777  19.279  1.00  0.00    -0.051 Br
HETATM    2  C   LIG     1      18.917  38.394  20.505  1.00  0.00     0.011 A 
HETATM    3  C   LIG     1      18.497  39.367  21.417  1.00  0.00     0.019 A 
HETATM    4  C   LIG     1      17.460  39.089  22.314  1.00  0.00     0.008 A 
HETATM    5  C   LIG     1      16.845  37.828  22.312  1.00  0.00    -0.062 A 
HETATM    6  C   LIG     1      15.707  37.541  23.247  1.00  0.00     0.048 C 
HETATM    7  C   LIG     1      17.258  36.860  21.383  1.00  0.00     0.008 A 
HETATM    8  C   LIG     1      18.295  37.141  20.487  1.00  0.00     0.019 A 
ENDROOT
TORSDOF 0
ENDMDL
MODEL 7
REMARK VINA RESULT:      -5.3      2.216      3.821
REMARK  0 active torsions:
REMARK  status: ('A' for Active; 'I' for Inactive)
ROOT
HETATM    1 BR   LIG     1      17.935  37.050  26.125  1.00  0.00    -0.051 Br
HETATM    2  C   LIG     1      17.398  36.581  24.353  1.00  0.00     0.011 A 
HETATM    3  C   LIG     1      17.195  37.579  23.396  1.00  0.00     0.019 A 
HETATM    4  C   LIG     1      16.804  37.237  22.097  1.00  0.00     0.008 A 
HETATM    5  C   LIG     1      16.601  35.892  21.752  1.00  0.00    -0.062 A 
HETATM    6  C   LIG     1      16.220  35.521  20.348  1.00  0.00     0.048 C 
HETATM    7  C   LIG     1      16.824  34.892  22.712  1.00  0.00     0.008 A 
HETATM    8  C   LIG     1      17.214  35.237  24.010  1.00  0.00     0.019 A 
ENDROOT
TORSDOF 0
ENDMDL
MODEL 8
REMARK VINA RESULT:      -5.3      1.986      2.877
REMARK  0 active torsions:
REMARK  status: ('A' for Active; 'I' for Inactive)
ROOT
HETATM    1 BR   LIG     1      16.040  34.822  20.628  1.00  0.00    -0.051 Br
HETATM    2  C   LIG     1      16.506  35.747  22.232  1.00  0.00     0.011 A 
HETATM    3  C   LIG     1      16.349  37.134  22.312  1.00  0.00     0.019 A 
HETATM    4  C   LIG     1      16.687  37.813  23.488  1.00  0.00     0.008 A 
HETATM    5  C   LIG     1      17.198  37.107  24.588  1.00  0.00    -0.062 A 
HETATM    6  C   LIG     1      17.524  37.829  25.863  1.00  0.00     0.048 C 
HETATM    7  C   LIG     1      17.337  35.713  24.510  1.00  0.00     0.008 A 
HETATM    8  C   LIG     1      16.998  35.037  23.333  1.00  0.00     0.019 A 
ENDROOT
TORSDOF 0
ENDMDL
MODEL 9
REMARK VINA RESULT:      -5.1      3.551      4.611
REMARK  0 active torsions:
REMARK  status: ('A' for Active; 'I' for Inactive)
ROOT
HETATM    1 BR   LIG     1      15.371  34.384  21.258  1.00  0.00    -0.051 Br
HETATM    2  C   LIG     1      16.416  35.980  21.354  1.00  0.00     0.011 A 
HETATM    3  C   LIG     1      16.116  36.958  22.307  1.00  0.00     0.019 A 
HETATM    4  C   LIG     1      16.882  38.126  22.380  1.00  0.00     0.008 A 
HETATM    5  C   LIG     1      17.947  38.329  21.488  1.00  0.00    -0.062 A 
HETATM    6  C   LIG     1      18.794  39.564  21.591  1.00  0.00     0.048 C 
HETATM    7  C   LIG     1      18.255  37.336  20.544  1.00  0.00     0.008 A 
HETATM    8  C   LIG     1      17.487  36.169  20.474  1.00  0.00     0.019 A 
ENDROOT
TORSDOF 0
ENDMDL
MODEL 10
REMARK VINA RESULT:      -4.9      9.615     11.037
REMARK  0 active torsions:
REMARK  status: ('A' for Active; 'I' for Inactive)
ROOT
HETATM    1 BR   LIG     1      15.248  34.080  17.481  1.00  0.00    -0.051 Br
HETATM    2  C   LIG     1      14.687  32.536  16.506  1.00  0.00     0.011 A 
HETATM    3  C   LIG     1      13.494  31.890  16.843  1.00  0.00     0.019 A 
HETATM    4  C   LIG     1      13.080  30.761  16.128  1.00  0.00     0.008 A 
HETATM    5  C   LIG     1      13.867  30.263  15.078  1.00  0.00    -0.062 A 
HETATM    6  C   LIG     1      13.405  29.076  14.285  1.00  0.00     0.048 C 
HETATM    7  C   LIG     1      15.055  30.926  14.731  1.00  0.00     0.008 A 
HETATM    8  C   LIG     1      15.466  32.055  15.448  1.00  0.00     0.019 A 
ENDROOT
TORSDOF 0
ENDMDL
MODEL 11
REMARK VINA RESULT:      -4.8      9.860     11.038
REMARK  0 active torsions:
REMARK  status: ('A' for Active; 'I' for Inactive)
ROOT
HETATM    1 BR   LIG     1      17.905  33.486  14.161  1.00  0.00    -0.051 Br
HETATM    2  C   LIG     1      16.383  32.536  14.816  1.00  0.00     0.011 A 
HETATM    3  C   LIG     1      15.790  32.910  16.026  1.00  0.00     0.019 A 
HETATM    4  C   LIG     1      14.674  32.217  16.506  1.00  0.00     0.008 A 
HETATM    5  C   LIG     1      14.152  31.133  15.783  1.00  0.00    -0.062 A 
HETATM    6  C   LIG     1      12.931  30.414  16.277  1.00  0.00     0.048 C 
HETATM    7  C   LIG     1      14.739  30.772  14.560  1.00  0.00     0.008 A 
HETATM    8  C   LIG     1      15.855  31.468  14.083  1.00  0.00     0.019 A 
ENDROOT
TORSDOF 0
ENDMDL
MODEL 12
REMARK VINA RESULT:      -4.7      9.638     11.003
REMARK  0 active torsions:
REMARK  status: ('A' for Active; 'I' for Inactive)
ROOT
HETATM    1 BR   LIG     1      14.947  28.931  13.834  1.00  0.00    -0.051 Br
HETATM    2  C   LIG     1      14.972  30.537  14.867  1.00  0.00     0.011 A 
HETATM    3  C   LIG     1      14.017  30.743  15.867  1.00  0.00     0.019 A 
HETATM    4  C   LIG     1      14.037  31.917  16.626  1.00  0.00     0.008 A 
HETATM    5  C   LIG     1      15.006  32.901  16.380  1.00  0.00    -0.062 A 
HETATM    6  C   LIG     1      15.052  34.144  17.220  1.00  0.00     0.048 C 
HETATM    7  C   LIG     1      15.975  32.683  15.388  1.00  0.00     0.008 A 
HETATM    8  C   LIG     1      15.953  31.507  14.630  1.00  0.00     0.019 A 
ENDROOT
TORSDOF 0
ENDMDL
MODEL 13
REMARK VINA RESULT:      -4.6     10.397     11.728
REMARK  0 active torsions:
REMARK  status: ('A' for Active; 'I' for Inactive)
ROOT
HETATM    1 BR   LIG     1      17.417  33.863  14.833  1.00  0.00    -0.051 Br
HETATM    2  C   LIG     1      16.171  32.422  14.700  1.00  0.00     0.011 A 
HETATM    3  C   LIG     1      16.111  31.652  13.535  1.00  0.00     0.019 A 
HETATM    4  C   LIG     1      15.201  30.594  13.438  1.00  0.00     0.008 A 
HETATM    5  C   LIG     1      14.333  30.310  14.504  1.00  0.00    -0.062 A 
HETATM    6  C   LIG     1      13.383  29.151  14.416  1.00  0.00     0.048 C 
HETATM    7  C   LIG     1      14.409  31.074  15.679  1.00  0.00     0.008 A 
HETATM    8  C   LIG     1      15.321  32.131  15.773  1.00  0.00     0.019 A 
ENDROOT
TORSDOF 0
ENDMDL
MODEL 14
REMARK VINA RESULT:      -4.3     10.616     11.804
REMARK  0 active torsions:
REMARK  status: ('A' for Active; 'I' for Inactive)
ROOT
HETATM    1 BR   LIG     1      13.337  29.270  14.472  1.00  0.00    -0.051 Br
HETATM    2  C   LIG     1      14.624  30.680  14.546  1.00  0.00     0.011 A 
HETATM    3  C   LIG     1      14.770  31.435  15.713  1.00  0.00     0.019 A 
HETATM    4  C   LIG     1      15.715  32.465  15.769  1.00  0.00     0.008 A 
HETATM    5  C   LIG     1      16.511  32.755  14.650  1.00  0.00    -0.062 A 
HETATM    6  C   LIG     1      17.551  33.834  14.722  1.00  0.00     0.048 C 
HETATM    7  C   LIG     1      16.373  31.982  13.486  1.00  0.00     0.008 A 
HETATM    8  C   LIG     1      15.428  30.952  13.433  1.00  0.00     0.019 A 
ENDROOT
TORSDOF 0
ENDMDL
MODEL 15
REMARK VINA RESULT:      -4.2      9.917     11.197
REMARK  0 active torsions:
REMARK  status: ('A' for Active; 'I' for Inactive)
ROOT
HETATM    1 BR   LIG     1      13.405  30.959  16.455  1.00  0.00    -0.051 Br
HETATM    2  C   LIG     1      14.875  31.742  15.519  1.00  0.00     0.011 A 
HETATM    3  C   LIG     1      15.199  31.304  14.231  1.00  0.00     0.019 A 
HETATM    4  C   LIG     1      16.274  31.878  13.544  1.00  0.00     0.008 A 
HETATM    5  C   LIG     1      17.040  32.886  14.148  1.00  0.00    -0.062 A 
HETATM    6  C   LIG     1      18.169  33.530  13.396  1.00  0.00     0.048 C 
HETATM    7  C   LIG     1      16.700  33.335  15.434  1.00  0.00     0.008 A 
HETATM    8  C   LIG     1      15.625  32.759  16.119  1.00  0.00     0.019 A 
ENDROOT
TORSDOF 0
ENDMDL
MODEL 16
REMARK VINA RESULT:      -4.2      6.906      8.141
REMARK  0 active torsions:
REMARK  status: ('A' for Active; 'I' for Inactive)
ROOT
HETATM    1 BR   LIG     1      13.550  30.862  16.102  1.00  0.00    -0.051 Br
HETATM    2  C   LIG     1      14.299  31.910  17.512  1.00  0.00     0.011 A 
HETATM    3  C   LIG     1      14.412  31.376  18.799  1.00  0.00     0.019 A 
HETATM    4  C   LIG     1      14.963  32.142  19.832  1.00  0.00     0.008 A 
HETATM    5  C   LIG     1      15.392  33.455  19.585  1.00  0.00    -0.062 A 
HETATM    6  C   LIG     1      16.019  34.264  20.682  1.00  0.00     0.048 C 
HETATM    7  C   LIG     1      15.293  33.981  18.287  1.00  0.00     0.008 A 
HETATM    8  C   LIG     1      14.742  33.213  17.256  1.00  0.00     0.019 A 
ENDROOT
TORSDOF 0
ENDMDL
MODEL 17
REMARK VINA RESULT:      -4.2      6.001      7.592
REMARK  0 active torsions:
REMARK  status: ('A' for Active; 'I' for Inactive)
ROOT
HETATM    1 BR   LIG     1      16.175  34.986  21.651  1.00  0.00    -0.051 Br
HETATM    2  C   LIG     1      15.640  34.051  20.073  1.00  0.00     0.011 A 
HETATM    3  C   LIG     1      15.562  34.727  18.851  1.00  0.00     0.019 A 
HETATM    4  C   LIG     1      15.174  34.043  17.695  1.00  0.00     0.008 A 
HETATM    5  C   LIG     1      14.847  32.679  17.757  1.00  0.00    -0.062 A 
HETATM    6  C   LIG     1      14.468  31.936  16.509  1.00  0.00     0.048 C 
HETATM    7  C   LIG     1      14.945  32.001  18.982  1.00  0.00     0.008 A 
HETATM    8  C   LIG     1      15.333  32.688  20.137  1.00  0.00     0.019 A 
ENDROOT
TORSDOF 0
ENDMDL
MODEL 18
REMARK VINA RESULT:      -4.2     10.187     11.205
REMARK  0 active torsions:
REMARK  status: ('A' for Active; 'I' for Inactive)
ROOT
HETATM    1 BR   LIG     1      18.560  33.641  12.773  1.00  0.00    -0.051 Br
HETATM    2  C   LIG     1      17.160  32.858  13.811  1.00  0.00     0.011 A 
HETATM    3  C   LIG     1      16.425  31.785  13.300  1.00  0.00     0.019 A 
HETATM    4  C   LIG     1      15.402  31.209  14.060  1.00  0.00     0.008 A 
HETATM    5  C   LIG     1      15.099  31.714  15.334  1.00  0.00    -0.062 A 
HETATM    6  C   LIG     1      14.028  31.072  16.166  1.00  0.00     0.048 C 
HETATM    7  C   LIG     1      15.852  32.780  15.850  1.00  0.00     0.008 A 
HETATM    8  C   LIG     1      16.875  33.354  15.087  1.00  0.00     0.019 A 
ENDROOT
TORSDOF 0
ENDMDL
MODEL 19
REMARK VINA RESULT:      -3.8     16.720     17.941
REMARK  0 active torsions:
REMARK  status: ('A' for Active; 'I' for Inactive)
ROOT
HETATM    1 BR   LIG     1      22.926  23.154  37.879  1.00  0.00    -0.051 Br
HETATM    2  C   LIG     1      21.884  23.118  36.279  1.00  0.00     0.011 A 
HETATM    3  C   LIG     1      20.565  22.654  36.311  1.00  0.00     0.019 A 
HETATM    4  C   LIG     1      19.800  22.630  35.141  1.00  0.00     0.008 A 
HETATM    5  C   LIG     1      20.356  23.058  33.925  1.00  0.00    -0.062 A 
HETATM    6  C   LIG     1      19.523  23.069  32.676  1.00  0.00     0.048 C 
HETATM    7  C   LIG     1      21.674  23.539  33.900  1.00  0.00     0.008 A 
HETATM    8  C   LIG     1      22.437  23.562  35.073  1.00  0.00     0.019 A 
ENDROOT
TORSDOF 0
ENDMDL
MODEL 20
REMARK VINA RESULT:      -3.6     12.953     13.918
REMARK  0 active torsions:
REMARK  status: ('A' for Active; 'I' for Inactive)
ROOT
HETATM    1 BR   LIG     1      19.508  33.107  11.095  1.00  0.00    -0.051 Br
HETATM    2  C   LIG     1      20.941  34.288  11.542  1.00  0.00     0.011 A 
HETATM    3  C   LIG     1      21.517  34.240  12.815  1.00  0.00     0.019 A 
HETATM    4  C   LIG     1      22.568  35.103  13.142  1.00  0.00     0.008 A 
HETATM    5  C   LIG     1      23.041  36.030  12.200  1.00  0.00    -0.062 A 
HETATM    6  C   LIG     1      24.194  36.928  12.538  1.00  0.00     0.048 C 
HETATM    7  C   LIG     1      22.471  36.061  10.918  1.00  0.00     0.008 A 
HETATM    8  C   LIG     1      21.420  35.198  10.593  1.00  0.00     0.019 A 
ENDROOT
TORSDOF 0
ENDMDL
