REMARK  0 active torsions:
REMARK  status: ('A' for Active; 'I' for Inactive)
ROOT
HETATM    1  C   LIG     1      -2.264  -0.088   0.003  1.00  0.00     0.048 C 
HETATM    2  C   LIG     1      -0.765  -0.038   0.001  1.00  0.00    -0.062 A 
HETATM    3  C   LIG     1      -0.109   1.202  -0.040  1.00  0.00     0.008 A 
HETATM    4  C   LIG     1       1.288   1.261  -0.042  1.00  0.00     0.024 A 
HETATM    5  C   LIG     1       2.039   0.082  -0.003  1.00  0.00     0.034 A 
HETATM    6 CL   LIG     1       3.792   0.157  -0.006  1.00  0.00    -0.084 Cl
HETATM    7  C   LIG     1       1.392  -1.158   0.038  1.00  0.00     0.024 A 
HETATM    8  C   LIG     1      -0.006  -1.219   0.041  1.00  0.00     0.008 A 
ENDROOT
TORSDOF 0
