MODEL 1
REMARK VINA RESULT:      -6.2      0.000      0.000
REMARK  0 active torsions:
REMARK  status: ('A' for Active; 'I' for Inactive)
ROOT
HETATM    1  C   LIG     1      17.971  34.749  26.365  1.00  0.00     0.048 C 
HETATM    2  C   LIG     1      17.645  35.821  25.367  1.00  0.00    -0.062 A 
HETATM    3  C   LIG     1      17.189  35.491  24.081  1.00  0.00     0.007 A 
HETATM    4  C   LIG     1      16.888  36.501  23.161  1.00  0.00     0.007 A 
HETATM    5  C   LIG     1      17.027  37.851  23.519  1.00  0.00    -0.062 A 
HETATM    6  C   LIG     1      16.743  38.930  22.519  1.00  0.00     0.048 C 
HETATM    7  C   LIG     1      17.500  38.177  24.799  1.00  0.00     0.007 A 
HETATM    8  C   LIG     1      17.800  37.169  25.719  1.00  0.00     0.007 A 
ENDROOT
TORSDOF 0
ENDMDL
MODEL 2
REMARK VINA RESULT:      -6.2      0.030      1.714
REMARK  0 active torsions:
REMARK  status: ('A' for Active; 'I' for Inactive)
ROOT
HETATM    1  C   LIG     1      17.943  34.739  26.360  1.00  0.00     0.048 C 
HETATM    2  C   LIG     1      17.645  35.830  25.374  1.00  0.00    -0.062 A 
HETATM    3  C   LIG     1      17.815  37.179  25.722  1.00  0.00     0.007 A 
HETATM    4  C   LIG     1      17.533  38.186  24.793  1.00  0.00     0.007 A 
HETATM    5  C   LIG     1      17.090  37.856  23.503  1.00  0.00    -0.062 A 
HETATM    6  C   LIG     1      16.749  38.937  22.521  1.00  0.00     0.048 C 
HETATM    7  C   LIG     1      16.903  36.507  23.163  1.00  0.00     0.007 A 
HETATM    8  C   LIG     1      17.186  35.501  24.091  1.00  0.00     0.007 A 
ENDROOT
TORSDOF 0
ENDMDL
MODEL 3
REMARK VINA RESULT:      -6.2      0.132      3.786
REMARK  0 active torsions:
REMARK  status: ('A' for Active; 'I' for Inactive)
ROOT
HETATM    1  C   LIG     1      16.522  38.832  22.445  1.00  0.00     0.048 C 
HETATM    2  C   LIG     1      16.907  37.801  23.464  1.00  0.00    -0.062 A 
HETATM    3  C   LIG     1      17.352  38.183  24.740  1.00  0.00     0.007 A 
HETATM    4  C   LIG     1      17.707  37.211  25.681  1.00  0.00     0.007 A 
HETATM    5  C   LIG     1      17.611  35.847  25.363  1.00  0.00    -0.062 A 
HETATM    6  C   LIG     1      18.030  34.808  26.359  1.00  0.00     0.048 C 
HETATM    7  C   LIG     1      17.183  35.468  24.082  1.00  0.00     0.007 A 
HETATM    8  C   LIG     1      16.827  36.439  23.141  1.00  0.00     0.007 A 
ENDROOT
TORSDOF 0
ENDMDL
MODEL 4
REMARK VINA RESULT:      -6.0      3.037      4.242
REMARK  0 active torsions:
REMARK  status: ('A' for Active; 'I' for Inactive)
ROOT
HETATM    1  C   LIG     1      16.179  36.386  22.305  1.00  0.00     0.048 C 
HETATM    2  C   LIG     1      17.264  37.042  21.503  1.00  0.00    -0.062 A 
HETATM    3  C   LIG     1      17.893  36.358  20.450  1.00  0.00     0.007 A 
HETATM    4  C   LIG     1      18.903  36.983  19.710  1.00  0.00     0.007 A 
HETATM    5  C   LIG     1      19.287  38.300  20.005  1.00  0.00    -0.062 A 
HETATM    6  C   LIG     1      20.397  38.953  19.238  1.00  0.00     0.048 C 
HETATM    7  C   LIG     1      18.669  38.975  21.069  1.00  0.00     0.007 A 
HETATM    8  C   LIG     1      17.659  38.352  21.808  1.00  0.00     0.007 A 
ENDROOT
TORSDOF 0
ENDMDL
MODEL 5
REMARK VINA RESULT:      -6.0      3.022      4.873
REMARK  0 active torsions:
REMARK  status: ('A' for Active; 'I' for Inactive)
ROOT
HETATM    1  C   LIG     1      20.387  38.967  19.260  1.00  0.00     0.048 C 
HETATM    2  C   LIG     1      19.288  38.300  20.033  1.00  0.00    -0.062 A 
HETATM    3  C   LIG     1      18.897  36.984  19.738  1.00  0.00     0.007 A 
HETATM    4  C   LIG     1      17.871  36.375  20.467  1.00  0.00     0.007 A 
HETATM    5  C   LIG     1      17.233  37.067  21.508  1.00  0.00    -0.062 A 
HETATM    6  C   LIG     1      16.106  36.427  22.262  1.00  0.00     0.048 C 
HETATM    7  C   LIG     1      17.613  38.388  21.790  1.00  0.00     0.007 A 
HETATM    8  C   LIG     1      18.639  38.998  21.062  1.00  0.00     0.007 A 
ENDROOT
TORSDOF 0
ENDMDL
MODEL 6
REMARK VINA RESULT:      -6.0      3.043      5.163
REMARK  0 active torsions:
REMARK  status: ('A' for Active; 'I' for Inactive)
ROOT
HETATM    1  C   LIG     1      20.395  38.963  19.198  1.00  0.00     0.048 C 
HETATM    2  C   LIG     1      19.310  38.319  20.009  1.00  0.00    -0.062 A 
HETATM    3  C   LIG     1      18.693  39.012  21.063  1.00  0.00     0.007 A 
HETATM    4  C   LIG     1      17.683  38.399  21.812  1.00  0.00     0.007 A 
HETATM    5  C   LIG     1      17.268  37.093  21.508  1.00  0.00    -0.062 A 
HETATM    6  C   LIG     1      16.213  36.423  22.336  1.00  0.00     0.048 C 
HETATM    7  C   LIG     1      17.898  36.396  20.465  1.00  0.00     0.007 A 
HETATM    8  C   LIG     1      18.908  37.008  19.716  1.00  0.00     0.007 A 
ENDROOT
TORSDOF 0
ENDMDL
MODEL 7
REMARK VINA RESULT:      -6.0      3.036      4.549
REMARK  0 active torsions:
REMARK  status: ('A' for Active; 'I' for Inactive)
ROOT
HETATM    1  C   LIG     1      16.187  36.354  22.284  1.00  0.00     0.048 C 
HETATM    2  C   LIG     1      17.268  37.039  21.501  1.00  0.00    -0.062 A 
HETATM    3  C   LIG     1      17.652  38.355  21.806  1.00  0.00     0.007 A 
HETATM    4  C   LIG     1      18.662  38.982  21.069  1.00  0.00     0.007 A 
HETATM    5  C   LIG     1      19.308  38.298  20.027  1.00  0.00    -0.062 A 
HETATM    6  C   LIG     1      20.362  38.985  19.212  1.00  0.00     0.048 C 
HETATM    7  C   LIG     1      18.911  36.990  19.713  1.00  0.00     0.007 A 
HETATM    8  C   LIG     1      17.903  36.362  20.450  1.00  0.00     0.007 A 
ENDROOT
TORSDOF 0
ENDMDL
MODEL 8
REMARK VINA RESULT:      -5.9      1.022      1.633
REMARK  0 active torsions:
REMARK  status: ('A' for Active; 'I' for Inactive)
ROOT
HETATM    1  C   LIG     1      18.318  36.286  26.926  1.00  0.00     0.048 C 
HETATM    2  C   LIG     1      17.813  36.258  25.514  1.00  0.00    -0.062 A 
HETATM    3  C   LIG     1      17.482  35.043  24.892  1.00  0.00     0.007 A 
HETATM    4  C   LIG     1      17.012  35.032  23.575  1.00  0.00     0.007 A 
HETATM    5  C   LIG     1      16.856  36.234  22.868  1.00  0.00    -0.062 A 
HETATM    6  C   LIG     1      16.391  36.217  21.443  1.00  0.00     0.048 C 
HETATM    7  C   LIG     1      17.204  37.445  23.484  1.00  0.00     0.007 A 
HETATM    8  C   LIG     1      17.673  37.458  24.801  1.00  0.00     0.007 A 
ENDROOT
TORSDOF 0
ENDMDL
MODEL 9
REMARK VINA RESULT:      -5.7      0.600      3.397
REMARK  0 active torsions:
REMARK  status: ('A' for Active; 'I' for Inactive)
ROOT
HETATM    1  C   LIG     1      17.052  38.476  21.754  1.00  0.00     0.048 C 
HETATM    2  C   LIG     1      17.178  37.526  22.908  1.00  0.00    -0.062 A 
HETATM    3  C   LIG     1      17.058  36.140  22.716  1.00  0.00     0.007 A 
HETATM    4  C   LIG     1      17.178  35.267  23.801  1.00  0.00     0.007 A 
HETATM    5  C   LIG     1      17.433  35.765  25.088  1.00  0.00    -0.062 A 
HETATM    6  C   LIG     1      17.521  34.830  26.257  1.00  0.00     0.048 C 
HETATM    7  C   LIG     1      17.535  37.151  25.281  1.00  0.00     0.007 A 
HETATM    8  C   LIG     1      17.416  38.025  24.197  1.00  0.00     0.007 A 
ENDROOT
TORSDOF 0
ENDMDL
MODEL 10
REMARK VINA RESULT:      -5.6      1.237      3.425
REMARK  0 active torsions:
REMARK  status: ('A' for Active; 'I' for Inactive)
ROOT
HETATM    1  C   LIG     1      16.553  35.563  20.735  1.00  0.00     0.048 C 
HETATM    2  C   LIG     1      16.871  35.989  22.138  1.00  0.00    -0.062 A 
HETATM    3  C   LIG     1      17.031  37.347  22.457  1.00  0.00     0.007 A 
HETATM    4  C   LIG     1      17.327  37.731  23.769  1.00  0.00     0.007 A 
HETATM    5  C   LIG     1      17.454  36.765  24.779  1.00  0.00    -0.062 A 
HETATM    6  C   LIG     1      17.811  37.175  26.176  1.00  0.00     0.048 C 
HETATM    7  C   LIG     1      17.310  35.408  24.454  1.00  0.00     0.007 A 
HETATM    8  C   LIG     1      17.014  35.023  23.143  1.00  0.00     0.007 A 
ENDROOT
TORSDOF 0
ENDMDL
MODEL 11
REMARK VINA RESULT:      -5.5      2.858      4.749
REMARK  0 active torsions:
REMARK  status: ('A' for Active; 'I' for Inactive)
ROOT
HETATM    1  C   LIG     1      19.364  39.446  20.413  1.00  0.00     0.048 C 
HETATM    2  C   LIG     1      18.491  38.299  20.827  1.00  0.00    -0.062 A 
HETATM    3  C   LIG     1      17.655  38.402  21.951  1.00  0.00     0.007 A 
HETATM    4  C   LIG     1      16.845  37.325  22.325  1.00  0.00     0.007 A 
HETATM    5  C   LIG     1      16.851  36.138  21.575  1.00  0.00    -0.062 A 
HETATM    6  C   LIG     1      16.013  34.971  22.001  1.00  0.00     0.048 C 
HETATM    7  C   LIG     1      17.700  36.032  20.463  1.00  0.00     0.007 A 
HETATM    8  C   LIG     1      18.509  37.108  20.088  1.00  0.00     0.007 A 
ENDROOT
TORSDOF 0
ENDMDL
MODEL 12
REMARK VINA RESULT:      -5.2      9.541     10.966
REMARK  0 active torsions:
REMARK  status: ('A' for Active; 'I' for Inactive)
ROOT
HETATM    1  C   LIG     1      13.338  29.091  14.254  1.00  0.00     0.048 C 
HETATM    2  C   LIG     1      13.807  30.277  15.044  1.00  0.00    -0.062 A 
HETATM    3  C   LIG     1      15.016  30.918  14.728  1.00  0.00     0.007 A 
HETATM    4  C   LIG     1      15.442  32.022  15.473  1.00  0.00     0.007 A 
HETATM    5  C   LIG     1      14.659  32.507  16.533  1.00  0.00    -0.062 A 
HETATM    6  C   LIG     1      15.136  33.666  17.356  1.00  0.00     0.048 C 
HETATM    7  C   LIG     1      13.461  31.854  16.858  1.00  0.00     0.007 A 
HETATM    8  C   LIG     1      13.034  30.750  16.114  1.00  0.00     0.007 A 
ENDROOT
TORSDOF 0
ENDMDL
MODEL 13
REMARK VINA RESULT:      -5.2      9.463     11.000
REMARK  0 active torsions:
REMARK  status: ('A' for Active; 'I' for Inactive)
ROOT
HETATM    1  C   LIG     1      15.192  33.883  17.223  1.00  0.00     0.048 C 
HETATM    2  C   LIG     1      14.782  32.651  16.471  1.00  0.00    -0.062 A 
HETATM    3  C   LIG     1      13.620  31.947  16.825  1.00  0.00     0.007 A 
HETATM    4  C   LIG     1      13.249  30.800  16.115  1.00  0.00     0.007 A 
HETATM    5  C   LIG     1      14.027  30.352  15.036  1.00  0.00    -0.062 A 
HETATM    6  C   LIG     1      13.650  29.100  14.302  1.00  0.00     0.048 C 
HETATM    7  C   LIG     1      15.197  31.047  14.696  1.00  0.00     0.007 A 
HETATM    8  C   LIG     1      15.568  32.193  15.404  1.00  0.00     0.007 A 
ENDROOT
TORSDOF 0
ENDMDL
MODEL 14
REMARK VINA RESULT:      -5.2      9.370     10.800
REMARK  0 active torsions:
REMARK  status: ('A' for Active; 'I' for Inactive)
ROOT
HETATM    1  C   LIG     1      13.975  29.205  14.221  1.00  0.00     0.048 C 
HETATM    2  C   LIG     1      14.261  30.439  15.023  1.00  0.00    -0.062 A 
HETATM    3  C   LIG     1      13.412  30.827  16.072  1.00  0.00     0.007 A 
HETATM    4  C   LIG     1      13.690  31.980  16.813  1.00  0.00     0.007 A 
HETATM    5  C   LIG     1      14.826  32.752  16.523  1.00  0.00    -0.062 A 
HETATM    6  C   LIG     1      15.101  34.009  17.292  1.00  0.00     0.048 C 
HETATM    7  C   LIG     1      15.664  32.372  15.464  1.00  0.00     0.007 A 
HETATM    8  C   LIG     1      15.387  31.219  14.723  1.00  0.00     0.007 A 
ENDROOT
TORSDOF 0
ENDMDL
MODEL 15
REMARK VINA RESULT:      -4.9      3.035      3.890
REMARK  0 active torsions:
REMARK  status: ('A' for Active; 'I' for Inactive)
ROOT
HETATM    1  C   LIG     1      15.690  34.065  20.232  1.00  0.00     0.048 C 
HETATM    2  C   LIG     1      16.044  35.355  20.912  1.00  0.00    -0.062 A 
HETATM    3  C   LIG     1      15.115  36.011  21.736  1.00  0.00     0.007 A 
HETATM    4  C   LIG     1      15.459  37.212  22.365  1.00  0.00     0.007 A 
HETATM    5  C   LIG     1      16.736  37.765  22.188  1.00  0.00    -0.062 A 
HETATM    6  C   LIG     1      17.089  39.074  22.829  1.00  0.00     0.048 C 
HETATM    7  C   LIG     1      17.656  37.117  21.350  1.00  0.00     0.007 A 
HETATM    8  C   LIG     1      17.314  35.916  20.722  1.00  0.00     0.007 A 
ENDROOT
TORSDOF 0
ENDMDL
MODEL 16
REMARK VINA RESULT:      -4.9      9.500     10.917
REMARK  0 active torsions:
REMARK  status: ('A' for Active; 'I' for Inactive)
ROOT
HETATM    1  C   LIG     1      17.675  33.255  14.548  1.00  0.00     0.048 C 
HETATM    2  C   LIG     1      16.440  32.518  14.973  1.00  0.00    -0.062 A 
HETATM    3  C   LIG     1      15.928  31.466  14.197  1.00  0.00     0.007 A 
HETATM    4  C   LIG     1      14.776  30.787  14.606  1.00  0.00     0.007 A 
HETATM    5  C   LIG     1      14.129  31.143  15.800  1.00  0.00    -0.062 A 
HETATM    6  C   LIG     1      12.871  30.441  16.215  1.00  0.00     0.048 C 
HETATM    7  C   LIG     1      14.632  32.206  16.564  1.00  0.00     0.007 A 
HETATM    8  C   LIG     1      15.784  32.884  16.157  1.00  0.00     0.007 A 
ENDROOT
TORSDOF 0
ENDMDL
MODEL 17
REMARK VINA RESULT:      -4.9      9.506     10.896
REMARK  0 active torsions:
REMARK  status: ('A' for Active; 'I' for Inactive)
ROOT
HETATM    1  C   LIG     1      12.869  30.360  16.103  1.00  0.00     0.048 C 
HETATM    2  C   LIG     1      14.117  31.102  15.726  1.00  0.00    -0.062 A 
HETATM    3  C   LIG     1      14.630  32.113  16.555  1.00  0.00     0.007 A 
HETATM    4  C   LIG     1      15.795  32.797  16.191  1.00  0.00     0.007 A 
HETATM    5  C   LIG     1      16.467  32.471  15.003  1.00  0.00    -0.062 A 
HETATM    6  C   LIG     1      17.692  33.232  14.594  1.00  0.00     0.048 C 
HETATM    7  C   LIG     1      15.942  31.473  14.167  1.00  0.00     0.007 A 
HETATM    8  C   LIG     1      14.779  30.788  14.530  1.00  0.00     0.007 A 
ENDROOT
TORSDOF 0
ENDMDL
MODEL 18
REMARK VINA RESULT:      -4.6     10.829     12.264
REMARK  0 active torsions:
REMARK  status: ('A' for Active; 'I' for Inactive)
ROOT
HETATM    1  C   LIG     1      12.903  32.116  16.773  1.00  0.00     0.048 C 
HETATM    2  C   LIG     1      13.561  31.151  15.832  1.00  0.00    -0.062 A 
HETATM    3  C   LIG     1      12.840  30.078  15.283  1.00  0.00     0.007 A 
HETATM    4  C   LIG     1      13.466  29.186  14.406  1.00  0.00     0.007 A 
HETATM    5  C   LIG     1      14.814  29.362  14.059  1.00  0.00    -0.062 A 
HETATM    6  C   LIG     1      15.494  28.381  13.151  1.00  0.00     0.048 C 
HETATM    7  C   LIG     1      15.537  30.424  14.622  1.00  0.00     0.007 A 
HETATM    8  C   LIG     1      14.912  31.317  15.498  1.00  0.00     0.007 A 
ENDROOT
TORSDOF 0
ENDMDL
MODEL 19
REMARK VINA RESULT:      -4.3     16.322     16.763
REMARK  0 active torsions:
REMARK  status: ('A' for Active; 'I' for Inactive)
ROOT
HETATM    1  C   LIG     1       2.778  39.258  30.636  1.00  0.00     0.048 C 
HETATM    2  C   LIG     1       3.151  40.449  31.467  1.00  0.00    -0.062 A 
HETATM    3  C   LIG     1       3.070  41.748  30.938  1.00  0.00     0.007 A 
HETATM    4  C   LIG     1       3.420  42.850  31.724  1.00  0.00     0.007 A 
HETATM    5  C   LIG     1       3.844  42.670  33.050  1.00  0.00    -0.062 A 
HETATM    6  C   LIG     1       4.258  43.849  33.878  1.00  0.00     0.048 C 
HETATM    7  C   LIG     1       3.942  41.370  33.570  1.00  0.00     0.007 A 
HETATM    8  C   LIG     1       3.591  40.268  32.786  1.00  0.00     0.007 A 
ENDROOT
TORSDOF 0
ENDMDL
MODEL 20
REMARK VINA RESULT:      -4.3     16.571     17.300
REMARK  0 active torsions:
REMARK  status: ('A' for Active; 'I' for Inactive)
ROOT
HETATM    1  C   LIG     1       3.324  42.133  31.565  1.00  0.00     0.048 C 
HETATM    2  C   LIG     1       3.692  41.458  32.853  1.00  0.00    -0.062 A 
HETATM    3  C   LIG     1       4.100  42.210  33.968  1.00  0.00     0.007 A 
HETATM    4  C   LIG     1       4.440  41.567  35.163  1.00  0.00     0.007 A 
HETATM    5  C   LIG     1       4.365  40.169  35.262  1.00  0.00    -0.062 A 
HETATM    6  C   LIG     1       4.768  39.480  36.531  1.00  0.00     0.048 C 
HETATM    7  C   LIG     1       3.974  39.420  34.143  1.00  0.00     0.007 A 
HETATM    8  C   LIG     1       3.633  40.061  32.948  1.00  0.00     0.007 A 
ENDROOT
TORSDOF 0
ENDMDL
