REMARK  1 active torsions:
REMARK  status: ('A' for Active; 'I' for Inactive)
REMARK    1  A    between atoms: C_5  and  N_6 
ROOT
HETATM    1 CL   LIG     1      -3.600  -0.235   0.184  1.00  0.00    -0.084 Cl
HETATM    2  C   LIG     1      -1.852  -0.121   0.095  1.00  0.00     0.034 A 
HETATM    3  C   LIG     1      -1.094  -1.241  -0.263  1.00  0.00     0.026 A 
HETATM    4  C   LIG     1       0.300  -1.151  -0.334  1.00  0.00     0.030 A 
HETATM    5  C   LIG     1       0.944   0.061  -0.048  1.00  0.00     0.025 A 
HETATM    6  C   LIG     1       0.180   1.183   0.310  1.00  0.00     0.030 A 
HETATM    7  C   LIG     1      -1.213   1.091   0.381  1.00  0.00     0.026 A 
ENDROOT
BRANCH   5   8
HETATM    8  N   LIG     1       2.369   0.154  -0.121  1.00  0.00    -0.399 N 
HETATM    9  H   LIG     1       2.858   1.053   0.090  1.00  0.00     0.156 HD
HETATM   10  H   LIG     1       2.946  -0.675  -0.387  1.00  0.00     0.156 HD
ENDBRANCH   5   8
TORSDOF 1
