REMARK  0 active torsions:
REMARK  status: ('A' for Active; 'I' for Inactive)
ROOT
HETATM    1  O   LIG     1      -2.627   0.475  -0.005  1.00  0.00    -0.289 OA
HETATM    2  C   LIG     1      -1.388   0.251  -0.003  1.00  0.00     0.172 A 
HETATM    3  C   LIG     1      -0.885  -1.137  -0.024  1.00  0.00     0.058 A 
HETATM    4  C   LIG     1       0.431  -1.375  -0.022  1.00  0.00     0.058 A 
HETATM    5  C   LIG     1      -0.431   1.375   0.022  1.00  0.00     0.058 A 
HETATM    6  C   LIG     1       0.885   1.137   0.024  1.00  0.00     0.058 A 
HETATM    7  C   LIG     1       1.388  -0.251   0.003  1.00  0.00     0.172 A 
HETATM    8  O   LIG     1       2.627  -0.475   0.005  1.00  0.00    -0.289 OA
ENDROOT
TORSDOF 0
