MODEL 1
REMARK VINA RESULT:      -2.8      0.000      0.000
REMARK  1 active torsions:
REMARK  status: ('A' for Active; 'I' for Inactive)
REMARK    1  A    between atoms: C_1  and  O_2 
ROOT
HETATM    1  C   LIG     1      17.172  37.901  24.646  1.00  0.00     0.397 C 
HETATM    2  O   LIG     1      15.982  38.012  24.246  1.00  0.00    -0.276 OA
ENDROOT
BRANCH   1   3
HETATM    3  O   LIG     1      17.461  37.671  25.992  1.00  0.00    -0.333 OA
HETATM    4  C   LIG     1      18.354  36.647  26.419  1.00  0.00     0.212 C 
ENDBRANCH   1   3
TORSDOF 1
ENDMDL
MODEL 2
REMARK VINA RESULT:      -2.7      1.197      2.794
REMARK  1 active torsions:
REMARK  status: ('A' for Active; 'I' for Inactive)
REMARK    1  A    between atoms: C_1  and  O_2 
ROOT
HETATM    1  C   LIG     1      17.269  38.041  24.822  1.00  0.00     0.397 C 
HETATM    2  O   LIG     1      17.449  37.705  26.023  1.00  0.00    -0.276 OA
ENDROOT
BRANCH   1   3
HETATM    3  O   LIG     1      15.998  38.009  24.246  1.00  0.00    -0.333 OA
HETATM    4  C   LIG     1      15.791  37.755  22.861  1.00  0.00     0.212 C 
ENDBRANCH   1   3
TORSDOF 1
ENDMDL
MODEL 3
REMARK VINA RESULT:      -2.7      1.450      1.450
REMARK  1 active torsions:
REMARK  status: ('A' for Active; 'I' for Inactive)
REMARK    1  A    between atoms: C_1  and  O_2 
ROOT
HETATM    1  C   LIG     1      17.300  37.249  25.212  1.00  0.00     0.397 C 
HETATM    2  O   LIG     1      16.413  37.956  24.663  1.00  0.00    -0.276 OA
ENDROOT
BRANCH   1   3
HETATM    3  O   LIG     1      17.309  35.861  25.066  1.00  0.00    -0.333 OA
HETATM    4  C   LIG     1      17.846  34.991  26.056  1.00  0.00     0.212 C 
ENDBRANCH   1   3
TORSDOF 1
ENDMDL
MODEL 4
REMARK VINA RESULT:      -2.6      7.122      8.042
REMARK  1 active torsions:
REMARK  status: ('A' for Active; 'I' for Inactive)
REMARK    1  A    between atoms: C_1  and  O_2 
ROOT
HETATM    1  C   LIG     1      19.347  38.981  18.912  1.00  0.00     0.397 C 
HETATM    2  O   LIG     1      20.452  39.361  19.383  1.00  0.00    -0.276 OA
ENDROOT
BRANCH   1   3
HETATM    3  O   LIG     1      18.622  39.787  18.033  1.00  0.00    -0.333 OA
HETATM    4  C   LIG     1      18.728  39.666  16.619  1.00  0.00     0.212 C 
ENDBRANCH   1   3
TORSDOF 1
ENDMDL
MODEL 5
REMARK VINA RESULT:      -2.5      7.588      7.941
REMARK  1 active torsions:
REMARK  status: ('A' for Active; 'I' for Inactive)
REMARK    1  A    between atoms: C_1  and  O_2 
ROOT
HETATM    1  C   LIG     1      13.709  32.031  27.766  1.00  0.00     0.397 C 
HETATM    2  O   LIG     1      14.121  31.040  28.426  1.00  0.00    -0.276 OA
ENDROOT
BRANCH   1   3
HETATM    3  O   LIG     1      12.790  31.874  26.727  1.00  0.00    -0.333 OA
HETATM    4  C   LIG     1      12.519  30.611  26.129  1.00  0.00     0.212 C 
ENDBRANCH   1   3
TORSDOF 1
ENDMDL
MODEL 6
REMARK VINA RESULT:      -2.5      1.481      2.028
REMARK  1 active torsions:
REMARK  status: ('A' for Active; 'I' for Inactive)
REMARK    1  A    between atoms: C_1  and  O_2 
ROOT
HETATM    1  C   LIG     1      16.286  37.549  23.103  1.00  0.00     0.397 C 
HETATM    2  O   LIG     1      16.912  38.224  22.241  1.00  0.00    -0.276 OA
ENDROOT
BRANCH   1   3
HETATM    3  O   LIG     1      16.200  37.975  24.430  1.00  0.00    -0.333 OA
HETATM    4  C   LIG     1      17.324  37.989  25.302  1.00  0.00     0.212 C 
ENDBRANCH   1   3
TORSDOF 1
ENDMDL
MODEL 7
REMARK VINA RESULT:      -2.5      5.098      5.666
REMARK  1 active torsions:
REMARK  status: ('A' for Active; 'I' for Inactive)
REMARK    1  A    between atoms: C_1  and  O_2 
ROOT
HETATM    1  C   LIG     1      19.328  39.087  19.870  1.00  0.00     0.397 C 
HETATM    2  O   LIG     1      20.440  39.405  19.368  1.00  0.00    -0.276 OA
ENDROOT
BRANCH   1   3
HETATM    3  O   LIG     1      19.071  39.273  21.229  1.00  0.00    -0.333 OA
HETATM    4  C   LIG     1      17.854  38.860  21.841  1.00  0.00     0.212 C 
ENDBRANCH   1   3
TORSDOF 1
ENDMDL
MODEL 8
REMARK VINA RESULT:      -2.5      8.733      9.052
REMARK  1 active torsions:
REMARK  status: ('A' for Active; 'I' for Inactive)
REMARK    1  A    between atoms: C_1  and  O_2 
ROOT
HETATM    1  C   LIG     1      15.108  33.804  16.956  1.00  0.00     0.397 C 
HETATM    2  O   LIG     1      15.814  34.650  16.345  1.00  0.00    -0.276 OA
ENDROOT
BRANCH   1   3
HETATM    3  O   LIG     1      15.495  33.307  18.202  1.00  0.00    -0.333 OA
HETATM    4  C   LIG     1      14.879  32.170  18.797  1.00  0.00     0.212 C 
ENDBRANCH   1   3
TORSDOF 1
ENDMDL
MODEL 9
REMARK VINA RESULT:      -2.4      1.745      2.712
REMARK  1 active torsions:
REMARK  status: ('A' for Active; 'I' for Inactive)
REMARK    1  A    between atoms: C_1  and  O_2 
ROOT
HETATM    1  C   LIG     1      18.094  35.570  26.084  1.00  0.00     0.397 C 
HETATM    2  O   LIG     1      17.232  34.668  26.261  1.00  0.00    -0.276 OA
ENDROOT
BRANCH   1   3
HETATM    3  O   LIG     1      17.821  36.901  26.404  1.00  0.00    -0.333 OA
HETATM    4  C   LIG     1      17.365  37.843  25.440  1.00  0.00     0.212 C 
ENDBRANCH   1   3
TORSDOF 1
ENDMDL
MODEL 10
REMARK VINA RESULT:      -2.4      9.421      9.932
REMARK  1 active torsions:
REMARK  status: ('A' for Active; 'I' for Inactive)
REMARK    1  A    between atoms: C_1  and  O_2 
ROOT
HETATM    1  C   LIG     1      13.892  31.687  17.423  1.00  0.00     0.397 C 
HETATM    2  O   LIG     1      12.822  31.323  16.868  1.00  0.00    -0.276 OA
ENDROOT
BRANCH   1   3
HETATM    3  O   LIG     1      14.218  31.260  18.712  1.00  0.00    -0.333 OA
HETATM    4  C   LIG     1      15.086  31.997  19.566  1.00  0.00     0.212 C 
ENDBRANCH   1   3
TORSDOF 1
ENDMDL
MODEL 11
REMARK VINA RESULT:      -2.3      2.174      2.863
REMARK  1 active torsions:
REMARK  status: ('A' for Active; 'I' for Inactive)
REMARK    1  A    between atoms: C_1  and  O_2 
ROOT
HETATM    1  C   LIG     1      16.921  37.746  23.422  1.00  0.00     0.397 C 
HETATM    2  O   LIG     1      16.024  37.952  24.283  1.00  0.00    -0.276 OA
ENDROOT
BRANCH   1   3
HETATM    3  O   LIG     1      16.772  36.759  22.446  1.00  0.00    -0.333 OA
HETATM    4  C   LIG     1      16.896  35.372  22.736  1.00  0.00     0.212 C 
ENDBRANCH   1   3
TORSDOF 1
ENDMDL
MODEL 12
REMARK VINA RESULT:      -2.3      9.925     10.652
REMARK  1 active torsions:
REMARK  status: ('A' for Active; 'I' for Inactive)
REMARK    1  A    between atoms: C_1  and  O_2 
ROOT
HETATM    1  C   LIG     1      16.543  32.826  15.254  1.00  0.00     0.397 C 
HETATM    2  O   LIG     1      17.736  32.425  15.314  1.00  0.00    -0.276 OA
ENDROOT
BRANCH   1   3
HETATM    3  O   LIG     1      16.130  33.967  15.945  1.00  0.00    -0.333 OA
HETATM    4  C   LIG     1      15.062  33.948  16.885  1.00  0.00     0.212 C 
ENDBRANCH   1   3
TORSDOF 1
ENDMDL
MODEL 13
REMARK VINA RESULT:      -2.3      9.196      9.933
REMARK  1 active torsions:
REMARK  status: ('A' for Active; 'I' for Inactive)
REMARK    1  A    between atoms: C_1  and  O_2 
ROOT
HETATM    1  C   LIG     1      14.674  31.740  19.027  1.00  0.00     0.397 C 
HETATM    2  O   LIG     1      14.575  31.230  20.176  1.00  0.00    -0.276 OA
ENDROOT
BRANCH   1   3
HETATM    3  O   LIG     1      13.968  31.216  17.942  1.00  0.00    -0.333 OA
HETATM    4  C   LIG     1      13.364  32.041  16.952  1.00  0.00     0.212 C 
ENDBRANCH   1   3
TORSDOF 1
ENDMDL
MODEL 14
REMARK VINA RESULT:      -2.2      4.969      5.807
REMARK  1 active torsions:
REMARK  status: ('A' for Active; 'I' for Inactive)
REMARK    1  A    between atoms: C_1  and  O_2 
ROOT
HETATM    1  C   LIG     1      18.626  39.303  21.202  1.00  0.00     0.397 C 
HETATM    2  O   LIG     1      18.024  38.202  21.314  1.00  0.00    -0.276 OA
ENDROOT
BRANCH   1   3
HETATM    3  O   LIG     1      19.205  39.689  19.992  1.00  0.00    -0.333 OA
HETATM    4  C   LIG     1      19.196  38.855  18.839  1.00  0.00     0.212 C 
ENDBRANCH   1   3
TORSDOF 1
ENDMDL
MODEL 15
REMARK VINA RESULT:      -2.2      7.387      7.972
REMARK  1 active torsions:
REMARK  status: ('A' for Active; 'I' for Inactive)
REMARK    1  A    between atoms: C_1  and  O_2 
ROOT
HETATM    1  C   LIG     1      18.898  39.436  17.286  1.00  0.00     0.397 C 
HETATM    2  O   LIG     1      18.750  40.393  16.479  1.00  0.00    -0.276 OA
ENDROOT
BRANCH   1   3
HETATM    3  O   LIG     1      19.778  39.534  18.366  1.00  0.00    -0.333 OA
HETATM    4  C   LIG     1      19.729  38.644  19.475  1.00  0.00     0.212 C 
ENDBRANCH   1   3
TORSDOF 1
ENDMDL
MODEL 16
REMARK VINA RESULT:      -2.2     11.859     12.528
REMARK  1 active torsions:
REMARK  status: ('A' for Active; 'I' for Inactive)
REMARK    1  A    between atoms: C_1  and  O_2 
ROOT
HETATM    1  C   LIG     1      16.662  32.248  14.948  1.00  0.00     0.397 C 
HETATM    2  O   LIG     1      17.845  32.527  15.280  1.00  0.00    -0.276 OA
ENDROOT
BRANCH   1   3
HETATM    3  O   LIG     1      16.312  30.958  14.543  1.00  0.00    -0.333 OA
HETATM    4  C   LIG     1      15.328  30.710  13.545  1.00  0.00     0.212 C 
ENDBRANCH   1   3
TORSDOF 1
ENDMDL
MODEL 17
REMARK VINA RESULT:      -2.2      7.532      7.625
REMARK  1 active torsions:
REMARK  status: ('A' for Active; 'I' for Inactive)
REMARK    1  A    between atoms: C_1  and  O_2 
ROOT
HETATM    1  C   LIG     1      12.557  31.009  25.986  1.00  0.00     0.397 C 
HETATM    2  O   LIG     1      12.295  31.367  24.807  1.00  0.00    -0.276 OA
ENDROOT
BRANCH   1   3
HETATM    3  O   LIG     1      12.987  31.932  26.942  1.00  0.00    -0.333 OA
HETATM    4  C   LIG     1      13.738  31.552  28.089  1.00  0.00     0.212 C 
ENDBRANCH   1   3
TORSDOF 1
ENDMDL
MODEL 18
REMARK VINA RESULT:      -2.1      4.582      5.381
REMARK  1 active torsions:
REMARK  status: ('A' for Active; 'I' for Inactive)
REMARK    1  A    between atoms: C_1  and  O_2 
ROOT
HETATM    1  C   LIG     1      17.391  36.098  20.974  1.00  0.00     0.397 C 
HETATM    2  O   LIG     1      17.012  37.079  21.669  1.00  0.00    -0.276 OA
ENDROOT
BRANCH   1   3
HETATM    3  O   LIG     1      17.941  36.284  19.704  1.00  0.00    -0.333 OA
HETATM    4  C   LIG     1      19.128  37.040  19.488  1.00  0.00     0.212 C 
ENDBRANCH   1   3
TORSDOF 1
ENDMDL
MODEL 19
REMARK VINA RESULT:      -2.1     12.509     12.638
REMARK  1 active torsions:
REMARK  status: ('A' for Active; 'I' for Inactive)
REMARK    1  A    between atoms: C_1  and  O_2 
ROOT
HETATM    1  C   LIG     1      17.529  33.600  13.346  1.00  0.00     0.397 C 
HETATM    2  O   LIG     1      17.571  34.827  13.062  1.00  0.00    -0.276 OA
ENDROOT
BRANCH   1   3
HETATM    3  O   LIG     1      16.317  32.907  13.374  1.00  0.00    -0.333 OA
HETATM    4  C   LIG     1      15.986  31.986  14.406  1.00  0.00     0.212 C 
ENDBRANCH   1   3
TORSDOF 1
ENDMDL
MODEL 20
REMARK VINA RESULT:      -2.1     12.217     12.957
REMARK  1 active torsions:
REMARK  status: ('A' for Active; 'I' for Inactive)
REMARK    1  A    between atoms: C_1  and  O_2 
ROOT
HETATM    1  C   LIG     1      17.940  34.160  13.486  1.00  0.00     0.397 C 
HETATM    2  O   LIG     1      17.429  34.973  14.302  1.00  0.00    -0.276 OA
ENDROOT
BRANCH   1   3
HETATM    3  O   LIG     1      19.060  34.508  12.727  1.00  0.00    -0.333 OA
HETATM    4  C   LIG     1      19.060  34.477  11.304  1.00  0.00     0.212 C 
ENDBRANCH   1   3
TORSDOF 1
ENDMDL
