REMARK  0 active torsions:
REMARK  status: ('A' for Active; 'I' for Inactive)
ROOT
HETATM    1  C   LIG     1      -0.985  -0.304   0.206  1.00  0.00     0.022 C 
HETATM    2  C   LIG     1       0.053   0.448  -0.142  1.00  0.00     0.083 C 
HETATM    3  C   LIG     1       1.398   0.015   0.125  1.00  0.00     0.087 C 
HETATM    4  N   LIG     1       2.481  -0.332   0.340  1.00  0.00    -0.192 NA
ENDROOT
TORSDOF 0
