REMARK  2 active torsions:
REMARK  status: ('A' for Active; 'I' for Inactive)
REMARK    1  A    between atoms: C_2  and  C_3 
REMARK    2  A    between atoms: C_3  and  C_4 
ROOT
HETATM    1  C   LIG     1      -2.143  -0.432  -0.517  1.00  0.00     0.091 C 
HETATM    2  C   LIG     1      -1.509   0.491   0.487  1.00  0.00     0.123 C 
HETATM    3  O   LIG     1      -2.234   1.171   1.197  1.00  0.00    -0.298 OA
ENDROOT
BRANCH   2   4
HETATM    4  C   LIG     1      -0.012   0.617   0.660  1.00  0.00     0.077 C 
BRANCH   4   5
HETATM    5  C   LIG     1       0.812  -0.279  -0.278  1.00  0.00     0.003 C 
HETATM    6  C   LIG     1       2.308  -0.092  -0.041  1.00  0.00     0.005 C 
ENDBRANCH   4   5
ENDBRANCH   2   4
TORSDOF 2
