MODEL 1
REMARK VINA RESULT:      -3.4      0.000      0.000
REMARK  1 active torsions:
REMARK  status: ('A' for Active; 'I' for Inactive)
REMARK    1  A    between atoms: C_2  and  C_3 
ROOT
HETATM    1  C   LIG     1      18.526  36.982  25.988  1.00  0.00     0.008 C 
HETATM    2  C   LIG     1      18.301  35.831  26.626  1.00  0.00    -0.022 C 
ENDROOT
BRANCH   2   3
HETATM    3  C   LIG     1      17.388  34.794  26.043  1.00  0.00     0.141 C 
HETATM    4 CL   LIG     1      17.264  34.996  24.277  1.00  0.00    -0.126 Cl
ENDBRANCH   2   3
TORSDOF 1
ENDMDL
MODEL 2
REMARK VINA RESULT:      -3.4      1.566      2.341
REMARK  1 active torsions:
REMARK  status: ('A' for Active; 'I' for Inactive)
REMARK    1  A    between atoms: C_2  and  C_3 
ROOT
HETATM    1  C   LIG     1      17.485  34.859  25.846  1.00  0.00     0.008 C 
HETATM    2  C   LIG     1      18.216  35.710  26.571  1.00  0.00    -0.022 C 
ENDROOT
BRANCH   2   3
HETATM    3  C   LIG     1      18.617  37.044  26.018  1.00  0.00     0.141 C 
HETATM    4 CL   LIG     1      17.193  37.909  25.385  1.00  0.00    -0.126 Cl
ENDBRANCH   2   3
TORSDOF 1
ENDMDL
MODEL 3
REMARK VINA RESULT:      -3.3      1.780      2.368
REMARK  1 active torsions:
REMARK  status: ('A' for Active; 'I' for Inactive)
REMARK    1  A    between atoms: C_2  and  C_3 
ROOT
HETATM    1  C   LIG     1      18.096  35.309  26.244  1.00  0.00     0.008 C 
HETATM    2  C   LIG     1      18.427  36.601  26.309  1.00  0.00    -0.022 C 
ENDROOT
BRANCH   2   3
HETATM    3  C   LIG     1      17.495  37.660  25.801  1.00  0.00     0.141 C 
HETATM    4 CL   LIG     1      17.946  38.144  24.147  1.00  0.00    -0.126 Cl
ENDBRANCH   2   3
TORSDOF 1
ENDMDL
MODEL 4
REMARK VINA RESULT:      -3.2      1.933      2.230
REMARK  1 active torsions:
REMARK  status: ('A' for Active; 'I' for Inactive)
REMARK    1  A    between atoms: C_2  and  C_3 
ROOT
HETATM    1  C   LIG     1      18.340  35.453  26.544  1.00  0.00     0.008 C 
HETATM    2  C   LIG     1      17.583  35.270  25.460  1.00  0.00    -0.022 C 
ENDROOT
BRANCH   2   3
HETATM    3  C   LIG     1      17.232  36.419  24.563  1.00  0.00     0.141 C 
HETATM    4 CL   LIG     1      17.309  37.956  25.462  1.00  0.00    -0.126 Cl
ENDBRANCH   2   3
TORSDOF 1
ENDMDL
MODEL 5
REMARK VINA RESULT:      -3.2      1.137      1.554
REMARK  1 active torsions:
REMARK  status: ('A' for Active; 'I' for Inactive)
REMARK    1  A    between atoms: C_2  and  C_3 
ROOT
HETATM    1  C   LIG     1      17.475  37.624  25.133  1.00  0.00     0.008 C 
HETATM    2  C   LIG     1      18.469  37.149  25.889  1.00  0.00    -0.022 C 
ENDROOT
BRANCH   2   3
HETATM    3  C   LIG     1      18.280  35.917  26.723  1.00  0.00     0.141 C 
HETATM    4 CL   LIG     1      17.260  34.735  25.865  1.00  0.00    -0.126 Cl
ENDBRANCH   2   3
TORSDOF 1
ENDMDL
MODEL 6
REMARK VINA RESULT:      -3.0      5.876      6.512
REMARK  1 active torsions:
REMARK  status: ('A' for Active; 'I' for Inactive)
REMARK    1  A    between atoms: C_2  and  C_3 
ROOT
HETATM    1  C   LIG     1      18.163  38.808  21.290  1.00  0.00     0.008 C 
HETATM    2  C   LIG     1      19.056  39.392  20.487  1.00  0.00    -0.022 C 
ENDROOT
BRANCH   2   3
HETATM    3  C   LIG     1      19.937  38.575  19.591  1.00  0.00     0.141 C 
HETATM    4 CL   LIG     1      19.348  36.895  19.504  1.00  0.00    -0.126 Cl
ENDBRANCH   2   3
TORSDOF 1
ENDMDL
MODEL 7
REMARK VINA RESULT:      -2.9      6.367      6.658
REMARK  1 active torsions:
REMARK  status: ('A' for Active; 'I' for Inactive)
REMARK    1  A    between atoms: C_2  and  C_3 
ROOT
HETATM    1  C   LIG     1      19.069  37.025  19.520  1.00  0.00     0.008 C 
HETATM    2  C   LIG     1      19.673  38.215  19.573  1.00  0.00    -0.022 C 
ENDROOT
BRANCH   2   3
HETATM    3  C   LIG     1      19.078  39.345  20.358  1.00  0.00     0.141 C 
HETATM    4 CL   LIG     1      17.865  38.733  21.510  1.00  0.00    -0.126 Cl
ENDBRANCH   2   3
TORSDOF 1
ENDMDL
MODEL 8
REMARK VINA RESULT:      -2.8      4.928      5.327
REMARK  1 active torsions:
REMARK  status: ('A' for Active; 'I' for Inactive)
REMARK    1  A    between atoms: C_2  and  C_3 
ROOT
HETATM    1  C   LIG     1      16.964  35.325  22.279  1.00  0.00     0.008 C 
HETATM    2  C   LIG     1      17.187  35.776  21.042  1.00  0.00    -0.022 C 
ENDROOT
BRANCH   2   3
HETATM    3  C   LIG     1      17.946  37.048  20.813  1.00  0.00     0.141 C 
HETATM    4 CL   LIG     1      19.175  36.820  19.544  1.00  0.00    -0.126 Cl
ENDBRANCH   2   3
TORSDOF 1
ENDMDL
MODEL 9
REMARK VINA RESULT:      -2.7      5.759      6.303
REMARK  1 active torsions:
REMARK  status: ('A' for Active; 'I' for Inactive)
REMARK    1  A    between atoms: C_2  and  C_3 
ROOT
HETATM    1  C   LIG     1      17.871  37.341  21.021  1.00  0.00     0.008 C 
HETATM    2  C   LIG     1      18.156  38.603  21.351  1.00  0.00    -0.022 C 
ENDROOT
BRANCH   2   3
HETATM    3  C   LIG     1      19.004  39.459  20.459  1.00  0.00     0.141 C 
HETATM    4 CL   LIG     1      20.204  38.463  19.597  1.00  0.00    -0.126 Cl
ENDBRANCH   2   3
TORSDOF 1
ENDMDL
MODEL 10
REMARK VINA RESULT:      -2.7      3.343      3.823
REMARK  1 active torsions:
REMARK  status: ('A' for Active; 'I' for Inactive)
REMARK    1  A    between atoms: C_2  and  C_3 
ROOT
HETATM    1  C   LIG     1      17.581  38.228  21.986  1.00  0.00     0.008 C 
HETATM    2  C   LIG     1      17.221  38.627  23.209  1.00  0.00    -0.022 C 
ENDROOT
BRANCH   2   3
HETATM    3  C   LIG     1      16.829  37.631  24.258  1.00  0.00     0.141 C 
HETATM    4 CL   LIG     1      18.163  37.384  25.412  1.00  0.00    -0.126 Cl
ENDBRANCH   2   3
TORSDOF 1
ENDMDL
MODEL 11
REMARK VINA RESULT:      -2.7      3.832      4.172
REMARK  1 active torsions:
REMARK  status: ('A' for Active; 'I' for Inactive)
REMARK    1  A    between atoms: C_2  and  C_3 
ROOT
HETATM    1  C   LIG     1      18.070  38.926  22.006  1.00  0.00     0.008 C 
HETATM    2  C   LIG     1      17.526  37.763  21.637  1.00  0.00    -0.022 C 
ENDROOT
BRANCH   2   3
HETATM    3  C   LIG     1      16.750  36.932  22.614  1.00  0.00     0.141 C 
HETATM    4 CL   LIG     1      17.065  35.199  22.345  1.00  0.00    -0.126 Cl
ENDBRANCH   2   3
TORSDOF 1
ENDMDL
MODEL 12
REMARK VINA RESULT:      -2.6     12.723     13.104
REMARK  1 active torsions:
REMARK  status: ('A' for Active; 'I' for Inactive)
REMARK    1  A    between atoms: C_2  and  C_3 
ROOT
HETATM    1  C   LIG     1      13.240  30.395  15.469  1.00  0.00     0.008 C 
HETATM    2  C   LIG     1      14.484  30.724  15.110  1.00  0.00    -0.022 C 
ENDROOT
BRANCH   2   3
HETATM    3  C   LIG     1      15.058  30.254  13.807  1.00  0.00     0.141 C 
HETATM    4 CL   LIG     1      15.260  28.484  13.818  1.00  0.00    -0.126 Cl
ENDBRANCH   2   3
TORSDOF 1
ENDMDL
MODEL 13
REMARK VINA RESULT:      -2.6      3.734      4.089
REMARK  1 active torsions:
REMARK  status: ('A' for Active; 'I' for Inactive)
REMARK    1  A    between atoms: C_2  and  C_3 
ROOT
HETATM    1  C   LIG     1      17.120  35.167  23.821  1.00  0.00     0.008 C 
HETATM    2  C   LIG     1      17.028  35.167  22.489  1.00  0.00    -0.022 C 
ENDROOT
BRANCH   2   3
HETATM    3  C   LIG     1      16.372  36.302  21.762  1.00  0.00     0.141 C 
HETATM    4 CL   LIG     1      14.702  35.872  21.315  1.00  0.00    -0.126 Cl
ENDBRANCH   2   3
TORSDOF 1
ENDMDL
MODEL 14
REMARK VINA RESULT:      -2.6     12.406     12.930
REMARK  1 active torsions:
REMARK  status: ('A' for Active; 'I' for Inactive)
REMARK    1  A    between atoms: C_2  and  C_3 
ROOT
HETATM    1  C   LIG     1      15.551  31.136  14.456  1.00  0.00     0.008 C 
HETATM    2  C   LIG     1      15.037  30.001  13.976  1.00  0.00    -0.022 C 
ENDROOT
BRANCH   2   3
HETATM    3  C   LIG     1      13.676  29.534  14.396  1.00  0.00     0.141 C 
HETATM    4 CL   LIG     1      13.042  30.563  15.705  1.00  0.00    -0.126 Cl
ENDBRANCH   2   3
TORSDOF 1
ENDMDL
MODEL 15
REMARK VINA RESULT:      -2.6     11.372     11.998
REMARK  1 active torsions:
REMARK  status: ('A' for Active; 'I' for Inactive)
REMARK    1  A    between atoms: C_2  and  C_3 
ROOT
HETATM    1  C   LIG     1      13.435  31.615  16.778  1.00  0.00     0.008 C 
HETATM    2  C   LIG     1      13.069  30.667  15.912  1.00  0.00    -0.022 C 
ENDROOT
BRANCH   2   3
HETATM    3  C   LIG     1      14.029  30.154  14.881  1.00  0.00     0.141 C 
HETATM    4 CL   LIG     1      15.363  31.311  14.643  1.00  0.00    -0.126 Cl
ENDBRANCH   2   3
TORSDOF 1
ENDMDL
MODEL 16
REMARK VINA RESULT:      -2.6      9.235      9.964
REMARK  1 active torsions:
REMARK  status: ('A' for Active; 'I' for Inactive)
REMARK    1  A    between atoms: C_2  and  C_3 
ROOT
HETATM    1  C   LIG     1      13.495  30.911  16.519  1.00  0.00     0.008 C 
HETATM    2  C   LIG     1      13.660  32.102  17.100  1.00  0.00    -0.022 C 
ENDROOT
BRANCH   2   3
HETATM    3  C   LIG     1      14.849  32.375  17.972  1.00  0.00     0.141 C 
HETATM    4 CL   LIG     1      14.714  31.479  19.506  1.00  0.00    -0.126 Cl
ENDBRANCH   2   3
TORSDOF 1
ENDMDL
MODEL 17
REMARK VINA RESULT:      -2.6      8.548      9.154
REMARK  1 active torsions:
REMARK  status: ('A' for Active; 'I' for Inactive)
REMARK    1  A    between atoms: C_2  and  C_3 
ROOT
HETATM    1  C   LIG     1      15.639  32.152  19.740  1.00  0.00     0.008 C 
HETATM    2  C   LIG     1      14.621  31.682  19.016  1.00  0.00    -0.022 C 
ENDROOT
BRANCH   2   3
HETATM    3  C   LIG     1      14.408  32.136  17.603  1.00  0.00     0.141 C 
HETATM    4 CL   LIG     1      13.607  30.859  16.653  1.00  0.00    -0.126 Cl
ENDBRANCH   2   3
TORSDOF 1
ENDMDL
MODEL 18
REMARK VINA RESULT:      -2.6      5.400      5.602
REMARK  1 active torsions:
REMARK  status: ('A' for Active; 'I' for Inactive)
REMARK    1  A    between atoms: C_2  and  C_3 
ROOT
HETATM    1  C   LIG     1      19.107  36.819  19.584  1.00  0.00     0.008 C 
HETATM    2  C   LIG     1      18.095  37.068  20.419  1.00  0.00    -0.022 C 
ENDROOT
BRANCH   2   3
HETATM    3  C   LIG     1      17.396  35.951  21.135  1.00  0.00     0.141 C 
HETATM    4 CL   LIG     1      16.039  35.338  20.156  1.00  0.00    -0.126 Cl
ENDBRANCH   2   3
TORSDOF 1
ENDMDL
MODEL 19
REMARK VINA RESULT:      -2.5     10.763     11.459
REMARK  1 active torsions:
REMARK  status: ('A' for Active; 'I' for Inactive)
REMARK    1  A    between atoms: C_2  and  C_3 
ROOT
HETATM    1  C   LIG     1      14.162  30.307  14.937  1.00  0.00     0.008 C 
HETATM    2  C   LIG     1      13.319  30.682  15.902  1.00  0.00    -0.022 C 
ENDROOT
BRANCH   2   3
HETATM    3  C   LIG     1      13.810  31.437  17.101  1.00  0.00     0.141 C 
HETATM    4 CL   LIG     1      15.014  32.658  16.618  1.00  0.00    -0.126 Cl
ENDBRANCH   2   3
TORSDOF 1
ENDMDL
MODEL 20
REMARK VINA RESULT:      -2.5      4.499      5.040
REMARK  1 active torsions:
REMARK  status: ('A' for Active; 'I' for Inactive)
REMARK    1  A    between atoms: C_2  and  C_3 
ROOT
HETATM    1  C   LIG     1      15.699  34.255  20.609  1.00  0.00     0.008 C 
HETATM    2  C   LIG     1      16.471  35.333  20.769  1.00  0.00    -0.022 C 
ENDROOT
BRANCH   2   3
HETATM    3  C   LIG     1      16.456  36.106  22.053  1.00  0.00     0.141 C 
HETATM    4 CL   LIG     1      17.095  35.111  23.386  1.00  0.00    -0.126 Cl
ENDBRANCH   2   3
TORSDOF 1
ENDMDL
