REMARK  1 active torsions:
REMARK  status: ('A' for Active; 'I' for Inactive)
REMARK    1  A    between atoms: C_2  and  C_3 
ROOT
HETATM    1  C   LIG     1      -1.190  -0.152   0.219  1.00  0.00     0.014 C 
HETATM    2  C   LIG     1      -0.104   0.403  -0.315  1.00  0.00     0.031 C 
ENDROOT
BRANCH   2   3
HETATM    3  C   LIG     1       1.254  -0.085  -0.033  1.00  0.00     0.258 C 
HETATM    4  O   LIG     1       1.453  -1.063   0.736  1.00  0.00    -0.302 OA
ENDBRANCH   2   3
TORSDOF 1
