REMARK  1 active torsions:
REMARK  status: ('A' for Active; 'I' for Inactive)
REMARK    1  A    between atoms: C_1  and  O_2 
ROOT
HETATM    1  C   LIG     1       1.387   0.074   0.118  1.00  0.00     0.397 C 
HETATM    2  O   LIG     1       1.290   1.317   0.302  1.00  0.00    -0.276 OA
ENDROOT
BRANCH   1   3
HETATM    3  O   LIG     1       0.254  -0.715  -0.090  1.00  0.00    -0.333 OA
HETATM    4  C   LIG     1      -1.062  -0.174  -0.109  1.00  0.00     0.212 C 
ENDBRANCH   1   3
TORSDOF 1
