REMARK  1 active torsions:
REMARK  status: ('A' for Active; 'I' for Inactive)
REMARK    1  A    between atoms: C_2  and  C_3 
ROOT
HETATM    1 CL   LIG     1      -1.477   1.386   0.554  1.00  0.00    -0.129 Cl
HETATM    2  C   LIG     1      -0.748  -0.068  -0.178  1.00  0.00     0.129 C 
ENDROOT
BRANCH   2   3
HETATM    3  C   LIG     1       0.729  -0.178   0.181  1.00  0.00     0.129 C 
HETATM    4 CL   LIG     1       1.673   1.129  -0.583  1.00  0.00    -0.129 Cl
ENDBRANCH   2   3
TORSDOF 1
