MODEL 1
REMARK VINA RESULT:      -4.5      0.000      0.000
REMARK  2 active torsions:
REMARK  status: ('A' for Active; 'I' for Inactive)
REMARK    1  A    between atoms: C_2  and  C_3 
REMARK    2  A    between atoms: C_3  and  C_4 
ROOT
HETATM    1  C   LIG     1      16.742  37.414  23.822  1.00  0.00     0.091 C 
HETATM    2  C   LIG     1      17.438  37.858  25.079  1.00  0.00     0.123 C 
HETATM    3  O   LIG     1      17.021  38.848  25.662  1.00  0.00    -0.298 OA
ENDROOT
BRANCH   2   4
HETATM    4  C   LIG     1      18.634  37.135  25.658  1.00  0.00     0.077 C 
BRANCH   4   5
HETATM    5  C   LIG     1      18.293  36.152  26.789  1.00  0.00     0.003 C 
HETATM    6  C   LIG     1      17.832  34.809  26.227  1.00  0.00     0.005 C 
ENDBRANCH   4   5
ENDBRANCH   2   4
TORSDOF 2
ENDMDL
MODEL 2
REMARK VINA RESULT:      -4.2      1.376      1.640
REMARK  2 active torsions:
REMARK  status: ('A' for Active; 'I' for Inactive)
REMARK    1  A    between atoms: C_2  and  C_3 
REMARK    2  A    between atoms: C_3  and  C_4 
ROOT
HETATM    1  C   LIG     1      17.626  38.576  22.672  1.00  0.00     0.091 C 
HETATM    2  C   LIG     1      16.929  38.109  23.920  1.00  0.00     0.123 C 
HETATM    3  O   LIG     1      15.710  38.022  23.912  1.00  0.00    -0.298 OA
ENDROOT
BRANCH   2   4
HETATM    4  C   LIG     1      17.666  37.741  25.188  1.00  0.00     0.077 C 
BRANCH   4   5
HETATM    5  C   LIG     1      17.665  36.238  25.508  1.00  0.00     0.003 C 
HETATM    6  C   LIG     1      18.483  35.944  26.762  1.00  0.00     0.005 C 
ENDBRANCH   4   5
ENDBRANCH   2   4
TORSDOF 2
ENDMDL
MODEL 3
REMARK VINA RESULT:      -4.2      4.840      5.817
REMARK  2 active torsions:
REMARK  status: ('A' for Active; 'I' for Inactive)
REMARK    1  A    between atoms: C_2  and  C_3 
REMARK    2  A    between atoms: C_3  and  C_4 
ROOT
HETATM    1  C   LIG     1      19.284  37.319  19.505  1.00  0.00     0.091 C 
HETATM    2  C   LIG     1      19.595  38.759  19.805  1.00  0.00     0.123 C 
HETATM    3  O   LIG     1      20.570  39.271  19.276  1.00  0.00    -0.298 OA
ENDROOT
BRANCH   2   4
HETATM    4  C   LIG     1      18.755  39.606  20.734  1.00  0.00     0.077 C 
BRANCH   4   5
HETATM    5  C   LIG     1      18.512  38.981  22.117  1.00  0.00     0.003 C 
HETATM    6  C   LIG     1      17.029  38.694  22.337  1.00  0.00     0.005 C 
ENDBRANCH   4   5
ENDBRANCH   2   4
TORSDOF 2
ENDMDL
MODEL 4
REMARK VINA RESULT:      -4.1      1.299      3.465
REMARK  2 active torsions:
REMARK  status: ('A' for Active; 'I' for Inactive)
REMARK    1  A    between atoms: C_2  and  C_3 
REMARK    2  A    between atoms: C_3  and  C_4 
ROOT
HETATM    1  C   LIG     1      18.352  36.830  25.901  1.00  0.00     0.091 C 
HETATM    2  C   LIG     1      17.407  37.657  25.074  1.00  0.00     0.123 C 
HETATM    3  O   LIG     1      16.927  38.667  25.568  1.00  0.00    -0.298 OA
ENDROOT
BRANCH   2   4
HETATM    4  C   LIG     1      17.022  37.299  23.657  1.00  0.00     0.077 C 
BRANCH   4   5
HETATM    5  C   LIG     1      16.854  38.506  22.721  1.00  0.00     0.003 C 
HETATM    6  C   LIG     1      18.199  38.952  22.154  1.00  0.00     0.005 C 
ENDBRANCH   4   5
ENDBRANCH   2   4
TORSDOF 2
ENDMDL
MODEL 5
REMARK VINA RESULT:      -4.1      1.474      2.724
REMARK  2 active torsions:
REMARK  status: ('A' for Active; 'I' for Inactive)
REMARK    1  A    between atoms: C_2  and  C_3 
REMARK    2  A    between atoms: C_3  and  C_4 
ROOT
HETATM    1  C   LIG     1      18.213  36.674  26.075  1.00  0.00     0.091 C 
HETATM    2  C   LIG     1      17.413  37.518  25.121  1.00  0.00     0.123 C 
HETATM    3  O   LIG     1      17.104  38.650  25.459  1.00  0.00    -0.298 OA
ENDROOT
BRANCH   2   4
HETATM    4  C   LIG     1      16.971  37.029  23.760  1.00  0.00     0.077 C 
BRANCH   4   5
HETATM    5  C   LIG     1      17.061  35.506  23.573  1.00  0.00     0.003 C 
HETATM    6  C   LIG     1      16.991  35.130  22.096  1.00  0.00     0.005 C 
ENDBRANCH   4   5
ENDBRANCH   2   4
TORSDOF 2
ENDMDL
MODEL 6
REMARK VINA RESULT:      -3.9      1.478      3.202
REMARK  2 active torsions:
REMARK  status: ('A' for Active; 'I' for Inactive)
REMARK    1  A    between atoms: C_2  and  C_3 
REMARK    2  A    between atoms: C_3  and  C_4 
ROOT
HETATM    1  C   LIG     1      17.560  35.160  25.488  1.00  0.00     0.091 C 
HETATM    2  C   LIG     1      17.981  36.547  25.889  1.00  0.00     0.123 C 
HETATM    3  O   LIG     1      18.684  36.683  26.880  1.00  0.00    -0.298 OA
ENDROOT
BRANCH   2   4
HETATM    4  C   LIG     1      17.575  37.786  25.122  1.00  0.00     0.077 C 
BRANCH   4   5
HETATM    5  C   LIG     1      16.811  37.502  23.820  1.00  0.00     0.003 C 
HETATM    6  C   LIG     1      17.075  38.588  22.781  1.00  0.00     0.005 C 
ENDBRANCH   4   5
ENDBRANCH   2   4
TORSDOF 2
ENDMDL
MODEL 7
REMARK VINA RESULT:      -3.9      5.487      6.136
REMARK  2 active torsions:
REMARK  status: ('A' for Active; 'I' for Inactive)
REMARK    1  A    between atoms: C_2  and  C_3 
REMARK    2  A    between atoms: C_3  and  C_4 
ROOT
HETATM    1  C   LIG     1      18.821  39.512  20.889  1.00  0.00     0.091 C 
HETATM    2  C   LIG     1      19.676  38.779  19.892  1.00  0.00     0.123 C 
HETATM    3  O   LIG     1      20.508  39.410  19.258  1.00  0.00    -0.298 OA
ENDROOT
BRANCH   2   4
HETATM    4  C   LIG     1      19.554  37.294  19.636  1.00  0.00     0.077 C 
BRANCH   4   5
HETATM    5  C   LIG     1      18.108  36.793  19.490  1.00  0.00     0.003 C 
HETATM    6  C   LIG     1      17.624  36.131  20.777  1.00  0.00     0.005 C 
ENDBRANCH   4   5
ENDBRANCH   2   4
TORSDOF 2
ENDMDL
MODEL 8
REMARK VINA RESULT:      -3.8      2.879      3.824
REMARK  2 active torsions:
REMARK  status: ('A' for Active; 'I' for Inactive)
REMARK    1  A    between atoms: C_2  and  C_3 
REMARK    2  A    between atoms: C_3  and  C_4 
ROOT
HETATM    1  C   LIG     1      17.240  38.723  22.364  1.00  0.00     0.091 C 
HETATM    2  C   LIG     1      16.612  37.637  23.193  1.00  0.00     0.123 C 
HETATM    3  O   LIG     1      15.845  37.954  24.090  1.00  0.00    -0.298 OA
ENDROOT
BRANCH   2   4
HETATM    4  C   LIG     1      16.887  36.167  22.970  1.00  0.00     0.077 C 
BRANCH   4   5
HETATM    5  C   LIG     1      16.561  35.670  21.552  1.00  0.00     0.003 C 
HETATM    6  C   LIG     1      15.058  35.699  21.293  1.00  0.00     0.005 C 
ENDBRANCH   4   5
ENDBRANCH   2   4
TORSDOF 2
ENDMDL
MODEL 9
REMARK VINA RESULT:      -3.7      2.895      3.951
REMARK  2 active torsions:
REMARK  status: ('A' for Active; 'I' for Inactive)
REMARK    1  A    between atoms: C_2  and  C_3 
REMARK    2  A    between atoms: C_3  and  C_4 
ROOT
HETATM    1  C   LIG     1      18.814  39.346  20.930  1.00  0.00     0.091 C 
HETATM    2  C   LIG     1      17.810  38.431  21.576  1.00  0.00     0.123 C 
HETATM    3  O   LIG     1      17.713  37.285  21.167  1.00  0.00    -0.298 OA
ENDROOT
BRANCH   2   4
HETATM    4  C   LIG     1      16.911  38.866  22.712  1.00  0.00     0.077 C 
BRANCH   4   5
HETATM    5  C   LIG     1      16.666  37.784  23.776  1.00  0.00     0.003 C 
HETATM    6  C   LIG     1      17.406  38.109  25.070  1.00  0.00     0.005 C 
ENDBRANCH   4   5
ENDBRANCH   2   4
TORSDOF 2
ENDMDL
MODEL 10
REMARK VINA RESULT:      -3.7      2.621      4.266
REMARK  2 active torsions:
REMARK  status: ('A' for Active; 'I' for Inactive)
REMARK    1  A    between atoms: C_2  and  C_3 
REMARK    2  A    between atoms: C_3  and  C_4 
ROOT
HETATM    1  C   LIG     1      17.179  37.078  24.559  1.00  0.00     0.091 C 
HETATM    2  C   LIG     1      16.560  37.412  23.229  1.00  0.00     0.123 C 
HETATM    3  O   LIG     1      15.645  38.220  23.196  1.00  0.00    -0.298 OA
ENDROOT
BRANCH   2   4
HETATM    4  C   LIG     1      17.020  36.793  21.928  1.00  0.00     0.077 C 
BRANCH   4   5
HETATM    5  C   LIG     1      17.965  37.681  21.104  1.00  0.00     0.003 C 
HETATM    6  C   LIG     1      18.599  36.893  19.961  1.00  0.00     0.005 C 
ENDBRANCH   4   5
ENDBRANCH   2   4
TORSDOF 2
ENDMDL
MODEL 11
REMARK VINA RESULT:      -3.7      3.887      5.296
REMARK  2 active torsions:
REMARK  status: ('A' for Active; 'I' for Inactive)
REMARK    1  A    between atoms: C_2  and  C_3 
REMARK    2  A    between atoms: C_3  and  C_4 
ROOT
HETATM    1  C   LIG     1      17.331  37.161  21.505  1.00  0.00     0.091 C 
HETATM    2  C   LIG     1      17.862  38.429  22.115  1.00  0.00     0.123 C 
HETATM    3  O   LIG     1      17.644  38.646  23.297  1.00  0.00    -0.298 OA
ENDROOT
BRANCH   2   4
HETATM    4  C   LIG     1      18.655  39.451  21.331  1.00  0.00     0.077 C 
BRANCH   4   5
HETATM    5  C   LIG     1      18.858  39.095  19.850  1.00  0.00     0.003 C 
HETATM    6  C   LIG     1      20.315  38.738  19.566  1.00  0.00     0.005 C 
ENDBRANCH   4   5
ENDBRANCH   2   4
TORSDOF 2
ENDMDL
MODEL 12
REMARK VINA RESULT:      -3.6      8.740      9.890
REMARK  2 active torsions:
REMARK  status: ('A' for Active; 'I' for Inactive)
REMARK    1  A    between atoms: C_2  and  C_3 
REMARK    2  A    between atoms: C_3  and  C_4 
ROOT
HETATM    1  C   LIG     1      14.873  31.442  19.806  1.00  0.00     0.091 C 
HETATM    2  C   LIG     1      15.142  32.538  18.813  1.00  0.00     0.123 C 
HETATM    3  O   LIG     1      15.634  33.583  19.213  1.00  0.00    -0.298 OA
ENDROOT
BRANCH   2   4
HETATM    4  C   LIG     1      14.833  32.409  17.339  1.00  0.00     0.077 C 
BRANCH   4   5
HETATM    5  C   LIG     1      13.645  31.487  17.019  1.00  0.00     0.003 C 
HETATM    6  C   LIG     1      13.883  30.717  15.723  1.00  0.00     0.005 C 
ENDBRANCH   4   5
ENDBRANCH   2   4
TORSDOF 2
ENDMDL
MODEL 13
REMARK VINA RESULT:      -3.6      4.876      5.604
REMARK  2 active torsions:
REMARK  status: ('A' for Active; 'I' for Inactive)
REMARK    1  A    between atoms: C_2  and  C_3 
REMARK    2  A    between atoms: C_3  and  C_4 
ROOT
HETATM    1  C   LIG     1      14.947  35.605  21.321  1.00  0.00     0.091 C 
HETATM    2  C   LIG     1      16.184  35.515  20.470  1.00  0.00     0.123 C 
HETATM    3  O   LIG     1      16.144  34.852  19.445  1.00  0.00    -0.298 OA
ENDROOT
BRANCH   2   4
HETATM    4  C   LIG     1      17.479  36.211  20.824  1.00  0.00     0.077 C 
BRANCH   4   5
HETATM    5  C   LIG     1      17.316  37.411  21.770  1.00  0.00     0.003 C 
HETATM    6  C   LIG     1      18.156  38.596  21.301  1.00  0.00     0.005 C 
ENDBRANCH   4   5
ENDBRANCH   2   4
TORSDOF 2
ENDMDL
MODEL 14
REMARK VINA RESULT:      -3.6      3.757      4.831
REMARK  2 active torsions:
REMARK  status: ('A' for Active; 'I' for Inactive)
REMARK    1  A    between atoms: C_2  and  C_3 
REMARK    2  A    between atoms: C_3  and  C_4 
ROOT
HETATM    1  C   LIG     1      17.021  35.576  21.202  1.00  0.00     0.091 C 
HETATM    2  C   LIG     1      17.859  36.687  20.632  1.00  0.00     0.123 C 
HETATM    3  O   LIG     1      18.474  36.484  19.596  1.00  0.00    -0.298 OA
ENDROOT
BRANCH   2   4
HETATM    4  C   LIG     1      17.976  38.048  21.281  1.00  0.00     0.077 C 
BRANCH   4   5
HETATM    5  C   LIG     1      16.937  38.316  22.381  1.00  0.00     0.003 C 
HETATM    6  C   LIG     1      17.559  38.181  23.768  1.00  0.00     0.005 C 
ENDBRANCH   4   5
ENDBRANCH   2   4
TORSDOF 2
ENDMDL
MODEL 15
REMARK VINA RESULT:      -3.6      9.966     10.763
REMARK  2 active torsions:
REMARK  status: ('A' for Active; 'I' for Inactive)
REMARK    1  A    between atoms: C_2  and  C_3 
REMARK    2  A    between atoms: C_3  and  C_4 
ROOT
HETATM    1  C   LIG     1      16.219  32.539  15.139  1.00  0.00     0.091 C 
HETATM    2  C   LIG     1      15.520  33.160  16.316  1.00  0.00     0.123 C 
HETATM    3  O   LIG     1      15.597  34.369  16.473  1.00  0.00    -0.298 OA
ENDROOT
BRANCH   2   4
HETATM    4  C   LIG     1      14.722  32.357  17.319  1.00  0.00     0.077 C 
BRANCH   4   5
HETATM    5  C   LIG     1      13.271  32.079  16.896  1.00  0.00     0.003 C 
HETATM    6  C   LIG     1      13.152  30.727  16.197  1.00  0.00     0.005 C 
ENDBRANCH   4   5
ENDBRANCH   2   4
TORSDOF 2
ENDMDL
MODEL 16
REMARK VINA RESULT:      -3.6      9.366     10.286
REMARK  2 active torsions:
REMARK  status: ('A' for Active; 'I' for Inactive)
REMARK    1  A    between atoms: C_2  and  C_3 
REMARK    2  A    between atoms: C_3  and  C_4 
ROOT
HETATM    1  C   LIG     1      14.131  30.723  15.565  1.00  0.00     0.091 C 
HETATM    2  C   LIG     1      13.692  31.546  16.744  1.00  0.00     0.123 C 
HETATM    3  O   LIG     1      12.501  31.601  17.009  1.00  0.00    -0.298 OA
ENDROOT
BRANCH   2   4
HETATM    4  C   LIG     1      14.658  32.311  17.621  1.00  0.00     0.077 C 
BRANCH   4   5
HETATM    5  C   LIG     1      14.764  31.782  19.060  1.00  0.00     0.003 C 
HETATM    6  C   LIG     1      15.424  32.810  19.975  1.00  0.00     0.005 C 
ENDBRANCH   4   5
ENDBRANCH   2   4
TORSDOF 2
ENDMDL
MODEL 17
REMARK VINA RESULT:      -3.6      4.466      4.917
REMARK  2 active torsions:
REMARK  status: ('A' for Active; 'I' for Inactive)
REMARK    1  A    between atoms: C_2  and  C_3 
REMARK    2  A    between atoms: C_3  and  C_4 
ROOT
HETATM    1  C   LIG     1      18.511  38.551  20.824  1.00  0.00     0.091 C 
HETATM    2  C   LIG     1      17.939  37.160  20.809  1.00  0.00     0.123 C 
HETATM    3  O   LIG     1      18.251  36.408  19.898  1.00  0.00    -0.298 OA
ENDROOT
BRANCH   2   4
HETATM    4  C   LIG     1      16.994  36.647  21.872  1.00  0.00     0.077 C 
BRANCH   4   5
HETATM    5  C   LIG     1      16.907  35.115  21.955  1.00  0.00     0.003 C 
HETATM    6  C   LIG     1      15.575  34.611  21.406  1.00  0.00     0.005 C 
ENDBRANCH   4   5
ENDBRANCH   2   4
TORSDOF 2
ENDMDL
MODEL 18
REMARK VINA RESULT:      -3.5      8.566      9.470
REMARK  2 active torsions:
REMARK  status: ('A' for Active; 'I' for Inactive)
REMARK    1  A    between atoms: C_2  and  C_3 
REMARK    2  A    between atoms: C_3  and  C_4 
ROOT
HETATM    1  C   LIG     1      15.926  32.529  15.375  1.00  0.00     0.091 C 
HETATM    2  C   LIG     1      15.388  33.162  16.628  1.00  0.00     0.123 C 
HETATM    3  O   LIG     1      15.535  34.365  16.787  1.00  0.00    -0.298 OA
ENDROOT
BRANCH   2   4
HETATM    4  C   LIG     1      14.670  32.379  17.704  1.00  0.00     0.077 C 
BRANCH   4   5
HETATM    5  C   LIG     1      15.341  32.438  19.086  1.00  0.00     0.003 C 
HETATM    6  C   LIG     1      14.820  31.330  19.996  1.00  0.00     0.005 C 
ENDBRANCH   4   5
ENDBRANCH   2   4
TORSDOF 2
ENDMDL
MODEL 19
REMARK VINA RESULT:      -3.5     10.778     11.891
REMARK  2 active torsions:
REMARK  status: ('A' for Active; 'I' for Inactive)
REMARK    1  A    between atoms: C_2  and  C_3 
REMARK    2  A    between atoms: C_3  and  C_4 
ROOT
HETATM    1  C   LIG     1      14.531  31.915  18.392  1.00  0.00     0.091 C 
HETATM    2  C   LIG     1      13.844  31.671  17.076  1.00  0.00     0.123 C 
HETATM    3  O   LIG     1      12.623  31.646  17.048  1.00  0.00    -0.298 OA
ENDROOT
BRANCH   2   4
HETATM    4  C   LIG     1      14.597  31.455  15.782  1.00  0.00     0.077 C 
BRANCH   4   5
HETATM    5  C   LIG     1      14.099  30.262  14.951  1.00  0.00     0.003 C 
HETATM    6  C   LIG     1      15.099  29.901  13.856  1.00  0.00     0.005 C 
ENDBRANCH   4   5
ENDBRANCH   2   4
TORSDOF 2
ENDMDL
MODEL 20
REMARK VINA RESULT:      -3.5     12.029     13.069
REMARK  2 active torsions:
REMARK  status: ('A' for Active; 'I' for Inactive)
REMARK    1  A    between atoms: C_2  and  C_3 
REMARK    2  A    between atoms: C_3  and  C_4 
ROOT
HETATM    1  C   LIG     1      15.202  28.946  13.901  1.00  0.00     0.091 C 
HETATM    2  C   LIG     1      15.387  30.426  14.096  1.00  0.00     0.123 C 
HETATM    3  O   LIG     1      16.012  31.054  13.255  1.00  0.00    -0.298 OA
ENDROOT
BRANCH   2   4
HETATM    4  C   LIG     1      14.835  31.175  15.288  1.00  0.00     0.077 C 
BRANCH   4   5
HETATM    5  C   LIG     1      13.481  30.652  15.793  1.00  0.00     0.003 C 
HETATM    6  C   LIG     1      12.834  31.645  16.755  1.00  0.00     0.005 C 
ENDBRANCH   4   5
ENDBRANCH   2   4
TORSDOF 2
ENDMDL
