MODEL 1
REMARK VINA RESULT:      -3.1      0.000      0.000
REMARK  1 active torsions:
REMARK  status: ('A' for Active; 'I' for Inactive)
REMARK    1  A    between atoms: C_2  and  C_3 
ROOT
HETATM    1 BR   LIG     1      17.888  34.983  26.110  1.00  0.00    -0.095 Br
HETATM    2  C   LIG     1      18.446  36.836  26.195  1.00  0.00     0.100 C 
ENDROOT
BRANCH   2   3
HETATM    3  C   LIG     1      17.392  37.731  25.558  1.00  0.00     0.125 C 
HETATM    4 CL   LIG     1      17.921  38.242  23.936  1.00  0.00    -0.130 Cl
ENDBRANCH   2   3
TORSDOF 1
ENDMDL
MODEL 2
REMARK VINA RESULT:      -3.0      2.446      2.684
REMARK  1 active torsions:
REMARK  status: ('A' for Active; 'I' for Inactive)
REMARK    1  A    between atoms: C_2  and  C_3 
ROOT
HETATM    1 BR   LIG     1      17.503  37.589  25.343  1.00  0.00    -0.095 Br
HETATM    2  C   LIG     1      18.297  36.404  26.652  1.00  0.00     0.100 C 
ENDROOT
BRANCH   2   3
HETATM    3  C   LIG     1      18.108  34.954  26.230  1.00  0.00     0.125 C 
HETATM    4 CL   LIG     1      17.302  34.878  24.643  1.00  0.00    -0.130 Cl
ENDBRANCH   2   3
TORSDOF 1
ENDMDL
MODEL 3
REMARK VINA RESULT:      -3.0      2.003      2.118
REMARK  1 active torsions:
REMARK  status: ('A' for Active; 'I' for Inactive)
REMARK    1  A    between atoms: C_2  and  C_3 
ROOT
HETATM    1 BR   LIG     1      18.317  36.270  26.616  1.00  0.00    -0.095 Br
HETATM    2  C   LIG     1      17.527  37.527  25.372  1.00  0.00     0.100 C 
ENDROOT
BRANCH   2   3
HETATM    3  C   LIG     1      17.063  36.801  24.117  1.00  0.00     0.125 C 
HETATM    4 CL   LIG     1      17.263  35.043  24.317  1.00  0.00    -0.130 Cl
ENDBRANCH   2   3
TORSDOF 1
ENDMDL
MODEL 4
REMARK VINA RESULT:      -2.9      3.002      3.158
REMARK  1 active torsions:
REMARK  status: ('A' for Active; 'I' for Inactive)
REMARK    1  A    between atoms: C_2  and  C_3 
ROOT
HETATM    1 BR   LIG     1      16.995  38.588  22.752  1.00  0.00    -0.095 Br
HETATM    2  C   LIG     1      16.968  37.239  24.142  1.00  0.00     0.100 C 
ENDROOT
BRANCH   2   3
HETATM    3  C   LIG     1      17.371  37.853  25.476  1.00  0.00     0.125 C 
HETATM    4 CL   LIG     1      18.493  36.769  26.335  1.00  0.00    -0.130 Cl
ENDBRANCH   2   3
TORSDOF 1
ENDMDL
MODEL 5
REMARK VINA RESULT:      -2.9      2.824      2.991
REMARK  1 active torsions:
REMARK  status: ('A' for Active; 'I' for Inactive)
REMARK    1  A    between atoms: C_2  and  C_3 
ROOT
HETATM    1 BR   LIG     1      17.359  37.937  25.096  1.00  0.00    -0.095 Br
HETATM    2  C   LIG     1      17.198  36.103  24.491  1.00  0.00     0.100 C 
ENDROOT
BRANCH   2   3
HETATM    3  C   LIG     1      17.553  35.146  25.620  1.00  0.00     0.125 C 
HETATM    4 CL   LIG     1      18.426  36.014  26.908  1.00  0.00    -0.130 Cl
ENDBRANCH   2   3
TORSDOF 1
ENDMDL
MODEL 6
REMARK VINA RESULT:      -2.8      2.901      3.088
REMARK  1 active torsions:
REMARK  status: ('A' for Active; 'I' for Inactive)
REMARK    1  A    between atoms: C_2  and  C_3 
ROOT
HETATM    1 BR   LIG     1      17.004  35.228  22.475  1.00  0.00    -0.095 Br
HETATM    2  C   LIG     1      16.948  36.910  23.435  1.00  0.00     0.100 C 
ENDROOT
BRANCH   2   3
HETATM    3  C   LIG     1      17.342  36.697  24.889  1.00  0.00     0.125 C 
HETATM    4 CL   LIG     1      17.466  34.956  25.242  1.00  0.00    -0.130 Cl
ENDBRANCH   2   3
TORSDOF 1
ENDMDL
MODEL 7
REMARK VINA RESULT:      -2.7      5.254      5.429
REMARK  1 active torsions:
REMARK  status: ('A' for Active; 'I' for Inactive)
REMARK    1  A    between atoms: C_2  and  C_3 
ROOT
HETATM    1 BR   LIG     1      19.013  37.191  19.531  1.00  0.00    -0.095 Br
HETATM    2  C   LIG     1      19.327  39.014  20.106  1.00  0.00     0.100 C 
ENDROOT
BRANCH   2   3
HETATM    3  C   LIG     1      18.614  39.278  21.424  1.00  0.00     0.125 C 
HETATM    4 CL   LIG     1      17.477  37.955  21.782  1.00  0.00    -0.130 Cl
ENDBRANCH   2   3
TORSDOF 1
ENDMDL
MODEL 8
REMARK VINA RESULT:      -2.6      4.986      5.137
REMARK  1 active torsions:
REMARK  status: ('A' for Active; 'I' for Inactive)
REMARK    1  A    between atoms: C_2  and  C_3 
ROOT
HETATM    1 BR   LIG     1      18.128  38.924  21.560  1.00  0.00    -0.095 Br
HETATM    2  C   LIG     1      17.369  37.157  21.793  1.00  0.00     0.100 C 
ENDROOT
BRANCH   2   3
HETATM    3  C   LIG     1      17.547  36.338  20.523  1.00  0.00     0.125 C 
HETATM    4 CL   LIG     1      19.051  36.812  19.694  1.00  0.00    -0.130 Cl
ENDBRANCH   2   3
TORSDOF 1
ENDMDL
MODEL 9
REMARK VINA RESULT:      -2.6      5.703      5.815
REMARK  1 active torsions:
REMARK  status: ('A' for Active; 'I' for Inactive)
REMARK    1  A    between atoms: C_2  and  C_3 
ROOT
HETATM    1 BR   LIG     1      19.565  38.866  19.907  1.00  0.00    -0.095 Br
HETATM    2  C   LIG     1      19.107  37.026  19.511  1.00  0.00     0.100 C 
ENDROOT
BRANCH   2   3
HETATM    3  C   LIG     1      17.974  36.562  20.415  1.00  0.00     0.125 C 
HETATM    4 CL   LIG     1      17.615  37.807  21.637  1.00  0.00    -0.130 Cl
ENDBRANCH   2   3
TORSDOF 1
ENDMDL
MODEL 10
REMARK VINA RESULT:      -2.5      3.140      3.313
REMARK  1 active torsions:
REMARK  status: ('A' for Active; 'I' for Inactive)
REMARK    1  A    between atoms: C_2  and  C_3 
ROOT
HETATM    1 BR   LIG     1      17.489  37.820  24.983  1.00  0.00    -0.095 Br
HETATM    2  C   LIG     1      16.898  36.831  23.426  1.00  0.00     0.100 C 
ENDROOT
BRANCH   2   3
HETATM    3  C   LIG     1      17.226  37.605  22.157  1.00  0.00     0.125 C 
HETATM    4 CL   LIG     1      17.650  36.478  20.844  1.00  0.00    -0.130 Cl
ENDBRANCH   2   3
TORSDOF 1
ENDMDL
MODEL 11
REMARK VINA RESULT:      -2.5     10.011     10.113
REMARK  1 active torsions:
REMARK  status: ('A' for Active; 'I' for Inactive)
REMARK    1  A    between atoms: C_2  and  C_3 
ROOT
HETATM    1 BR   LIG     1      15.270  32.219  19.605  1.00  0.00    -0.095 Br
HETATM    2  C   LIG     1      14.990  32.624  17.731  1.00  0.00     0.100 C 
ENDROOT
BRANCH   2   3
HETATM    3  C   LIG     1      13.760  31.891  17.214  1.00  0.00     0.125 C 
HETATM    4 CL   LIG     1      14.176  30.947  15.762  1.00  0.00    -0.130 Cl
ENDBRANCH   2   3
TORSDOF 1
ENDMDL
MODEL 12
REMARK VINA RESULT:      -2.4      3.011      3.188
REMARK  1 active torsions:
REMARK  status: ('A' for Active; 'I' for Inactive)
REMARK    1  A    between atoms: C_2  and  C_3 
ROOT
HETATM    1 BR   LIG     1      16.843  35.503  22.352  1.00  0.00    -0.095 Br
HETATM    2  C   LIG     1      16.953  37.081  23.470  1.00  0.00     0.100 C 
ENDROOT
BRANCH   2   3
HETATM    3  C   LIG     1      16.614  38.323  22.659  1.00  0.00     0.125 C 
HETATM    4 CL   LIG     1      17.925  38.679  21.508  1.00  0.00    -0.130 Cl
ENDBRANCH   2   3
TORSDOF 1
ENDMDL
MODEL 13
REMARK VINA RESULT:      -2.4      4.783      5.014
REMARK  1 active torsions:
REMARK  status: ('A' for Active; 'I' for Inactive)
REMARK    1  A    between atoms: C_2  and  C_3 
ROOT
HETATM    1 BR   LIG     1      15.653  34.010  20.542  1.00  0.00    -0.095 Br
HETATM    2  C   LIG     1      15.052  35.695  21.285  1.00  0.00     0.100 C 
ENDROOT
BRANCH   2   3
HETATM    3  C   LIG     1      16.184  36.363  22.053  1.00  0.00     0.125 C 
HETATM    4 CL   LIG     1      17.048  35.159  23.041  1.00  0.00    -0.130 Cl
ENDBRANCH   2   3
TORSDOF 1
ENDMDL
MODEL 14
REMARK VINA RESULT:      -2.4     13.758     13.785
REMARK  1 active torsions:
REMARK  status: ('A' for Active; 'I' for Inactive)
REMARK    1  A    between atoms: C_2  and  C_3 
ROOT
HETATM    1 BR   LIG     1      13.442  30.820  16.219  1.00  0.00    -0.095 Br
HETATM    2  C   LIG     1      13.587  29.798  14.580  1.00  0.00     0.100 C 
ENDROOT
BRANCH   2   3
HETATM    3  C   LIG     1      15.051  29.608  14.208  1.00  0.00     0.125 C 
HETATM    4 CL   LIG     1      15.354  27.911  13.761  1.00  0.00    -0.130 Cl
ENDBRANCH   2   3
TORSDOF 1
ENDMDL
MODEL 15
REMARK VINA RESULT:      -2.3     11.862     11.900
REMARK  1 active torsions:
REMARK  status: ('A' for Active; 'I' for Inactive)
REMARK    1  A    between atoms: C_2  and  C_3 
ROOT
HETATM    1 BR   LIG     1      29.476  39.098  21.080  1.00  0.00    -0.095 Br
HETATM    2  C   LIG     1      27.993  39.234  19.841  1.00  0.00     0.100 C 
ENDROOT
BRANCH   2   3
HETATM    3  C   LIG     1      27.652  37.861  19.279  1.00  0.00     0.125 C 
HETATM    4 CL   LIG     1      26.436  38.013  17.986  1.00  0.00    -0.130 Cl
ENDBRANCH   2   3
TORSDOF 1
ENDMDL
MODEL 16
REMARK VINA RESULT:      -2.3      4.412      4.514
REMARK  1 active torsions:
REMARK  status: ('A' for Active; 'I' for Inactive)
REMARK    1  A    between atoms: C_2  and  C_3 
ROOT
HETATM    1 BR   LIG     1      15.980  35.088  21.061  1.00  0.00    -0.095 Br
HETATM    2  C   LIG     1      16.787  36.363  22.276  1.00  0.00     0.100 C 
ENDROOT
BRANCH   2   3
HETATM    3  C   LIG     1      17.536  37.432  21.493  1.00  0.00     0.125 C 
HETATM    4 CL   LIG     1      18.350  36.703  20.087  1.00  0.00    -0.130 Cl
ENDBRANCH   2   3
TORSDOF 1
ENDMDL
MODEL 17
REMARK VINA RESULT:      -2.3      6.241      6.362
REMARK  1 active torsions:
REMARK  status: ('A' for Active; 'I' for Inactive)
REMARK    1  A    between atoms: C_2  and  C_3 
ROOT
HETATM    1 BR   LIG     1      16.802  35.328  22.287  1.00  0.00    -0.095 Br
HETATM    2  C   LIG     1      16.089  34.767  20.576  1.00  0.00     0.100 C 
ENDROOT
BRANCH   2   3
HETATM    3  C   LIG     1      15.117  33.611  20.766  1.00  0.00     0.125 C 
HETATM    4 CL   LIG     1      15.542  32.268  19.676  1.00  0.00    -0.130 Cl
ENDBRANCH   2   3
TORSDOF 1
ENDMDL
MODEL 18
REMARK VINA RESULT:      -2.3     11.732     11.789
REMARK  1 active torsions:
REMARK  status: ('A' for Active; 'I' for Inactive)
REMARK    1  A    between atoms: C_2  and  C_3 
ROOT
HETATM    1 BR   LIG     1      15.231  30.937  14.555  1.00  0.00    -0.095 Br
HETATM    2  C   LIG     1      15.154  32.198  16.024  1.00  0.00     0.100 C 
ENDROOT
BRANCH   2   3
HETATM    3  C   LIG     1      13.979  31.872  16.934  1.00  0.00     0.125 C 
HETATM    4 CL   LIG     1      12.906  30.688  16.148  1.00  0.00    -0.130 Cl
ENDBRANCH   2   3
TORSDOF 1
ENDMDL
MODEL 19
REMARK VINA RESULT:      -2.2      4.154      4.315
REMARK  1 active torsions:
REMARK  status: ('A' for Active; 'I' for Inactive)
REMARK    1  A    between atoms: C_2  and  C_3 
ROOT
HETATM    1 BR   LIG     1      16.180  35.028  21.402  1.00  0.00    -0.095 Br
HETATM    2  C   LIG     1      17.539  36.247  20.752  1.00  0.00     0.100 C 
ENDROOT
BRANCH   2   3
HETATM    3  C   LIG     1      17.501  37.546  21.545  1.00  0.00     0.125 C 
HETATM    4 CL   LIG     1      16.967  37.229  23.214  1.00  0.00    -0.130 Cl
ENDBRANCH   2   3
TORSDOF 1
ENDMDL
MODEL 20
REMARK VINA RESULT:      -2.2     12.237     12.273
REMARK  1 active torsions:
REMARK  status: ('A' for Active; 'I' for Inactive)
REMARK    1  A    between atoms: C_2  and  C_3 
ROOT
HETATM    1 BR   LIG     1      13.442  31.522  16.744  1.00  0.00    -0.095 Br
HETATM    2  C   LIG     1      13.660  30.339  15.225  1.00  0.00     0.100 C 
ENDROOT
BRANCH   2   3
HETATM    3  C   LIG     1      14.914  30.711  14.447  1.00  0.00     0.125 C 
HETATM    4 CL   LIG     1      15.709  32.115  15.201  1.00  0.00    -0.130 Cl
ENDBRANCH   2   3
TORSDOF 1
ENDMDL
