REMARK  1 active torsions:
REMARK  status: ('A' for Active; 'I' for Inactive)
REMARK    1  A    between atoms: C_2  and  C_3 
ROOT
HETATM    1  I   LIG     1       1.636   1.907  -0.879  1.00  0.00    -0.090 I 
HETATM    2  C   LIG     1       1.270  -0.028  -0.035  1.00  0.00     0.079 C 
ENDROOT
BRANCH   2   3
HETATM    3  C   LIG     1      -0.136  -0.537  -0.360  1.00  0.00     0.006 C 
HETATM    4  C   LIG     1      -1.216   0.220   0.411  1.00  0.00     0.006 C 
ENDBRANCH   2   3
TORSDOF 1
