REMARK  2 active torsions:
REMARK  status: ('A' for Active; 'I' for Inactive)
REMARK    1  A    between atoms: C_2  and  C_4 
REMARK    2  A    between atoms: C_4  and  C_5 
ROOT
HETATM    1  C   LIG     1      -2.048  -0.987   0.672  1.00  0.00     0.009 C 
HETATM    2  C   LIG     1      -1.047   0.123   0.326  1.00  0.00    -0.023 C 
HETATM    3  C   LIG     1      -1.581   0.959  -0.847  1.00  0.00     0.009 C 
ENDROOT
BRANCH   2   4
HETATM    4  C   LIG     1       0.337  -0.492   0.013  1.00  0.00     0.003 C 
BRANCH   4   5
HETATM    5  C   LIG     1       1.447   0.566  -0.092  1.00  0.00    -0.004 C 
HETATM    6  C   LIG     1       2.817  -0.089  -0.247  1.00  0.00     0.005 C 
ENDBRANCH   4   5
ENDBRANCH   2   4
TORSDOF 2
