MODEL 1
REMARK VINA RESULT:      -4.4      0.000      0.000
REMARK  2 active torsions:
REMARK  status: ('A' for Active; 'I' for Inactive)
REMARK    1  A    between atoms: C_2  and  C_4 
REMARK    2  A    between atoms: C_4  and  C_5 
ROOT
HETATM    1  C   LIG     1      18.511  34.778  26.443  1.00  0.00     0.009 C 
HETATM    2  C   LIG     1      17.539  35.672  25.661  1.00  0.00    -0.023 C 
HETATM    3  C   LIG     1      17.208  35.024  24.308  1.00  0.00     0.009 C 
ENDROOT
BRANCH   2   4
HETATM    4  C   LIG     1      18.143  37.086  25.491  1.00  0.00     0.003 C 
BRANCH   4   5
HETATM    5  C   LIG     1      17.169  38.071  24.824  1.00  0.00    -0.004 C 
HETATM    6  C   LIG     1      17.664  38.478  23.439  1.00  0.00     0.005 C 
ENDBRANCH   4   5
ENDBRANCH   2   4
TORSDOF 2
ENDMDL
MODEL 2
REMARK VINA RESULT:      -4.4      1.358      2.564
REMARK  2 active torsions:
REMARK  status: ('A' for Active; 'I' for Inactive)
REMARK    1  A    between atoms: C_2  and  C_4 
REMARK    2  A    between atoms: C_4  and  C_5 
ROOT
HETATM    1  C   LIG     1      17.894  37.131  25.339  1.00  0.00     0.009 C 
HETATM    2  C   LIG     1      17.387  35.688  25.463  1.00  0.00    -0.023 C 
HETATM    3  C   LIG     1      18.359  34.867  26.324  1.00  0.00     0.009 C 
ENDROOT
BRANCH   2   4
HETATM    4  C   LIG     1      17.199  35.071  24.058  1.00  0.00     0.003 C 
BRANCH   4   5
HETATM    5  C   LIG     1      16.915  36.128  22.978  1.00  0.00    -0.004 C 
HETATM    6  C   LIG     1      17.021  35.526  21.579  1.00  0.00     0.005 C 
ENDBRANCH   4   5
ENDBRANCH   2   4
TORSDOF 2
ENDMDL
MODEL 3
REMARK VINA RESULT:      -4.4      1.442      3.442
REMARK  2 active torsions:
REMARK  status: ('A' for Active; 'I' for Inactive)
REMARK    1  A    between atoms: C_2  and  C_4 
REMARK    2  A    between atoms: C_4  and  C_5 
ROOT
HETATM    1  C   LIG     1      16.984  35.305  22.353  1.00  0.00     0.009 C 
HETATM    2  C   LIG     1      16.711  36.605  23.120  1.00  0.00    -0.023 C 
HETATM    3  C   LIG     1      17.331  37.793  22.368  1.00  0.00     0.009 C 
ENDROOT
BRANCH   2   4
HETATM    4  C   LIG     1      17.251  36.492  24.564  1.00  0.00     0.003 C 
BRANCH   4   5
HETATM    5  C   LIG     1      17.346  35.036  25.050  1.00  0.00    -0.004 C 
HETATM    6  C   LIG     1      18.266  34.921  26.262  1.00  0.00     0.005 C 
ENDBRANCH   4   5
ENDBRANCH   2   4
TORSDOF 2
ENDMDL
MODEL 4
REMARK VINA RESULT:      -4.3      3.893      5.503
REMARK  2 active torsions:
REMARK  status: ('A' for Active; 'I' for Inactive)
REMARK    1  A    between atoms: C_2  and  C_4 
REMARK    2  A    between atoms: C_4  and  C_5 
ROOT
HETATM    1  C   LIG     1      18.761  37.003  19.707  1.00  0.00     0.009 C 
HETATM    2  C   LIG     1      19.012  38.516  19.658  1.00  0.00    -0.023 C 
HETATM    3  C   LIG     1      20.501  38.789  19.397  1.00  0.00     0.009 C 
ENDROOT
BRANCH   2   4
HETATM    4  C   LIG     1      18.525  39.175  20.969  1.00  0.00     0.003 C 
BRANCH   4   5
HETATM    5  C   LIG     1      17.809  38.185  21.902  1.00  0.00    -0.004 C 
HETATM    6  C   LIG     1      16.615  38.842  22.589  1.00  0.00     0.005 C 
ENDBRANCH   4   5
ENDBRANCH   2   4
TORSDOF 2
ENDMDL
MODEL 5
REMARK VINA RESULT:      -4.1      3.287      5.315
REMARK  2 active torsions:
REMARK  status: ('A' for Active; 'I' for Inactive)
REMARK    1  A    between atoms: C_2  and  C_4 
REMARK    2  A    between atoms: C_4  and  C_5 
ROOT
HETATM    1  C   LIG     1      19.192  36.880  19.530  1.00  0.00     0.009 C 
HETATM    2  C   LIG     1      18.417  37.991  20.249  1.00  0.00    -0.023 C 
HETATM    3  C   LIG     1      19.383  39.108  20.675  1.00  0.00     0.009 C 
ENDROOT
BRANCH   2   4
HETATM    4  C   LIG     1      17.647  37.404  21.454  1.00  0.00     0.003 C 
BRANCH   4   5
HETATM    5  C   LIG     1      17.049  36.019  21.159  1.00  0.00    -0.004 C 
HETATM    6  C   LIG     1      16.995  35.164  22.422  1.00  0.00     0.005 C 
ENDBRANCH   4   5
ENDBRANCH   2   4
TORSDOF 2
ENDMDL
MODEL 6
REMARK VINA RESULT:      -4.1      1.470      3.522
REMARK  2 active torsions:
REMARK  status: ('A' for Active; 'I' for Inactive)
REMARK    1  A    between atoms: C_2  and  C_4 
REMARK    2  A    between atoms: C_4  and  C_5 
ROOT
HETATM    1  C   LIG     1      16.530  38.954  22.603  1.00  0.00     0.009 C 
HETATM    2  C   LIG     1      17.406  37.705  22.770  1.00  0.00    -0.023 C 
HETATM    3  C   LIG     1      17.242  36.787  21.549  1.00  0.00     0.009 C 
ENDROOT
BRANCH   2   4
HETATM    4  C   LIG     1      17.048  36.981  24.089  1.00  0.00     0.003 C 
BRANCH   4   5
HETATM    5  C   LIG     1      17.604  37.698  25.330  1.00  0.00    -0.004 C 
HETATM    6  C   LIG     1      18.368  36.728  26.228  1.00  0.00     0.005 C 
ENDBRANCH   4   5
ENDBRANCH   2   4
TORSDOF 2
ENDMDL
MODEL 7
REMARK VINA RESULT:      -4.1      2.688      4.219
REMARK  2 active torsions:
REMARK  status: ('A' for Active; 'I' for Inactive)
REMARK    1  A    between atoms: C_2  and  C_4 
REMARK    2  A    between atoms: C_4  and  C_5 
ROOT
HETATM    1  C   LIG     1      17.724  38.220  23.917  1.00  0.00     0.009 C 
HETATM    2  C   LIG     1      17.305  38.328  22.445  1.00  0.00    -0.023 C 
HETATM    3  C   LIG     1      17.009  36.929  21.884  1.00  0.00     0.009 C 
ENDROOT
BRANCH   2   4
HETATM    4  C   LIG     1      18.404  39.054  21.635  1.00  0.00     0.003 C 
BRANCH   4   5
HETATM    5  C   LIG     1      18.827  38.276  20.379  1.00  0.00    -0.004 C 
HETATM    6  C   LIG     1      20.081  38.883  19.754  1.00  0.00     0.005 C 
ENDBRANCH   4   5
ENDBRANCH   2   4
TORSDOF 2
ENDMDL
MODEL 8
REMARK VINA RESULT:      -4.0      1.683      3.624
REMARK  2 active torsions:
REMARK  status: ('A' for Active; 'I' for Inactive)
REMARK    1  A    between atoms: C_2  and  C_4 
REMARK    2  A    between atoms: C_4  and  C_5 
ROOT
HETATM    1  C   LIG     1      17.347  36.481  21.160  1.00  0.00     0.009 C 
HETATM    2  C   LIG     1      17.020  37.515  22.246  1.00  0.00    -0.023 C 
HETATM    3  C   LIG     1      18.031  38.670  22.186  1.00  0.00     0.009 C 
ENDROOT
BRANCH   2   4
HETATM    4  C   LIG     1      17.003  36.835  23.635  1.00  0.00     0.003 C 
BRANCH   4   5
HETATM    5  C   LIG     1      17.303  37.815  24.780  1.00  0.00    -0.004 C 
HETATM    6  C   LIG     1      18.117  37.141  25.881  1.00  0.00     0.005 C 
ENDBRANCH   4   5
ENDBRANCH   2   4
TORSDOF 2
ENDMDL
MODEL 9
REMARK VINA RESULT:      -4.0      2.676      3.612
REMARK  2 active torsions:
REMARK  status: ('A' for Active; 'I' for Inactive)
REMARK    1  A    between atoms: C_2  and  C_4 
REMARK    2  A    between atoms: C_4  and  C_5 
ROOT
HETATM    1  C   LIG     1      15.136  35.754  21.268  1.00  0.00     0.009 C 
HETATM    2  C   LIG     1      16.354  36.344  21.990  1.00  0.00    -0.023 C 
HETATM    3  C   LIG     1      16.983  35.282  22.905  1.00  0.00     0.009 C 
ENDROOT
BRANCH   2   4
HETATM    4  C   LIG     1      15.940  37.610  22.776  1.00  0.00     0.003 C 
BRANCH   4   5
HETATM    5  C   LIG     1      16.963  38.750  22.646  1.00  0.00    -0.004 C 
HETATM    6  C   LIG     1      17.887  38.527  21.452  1.00  0.00     0.005 C 
ENDBRANCH   4   5
ENDBRANCH   2   4
TORSDOF 2
ENDMDL
MODEL 10
REMARK VINA RESULT:      -3.8     10.802     12.311
REMARK  2 active torsions:
REMARK  status: ('A' for Active; 'I' for Inactive)
REMARK    1  A    between atoms: C_2  and  C_4 
REMARK    2  A    between atoms: C_4  and  C_5 
ROOT
HETATM    1  C   LIG     1      15.297  28.866  13.937  1.00  0.00     0.009 C 
HETATM    2  C   LIG     1      14.649  30.251  14.061  1.00  0.00    -0.023 C 
HETATM    3  C   LIG     1      15.711  31.290  14.453  1.00  0.00     0.009 C 
ENDROOT
BRANCH   2   4
HETATM    4  C   LIG     1      13.487  30.202  15.079  1.00  0.00     0.003 C 
BRANCH   4   5
HETATM    5  C   LIG     1      13.831  30.894  16.408  1.00  0.00    -0.004 C 
HETATM    6  C   LIG     1      12.781  31.941  16.769  1.00  0.00     0.005 C 
ENDBRANCH   4   5
ENDBRANCH   2   4
TORSDOF 2
ENDMDL
MODEL 11
REMARK VINA RESULT:      -3.8      3.408      4.011
REMARK  2 active torsions:
REMARK  status: ('A' for Active; 'I' for Inactive)
REMARK    1  A    between atoms: C_2  and  C_4 
REMARK    2  A    between atoms: C_4  and  C_5 
ROOT
HETATM    1  C   LIG     1      16.562  35.165  21.540  1.00  0.00     0.009 C 
HETATM    2  C   LIG     1      17.020  36.517  22.102  1.00  0.00    -0.023 C 
HETATM    3  C   LIG     1      15.800  37.335  22.550  1.00  0.00     0.009 C 
ENDROOT
BRANCH   2   4
HETATM    4  C   LIG     1      17.864  37.270  21.047  1.00  0.00     0.003 C 
BRANCH   4   5
HETATM    5  C   LIG     1      18.224  38.699  21.485  1.00  0.00    -0.004 C 
HETATM    6  C   LIG     1      19.014  39.423  20.398  1.00  0.00     0.005 C 
ENDBRANCH   4   5
ENDBRANCH   2   4
TORSDOF 2
ENDMDL
MODEL 12
REMARK VINA RESULT:      -3.8      3.652      5.190
REMARK  2 active torsions:
REMARK  status: ('A' for Active; 'I' for Inactive)
REMARK    1  A    between atoms: C_2  and  C_4 
REMARK    2  A    between atoms: C_4  and  C_5 
ROOT
HETATM    1  C   LIG     1      17.646  36.343  20.841  1.00  0.00     0.009 C 
HETATM    2  C   LIG     1      16.522  36.139  21.865  1.00  0.00    -0.023 C 
HETATM    3  C   LIG     1      17.012  35.227  23.001  1.00  0.00     0.009 C 
ENDROOT
BRANCH   2   4
HETATM    4  C   LIG     1      15.267  35.566  21.166  1.00  0.00     0.003 C 
BRANCH   4   5
HETATM    5  C   LIG     1      15.606  34.764  19.900  1.00  0.00    -0.004 C 
HETATM    6  C   LIG     1      15.500  33.263  20.156  1.00  0.00     0.005 C 
ENDBRANCH   4   5
ENDBRANCH   2   4
TORSDOF 2
ENDMDL
MODEL 13
REMARK VINA RESULT:      -3.8      2.230      3.977
REMARK  2 active torsions:
REMARK  status: ('A' for Active; 'I' for Inactive)
REMARK    1  A    between atoms: C_2  and  C_4 
REMARK    2  A    between atoms: C_4  and  C_5 
ROOT
HETATM    1  C   LIG     1      17.506  38.251  22.270  1.00  0.00     0.009 C 
HETATM    2  C   LIG     1      16.718  37.351  23.231  1.00  0.00    -0.023 C 
HETATM    3  C   LIG     1      17.109  37.671  24.682  1.00  0.00     0.009 C 
ENDROOT
BRANCH   2   4
HETATM    4  C   LIG     1      16.962  35.864  22.883  1.00  0.00     0.003 C 
BRANCH   4   5
HETATM    5  C   LIG     1      16.555  35.517  21.442  1.00  0.00    -0.004 C 
HETATM    6  C   LIG     1      15.041  35.607  21.263  1.00  0.00     0.005 C 
ENDBRANCH   4   5
ENDBRANCH   2   4
TORSDOF 2
ENDMDL
MODEL 14
REMARK VINA RESULT:      -3.7      2.665      3.865
REMARK  2 active torsions:
REMARK  status: ('A' for Active; 'I' for Inactive)
REMARK    1  A    between atoms: C_2  and  C_4 
REMARK    2  A    between atoms: C_4  and  C_5 
ROOT
HETATM    1  C   LIG     1      16.071  34.792  20.862  1.00  0.00     0.009 C 
HETATM    2  C   LIG     1      16.626  36.160  21.279  1.00  0.00    -0.023 C 
HETATM    3  C   LIG     1      17.917  36.458  20.501  1.00  0.00     0.009 C 
ENDROOT
BRANCH   2   4
HETATM    4  C   LIG     1      16.854  36.194  22.808  1.00  0.00     0.003 C 
BRANCH   4   5
HETATM    5  C   LIG     1      16.628  37.590  23.412  1.00  0.00    -0.004 C 
HETATM    6  C   LIG     1      17.094  37.642  24.864  1.00  0.00     0.005 C 
ENDBRANCH   4   5
ENDBRANCH   2   4
TORSDOF 2
ENDMDL
MODEL 15
REMARK VINA RESULT:      -3.7      4.457      4.993
REMARK  2 active torsions:
REMARK  status: ('A' for Active; 'I' for Inactive)
REMARK    1  A    between atoms: C_2  and  C_4 
REMARK    2  A    between atoms: C_4  and  C_5 
ROOT
HETATM    1  C   LIG     1      15.107  36.004  21.556  1.00  0.00     0.009 C 
HETATM    2  C   LIG     1      16.082  35.396  20.539  1.00  0.00    -0.023 C 
HETATM    3  C   LIG     1      15.813  33.891  20.395  1.00  0.00     0.009 C 
ENDROOT
BRANCH   2   4
HETATM    4  C   LIG     1      17.540  35.683  20.968  1.00  0.00     0.003 C 
BRANCH   4   5
HETATM    5  C   LIG     1      18.085  36.994  20.379  1.00  0.00    -0.004 C 
HETATM    6  C   LIG     1      19.329  36.740  19.531  1.00  0.00     0.005 C 
ENDBRANCH   4   5
ENDBRANCH   2   4
TORSDOF 2
ENDMDL
MODEL 16
REMARK VINA RESULT:      -3.6      2.514      4.109
REMARK  2 active torsions:
REMARK  status: ('A' for Active; 'I' for Inactive)
REMARK    1  A    between atoms: C_2  and  C_4 
REMARK    2  A    between atoms: C_4  and  C_5 
ROOT
HETATM    1  C   LIG     1      15.386  36.691  22.000  1.00  0.00     0.009 C 
HETATM    2  C   LIG     1      16.092  35.406  21.552  1.00  0.00    -0.023 C 
HETATM    3  C   LIG     1      15.057  34.292  21.330  1.00  0.00     0.009 C 
ENDROOT
BRANCH   2   4
HETATM    4  C   LIG     1      17.162  35.000  22.592  1.00  0.00     0.003 C 
BRANCH   4   5
HETATM    5  C   LIG     1      17.057  35.804  23.897  1.00  0.00    -0.004 C 
HETATM    6  C   LIG     1      17.415  34.941  25.104  1.00  0.00     0.005 C 
ENDBRANCH   4   5
ENDBRANCH   2   4
TORSDOF 2
ENDMDL
MODEL 17
REMARK VINA RESULT:      -3.5     10.587     12.216
REMARK  2 active torsions:
REMARK  status: ('A' for Active; 'I' for Inactive)
REMARK    1  A    between atoms: C_2  and  C_4 
REMARK    2  A    between atoms: C_4  and  C_5 
ROOT
HETATM    1  C   LIG     1      16.293  32.245  13.301  1.00  0.00     0.009 C 
HETATM    2  C   LIG     1      15.511  31.887  14.572  1.00  0.00    -0.023 C 
HETATM    3  C   LIG     1      16.278  32.376  15.810  1.00  0.00     0.009 C 
ENDROOT
BRANCH   2   4
HETATM    4  C   LIG     1      15.249  30.364  14.620  1.00  0.00     0.003 C 
BRANCH   4   5
HETATM    5  C   LIG     1      13.752  30.021  14.687  1.00  0.00    -0.004 C 
HETATM    6  C   LIG     1      13.113  30.598  15.948  1.00  0.00     0.005 C 
ENDBRANCH   4   5
ENDBRANCH   2   4
TORSDOF 2
ENDMDL
MODEL 18
REMARK VINA RESULT:      -3.5      9.719     11.186
REMARK  2 active torsions:
REMARK  status: ('A' for Active; 'I' for Inactive)
REMARK    1  A    between atoms: C_2  and  C_4 
REMARK    2  A    between atoms: C_4  and  C_5 
ROOT
HETATM    1  C   LIG     1      13.256  30.387  15.615  1.00  0.00     0.009 C 
HETATM    2  C   LIG     1      14.474  30.886  14.827  1.00  0.00    -0.023 C 
HETATM    3  C   LIG     1      15.281  29.689  14.301  1.00  0.00     0.009 C 
ENDROOT
BRANCH   2   4
HETATM    4  C   LIG     1      15.334  31.815  15.715  1.00  0.00     0.003 C 
BRANCH   4   5
HETATM    5  C   LIG     1      14.497  32.599  16.739  1.00  0.00    -0.004 C 
HETATM    6  C   LIG     1      15.084  32.469  18.142  1.00  0.00     0.005 C 
ENDBRANCH   4   5
ENDBRANCH   2   4
TORSDOF 2
ENDMDL
MODEL 19
REMARK VINA RESULT:      -3.3     11.567     12.550
REMARK  2 active torsions:
REMARK  status: ('A' for Active; 'I' for Inactive)
REMARK    1  A    between atoms: C_2  and  C_4 
REMARK    2  A    between atoms: C_4  and  C_5 
ROOT
HETATM    1  C   LIG     1      29.997  39.149  18.705  1.00  0.00     0.009 C 
HETATM    2  C   LIG     1      29.163  39.606  19.909  1.00  0.00    -0.023 C 
HETATM    3  C   LIG     1      29.595  38.834  21.165  1.00  0.00     0.009 C 
ENDROOT
BRANCH   2   4
HETATM    4  C   LIG     1      27.657  39.423  19.608  1.00  0.00     0.003 C 
BRANCH   4   5
HETATM    5  C   LIG     1      27.307  37.988  19.185  1.00  0.00    -0.004 C 
HETATM    6  C   LIG     1      26.434  37.982  17.932  1.00  0.00     0.005 C 
ENDBRANCH   4   5
ENDBRANCH   2   4
TORSDOF 2
ENDMDL
MODEL 20
REMARK VINA RESULT:      -3.3      8.813     10.302
REMARK  2 active torsions:
REMARK  status: ('A' for Active; 'I' for Inactive)
REMARK    1  A    between atoms: C_2  and  C_4 
REMARK    2  A    between atoms: C_4  and  C_5 
ROOT
HETATM    1  C   LIG     1      17.165  32.928  14.909  1.00  0.00     0.009 C 
HETATM    2  C   LIG     1      16.087  32.070  15.584  1.00  0.00    -0.023 C 
HETATM    3  C   LIG     1      15.340  31.244  14.526  1.00  0.00     0.009 C 
ENDROOT
BRANCH   2   4
HETATM    4  C   LIG     1      15.127  32.969  16.397  1.00  0.00     0.003 C 
BRANCH   4   5
HETATM    5  C   LIG     1      14.424  32.212  17.535  1.00  0.00    -0.004 C 
HETATM    6  C   LIG     1      15.194  32.350  18.845  1.00  0.00     0.005 C 
ENDBRANCH   4   5
ENDBRANCH   2   4
TORSDOF 2
ENDMDL
