MODEL 1
REMARK VINA RESULT:      -3.4      0.000      0.000
REMARK  1 active torsions:
REMARK  status: ('A' for Active; 'I' for Inactive)
REMARK    1  A    between atoms: C_2  and  C_3 
ROOT
HETATM    1  C   LIG     1      18.276  35.332  26.367  1.00  0.00     0.014 C 
HETATM    2  C   LIG     1      18.227  36.662  26.325  1.00  0.00     0.031 C 
ENDROOT
BRANCH   2   3
HETATM    3  C   LIG     1      17.485  37.394  25.288  1.00  0.00     0.258 C 
HETATM    4  O   LIG     1      17.132  38.592  25.457  1.00  0.00    -0.302 OA
ENDBRANCH   2   3
TORSDOF 1
ENDMDL
MODEL 2
REMARK VINA RESULT:      -3.0      5.604      6.243
REMARK  1 active torsions:
REMARK  status: ('A' for Active; 'I' for Inactive)
REMARK    1  A    between atoms: C_2  and  C_3 
ROOT
HETATM    1  C   LIG     1      18.085  38.711  21.797  1.00  0.00     0.014 C 
HETATM    2  C   LIG     1      18.792  39.436  20.933  1.00  0.00     0.031 C 
ENDROOT
BRANCH   2   3
HETATM    3  C   LIG     1      19.527  38.833  19.810  1.00  0.00     0.258 C 
HETATM    4  O   LIG     1      20.506  39.419  19.277  1.00  0.00    -0.302 OA
ENDBRANCH   2   3
TORSDOF 1
ENDMDL
MODEL 3
REMARK VINA RESULT:      -2.9      2.891      3.982
REMARK  1 active torsions:
REMARK  status: ('A' for Active; 'I' for Inactive)
REMARK    1  A    between atoms: C_2  and  C_3 
ROOT
HETATM    1  C   LIG     1      18.229  39.139  21.721  1.00  0.00     0.014 C 
HETATM    2  C   LIG     1      17.203  38.472  22.246  1.00  0.00     0.031 C 
ENDROOT
BRANCH   2   3
HETATM    3  C   LIG     1      17.114  38.159  23.680  1.00  0.00     0.258 C 
HETATM    4  O   LIG     1      16.001  37.999  24.248  1.00  0.00    -0.302 OA
ENDBRANCH   2   3
TORSDOF 1
ENDMDL
MODEL 4
REMARK VINA RESULT:      -2.8      2.146      2.556
REMARK  1 active torsions:
REMARK  status: ('A' for Active; 'I' for Inactive)
REMARK    1  A    between atoms: C_2  and  C_3 
ROOT
HETATM    1  C   LIG     1      16.926  35.513  22.702  1.00  0.00     0.014 C 
HETATM    2  C   LIG     1      17.106  35.739  24.002  1.00  0.00     0.031 C 
ENDROOT
BRANCH   2   3
HETATM    3  C   LIG     1      17.109  37.092  24.576  1.00  0.00     0.258 C 
HETATM    4  O   LIG     1      16.157  37.893  24.374  1.00  0.00    -0.302 OA
ENDBRANCH   2   3
TORSDOF 1
ENDMDL
MODEL 5
REMARK VINA RESULT:      -2.8      7.418      7.896
REMARK  1 active torsions:
REMARK  status: ('A' for Active; 'I' for Inactive)
REMARK    1  A    between atoms: C_2  and  C_3 
ROOT
HETATM    1  C   LIG     1      12.457  30.232  26.515  1.00  0.00     0.014 C 
HETATM    2  C   LIG     1      12.826  31.447  26.915  1.00  0.00     0.031 C 
ENDROOT
BRANCH   2   3
HETATM    3  C   LIG     1      13.647  31.669  28.114  1.00  0.00     0.258 C 
HETATM    4  O   LIG     1      14.462  30.799  28.522  1.00  0.00    -0.302 OA
ENDBRANCH   2   3
TORSDOF 1
ENDMDL
MODEL 6
REMARK VINA RESULT:      -2.7      5.885      6.089
REMARK  1 active torsions:
REMARK  status: ('A' for Active; 'I' for Inactive)
REMARK    1  A    between atoms: C_2  and  C_3 
ROOT
HETATM    1  C   LIG     1      19.115  36.940  19.554  1.00  0.00     0.014 C 
HETATM    2  C   LIG     1      19.521  38.204  19.445  1.00  0.00     0.031 C 
ENDROOT
BRANCH   2   3
HETATM    3  C   LIG     1      19.273  39.208  20.490  1.00  0.00     0.258 C 
HETATM    4  O   LIG     1      18.646  38.917  21.543  1.00  0.00    -0.302 OA
ENDBRANCH   2   3
TORSDOF 1
ENDMDL
MODEL 7
REMARK VINA RESULT:      -2.7     11.822     12.056
REMARK  1 active torsions:
REMARK  status: ('A' for Active; 'I' for Inactive)
REMARK    1  A    between atoms: C_2  and  C_3 
ROOT
HETATM    1  C   LIG     1      14.180  30.272  14.959  1.00  0.00     0.014 C 
HETATM    2  C   LIG     1      13.258  30.647  15.842  1.00  0.00     0.031 C 
ENDROOT
BRANCH   2   3
HETATM    3  C   LIG     1      13.532  31.625  16.905  1.00  0.00     0.258 C 
HETATM    4  O   LIG     1      13.950  31.264  18.037  1.00  0.00    -0.302 OA
ENDBRANCH   2   3
TORSDOF 1
ENDMDL
MODEL 8
REMARK VINA RESULT:      -2.6      5.878      6.464
REMARK  1 active torsions:
REMARK  status: ('A' for Active; 'I' for Inactive)
REMARK    1  A    between atoms: C_2  and  C_3 
ROOT
HETATM    1  C   LIG     1      18.543  38.890  21.280  1.00  0.00     0.014 C 
HETATM    2  C   LIG     1      18.831  38.571  20.019  1.00  0.00     0.031 C 
ENDROOT
BRANCH   2   3
HETATM    3  C   LIG     1      19.136  37.195  19.602  1.00  0.00     0.258 C 
HETATM    4  O   LIG     1      18.374  36.561  18.824  1.00  0.00    -0.302 OA
ENDBRANCH   2   3
TORSDOF 1
ENDMDL
MODEL 9
REMARK VINA RESULT:      -2.6     13.340     13.553
REMARK  1 active torsions:
REMARK  status: ('A' for Active; 'I' for Inactive)
REMARK    1  A    between atoms: C_2  and  C_3 
ROOT
HETATM    1  C   LIG     1      13.157  30.567  15.834  1.00  0.00     0.014 C 
HETATM    2  C   LIG     1      14.354  30.729  15.275  1.00  0.00     0.031 C 
ENDROOT
BRANCH   2   3
HETATM    3  C   LIG     1      14.747  30.045  14.034  1.00  0.00     0.258 C 
HETATM    4  O   LIG     1      15.803  30.356  13.420  1.00  0.00    -0.302 OA
ENDBRANCH   2   3
TORSDOF 1
ENDMDL
MODEL 10
REMARK VINA RESULT:      -2.6     18.242     18.594
REMARK  1 active torsions:
REMARK  status: ('A' for Active; 'I' for Inactive)
REMARK    1  A    between atoms: C_2  and  C_3 
ROOT
HETATM    1  C   LIG     1       4.015  44.572  14.302  1.00  0.00     0.014 C 
HETATM    2  C   LIG     1       4.164  44.156  15.558  1.00  0.00     0.031 C 
ENDROOT
BRANCH   2   3
HETATM    3  C   LIG     1       3.370  43.056  16.126  1.00  0.00     0.258 C 
HETATM    4  O   LIG     1       3.711  42.486  17.197  1.00  0.00    -0.302 OA
ENDBRANCH   2   3
TORSDOF 1
ENDMDL
MODEL 11
REMARK VINA RESULT:      -2.6      8.227      8.464
REMARK  1 active torsions:
REMARK  status: ('A' for Active; 'I' for Inactive)
REMARK    1  A    between atoms: C_2  and  C_3 
ROOT
HETATM    1  C   LIG     1      15.351  33.770  20.669  1.00  0.00     0.014 C 
HETATM    2  C   LIG     1      15.637  32.736  19.881  1.00  0.00     0.031 C 
ENDROOT
BRANCH   2   3
HETATM    3  C   LIG     1      14.797  31.531  19.820  1.00  0.00     0.258 C 
HETATM    4  O   LIG     1      14.190  31.207  18.765  1.00  0.00    -0.302 OA
ENDBRANCH   2   3
TORSDOF 1
ENDMDL
MODEL 12
REMARK VINA RESULT:      -2.5      5.179      5.418
REMARK  1 active torsions:
REMARK  status: ('A' for Active; 'I' for Inactive)
REMARK    1  A    between atoms: C_2  and  C_3 
ROOT
HETATM    1  C   LIG     1      16.951  35.204  22.949  1.00  0.00     0.014 C 
HETATM    2  C   LIG     1      17.077  35.265  21.625  1.00  0.00     0.031 C 
ENDROOT
BRANCH   2   3
HETATM    3  C   LIG     1      15.973  34.942  20.709  1.00  0.00     0.258 C 
HETATM    4  O   LIG     1      16.094  35.079  19.463  1.00  0.00    -0.302 OA
ENDBRANCH   2   3
TORSDOF 1
ENDMDL
MODEL 13
REMARK VINA RESULT:      -2.5      7.538      7.687
REMARK  1 active torsions:
REMARK  status: ('A' for Active; 'I' for Inactive)
REMARK    1  A    between atoms: C_2  and  C_3 
ROOT
HETATM    1  C   LIG     1      14.677  31.597  19.340  1.00  0.00     0.014 C 
HETATM    2  C   LIG     1      15.696  32.296  19.835  1.00  0.00     0.031 C 
ENDROOT
BRANCH   2   3
HETATM    3  C   LIG     1      15.544  33.671  20.333  1.00  0.00     0.258 C 
HETATM    4  O   LIG     1      15.965  34.658  19.672  1.00  0.00    -0.302 OA
ENDBRANCH   2   3
TORSDOF 1
ENDMDL
MODEL 14
REMARK VINA RESULT:      -2.5     10.106     10.398
REMARK  1 active torsions:
REMARK  status: ('A' for Active; 'I' for Inactive)
REMARK    1  A    between atoms: C_2  and  C_3 
ROOT
HETATM    1  C   LIG     1      14.795  31.878  16.043  1.00  0.00     0.014 C 
HETATM    2  C   LIG     1      14.723  32.716  17.075  1.00  0.00     0.031 C 
ENDROOT
BRANCH   2   3
HETATM    3  C   LIG     1      15.038  34.147  16.956  1.00  0.00     0.258 C 
HETATM    4  O   LIG     1      15.997  34.550  16.246  1.00  0.00    -0.302 OA
ENDBRANCH   2   3
TORSDOF 1
ENDMDL
MODEL 15
REMARK VINA RESULT:      -2.5     13.565     13.750
REMARK  1 active torsions:
REMARK  status: ('A' for Active; 'I' for Inactive)
REMARK    1  A    between atoms: C_2  and  C_3 
ROOT
HETATM    1  C   LIG     1      22.141  34.884  13.008  1.00  0.00     0.014 C 
HETATM    2  C   LIG     1      21.270  34.235  12.238  1.00  0.00     0.031 C 
ENDROOT
BRANCH   2   3
HETATM    3  C   LIG     1      19.959  33.787  12.731  1.00  0.00     0.258 C 
HETATM    4  O   LIG     1      19.081  34.611  13.101  1.00  0.00    -0.302 OA
ENDBRANCH   2   3
TORSDOF 1
ENDMDL
MODEL 16
REMARK VINA RESULT:      -2.5     13.391     13.599
REMARK  1 active torsions:
REMARK  status: ('A' for Active; 'I' for Inactive)
REMARK    1  A    between atoms: C_2  and  C_3 
ROOT
HETATM    1  C   LIG     1      14.056  30.421  15.318  1.00  0.00     0.014 C 
HETATM    2  C   LIG     1      14.766  30.020  14.266  1.00  0.00     0.031 C 
ENDROOT
BRANCH   2   3
HETATM    3  C   LIG     1      15.444  30.961  13.363  1.00  0.00     0.258 C 
HETATM    4  O   LIG     1      16.455  31.615  13.736  1.00  0.00    -0.302 OA
ENDBRANCH   2   3
TORSDOF 1
ENDMDL
MODEL 17
REMARK VINA RESULT:      -2.5      9.248      9.409
REMARK  1 active torsions:
REMARK  status: ('A' for Active; 'I' for Inactive)
REMARK    1  A    between atoms: C_2  and  C_3 
ROOT
HETATM    1  C   LIG     1      15.466  32.213  19.781  1.00  0.00     0.014 C 
HETATM    2  C   LIG     1      14.780  32.021  18.657  1.00  0.00     0.031 C 
ENDROOT
BRANCH   2   3
HETATM    3  C   LIG     1      15.032  32.797  17.434  1.00  0.00     0.258 C 
HETATM    4  O   LIG     1      16.087  32.641  16.763  1.00  0.00    -0.302 OA
ENDBRANCH   2   3
TORSDOF 1
ENDMDL
MODEL 18
REMARK VINA RESULT:      -2.4     14.721     14.958
REMARK  1 active torsions:
REMARK  status: ('A' for Active; 'I' for Inactive)
REMARK    1  A    between atoms: C_2  and  C_3 
ROOT
HETATM    1  C   LIG     1      15.361  30.773  13.616  1.00  0.00     0.014 C 
HETATM    2  C   LIG     1      14.818  29.672  14.130  1.00  0.00     0.031 C 
ENDROOT
BRANCH   2   3
HETATM    3  C   LIG     1      15.256  28.321  13.749  1.00  0.00     0.258 C 
HETATM    4  O   LIG     1      14.430  27.381  13.602  1.00  0.00    -0.302 OA
ENDBRANCH   2   3
TORSDOF 1
ENDMDL
MODEL 19
REMARK VINA RESULT:      -2.4     10.679     11.014
REMARK  1 active torsions:
REMARK  status: ('A' for Active; 'I' for Inactive)
REMARK    1  A    between atoms: C_2  and  C_3 
ROOT
HETATM    1  C   LIG     1      23.212  44.767  32.531  1.00  0.00     0.014 C 
HETATM    2  C   LIG     1      21.988  45.289  32.546  1.00  0.00     0.031 C 
ENDROOT
BRANCH   2   3
HETATM    3  C   LIG     1      20.789  44.504  32.219  1.00  0.00     0.258 C 
HETATM    4  O   LIG     1      19.651  44.834  32.648  1.00  0.00    -0.302 OA
ENDBRANCH   2   3
TORSDOF 1
ENDMDL
MODEL 20
REMARK VINA RESULT:      -2.3     14.019     14.175
REMARK  1 active torsions:
REMARK  status: ('A' for Active; 'I' for Inactive)
REMARK    1  A    between atoms: C_2  and  C_3 
ROOT
HETATM    1  C   LIG     1      15.231  28.261  13.740  1.00  0.00     0.014 C 
HETATM    2  C   LIG     1      15.269  29.581  13.913  1.00  0.00     0.031 C 
ENDROOT
BRANCH   2   3
HETATM    3  C   LIG     1      14.342  30.288  14.808  1.00  0.00     0.258 C 
HETATM    4  O   LIG     1      13.140  29.928  14.926  1.00  0.00    -0.302 OA
ENDBRANCH   2   3
TORSDOF 1
ENDMDL
