REMARK  2 active torsions:
REMARK  status: ('A' for Active; 'I' for Inactive)
REMARK    1  A    between atoms: C_2  and  C_4 
REMARK    2  A    between atoms: C_4  and  C_5 
ROOT
HETATM    1  C   LIG     1      -1.021  -0.489   1.163  1.00  0.00     0.009 C 
HETATM    2  C   LIG     1      -0.364   0.480   0.168  1.00  0.00    -0.022 C 
HETATM    3  C   LIG     1      -1.434   1.092  -0.745  1.00  0.00     0.009 C 
ENDROOT
BRANCH   2   4
HETATM    4  C   LIG     1       0.722  -0.216  -0.682  1.00  0.00     0.014 C 
BRANCH   4   5
HETATM    5  C   LIG     1       1.946  -0.627   0.141  1.00  0.00     0.085 C 
HETATM    6 BR   LIG     1       3.333  -1.309  -1.027  1.00  0.00    -0.096 Br
ENDBRANCH   4   5
ENDBRANCH   2   4
TORSDOF 2
