MODEL 1
REMARK VINA RESULT:      -4.4      0.000      0.000
REMARK  2 active torsions:
REMARK  status: ('A' for Active; 'I' for Inactive)
REMARK    1  A    between atoms: C_2  and  C_4 
REMARK    2  A    between atoms: C_4  and  C_5 
ROOT
HETATM    1  C   LIG     1      18.449  34.817  26.398  1.00  0.00     0.009 C 
HETATM    2  C   LIG     1      17.522  35.726  25.577  1.00  0.00    -0.022 C 
HETATM    3  C   LIG     1      17.206  35.066  24.229  1.00  0.00     0.009 C 
ENDROOT
BRANCH   2   4
HETATM    4  C   LIG     1      18.140  37.124  25.350  1.00  0.00     0.014 C 
BRANCH   4   5
HETATM    5  C   LIG     1      17.119  38.149  24.848  1.00  0.00     0.085 C 
HETATM    6 BR   LIG     1      17.464  38.573  22.989  1.00  0.00    -0.096 Br
ENDBRANCH   4   5
ENDBRANCH   2   4
TORSDOF 2
ENDMDL
MODEL 2
REMARK VINA RESULT:      -4.2      1.516      2.376
REMARK  2 active torsions:
REMARK  status: ('A' for Active; 'I' for Inactive)
REMARK    1  A    between atoms: C_2  and  C_4 
REMARK    2  A    between atoms: C_4  and  C_5 
ROOT
HETATM    1  C   LIG     1      18.288  37.118  25.566  1.00  0.00     0.009 C 
HETATM    2  C   LIG     1      17.510  35.793  25.590  1.00  0.00    -0.022 C 
HETATM    3  C   LIG     1      18.317  34.731  26.347  1.00  0.00     0.009 C 
ENDROOT
BRANCH   2   4
HETATM    4  C   LIG     1      17.181  35.292  24.166  1.00  0.00     0.014 C 
BRANCH   4   5
HETATM    5  C   LIG     1      16.921  36.435  23.181  1.00  0.00     0.085 C 
HETATM    6 BR   LIG     1      17.056  35.787  21.360  1.00  0.00    -0.096 Br
ENDBRANCH   4   5
ENDBRANCH   2   4
TORSDOF 2
ENDMDL
MODEL 3
REMARK VINA RESULT:      -4.1      2.684      3.774
REMARK  2 active torsions:
REMARK  status: ('A' for Active; 'I' for Inactive)
REMARK    1  A    between atoms: C_2  and  C_4 
REMARK    2  A    between atoms: C_4  and  C_5 
ROOT
HETATM    1  C   LIG     1      16.905  37.117  22.114  1.00  0.00     0.009 C 
HETATM    2  C   LIG     1      17.348  38.472  22.687  1.00  0.00    -0.022 C 
HETATM    3  C   LIG     1      18.290  39.172  21.699  1.00  0.00     0.009 C 
ENDROOT
BRANCH   2   4
HETATM    4  C   LIG     1      18.041  38.318  24.060  1.00  0.00     0.014 C 
BRANCH   4   5
HETATM    5  C   LIG     1      17.168  37.589  25.085  1.00  0.00     0.085 C 
HETATM    6 BR   LIG     1      18.279  36.546  26.281  1.00  0.00    -0.096 Br
ENDBRANCH   4   5
ENDBRANCH   2   4
TORSDOF 2
ENDMDL
MODEL 4
REMARK VINA RESULT:      -4.1      2.401      3.452
REMARK  2 active torsions:
REMARK  status: ('A' for Active; 'I' for Inactive)
REMARK    1  A    between atoms: C_2  and  C_4 
REMARK    2  A    between atoms: C_4  and  C_5 
ROOT
HETATM    1  C   LIG     1      16.924  38.879  22.802  1.00  0.00     0.009 C 
HETATM    2  C   LIG     1      17.397  37.567  23.447  1.00  0.00    -0.022 C 
HETATM    3  C   LIG     1      16.791  36.372  22.701  1.00  0.00     0.009 C 
ENDROOT
BRANCH   2   4
HETATM    4  C   LIG     1      17.028  37.498  24.946  1.00  0.00     0.014 C 
BRANCH   4   5
HETATM    5  C   LIG     1      18.167  36.953  25.812  1.00  0.00     0.085 C 
HETATM    6 BR   LIG     1      17.888  35.069  26.169  1.00  0.00    -0.096 Br
ENDBRANCH   4   5
ENDBRANCH   2   4
TORSDOF 2
ENDMDL
MODEL 5
REMARK VINA RESULT:      -4.0      4.420      5.235
REMARK  2 active torsions:
REMARK  status: ('A' for Active; 'I' for Inactive)
REMARK    1  A    between atoms: C_2  and  C_4 
REMARK    2  A    between atoms: C_4  and  C_5 
ROOT
HETATM    1  C   LIG     1      18.733  36.945  19.852  1.00  0.00     0.009 C 
HETATM    2  C   LIG     1      18.953  38.463  19.947  1.00  0.00    -0.022 C 
HETATM    3  C   LIG     1      20.370  38.812  19.472  1.00  0.00     0.009 C 
ENDROOT
BRANCH   2   4
HETATM    4  C   LIG     1      18.731  38.988  21.382  1.00  0.00     0.014 C 
BRANCH   4   5
HETATM    5  C   LIG     1      17.369  38.589  21.956  1.00  0.00     0.085 C 
HETATM    6 BR   LIG     1      17.536  38.178  23.841  1.00  0.00    -0.096 Br
ENDBRANCH   4   5
ENDBRANCH   2   4
TORSDOF 2
ENDMDL
MODEL 6
REMARK VINA RESULT:      -4.0      2.829      3.551
REMARK  2 active torsions:
REMARK  status: ('A' for Active; 'I' for Inactive)
REMARK    1  A    between atoms: C_2  and  C_4 
REMARK    2  A    between atoms: C_4  and  C_5 
ROOT
HETATM    1  C   LIG     1      17.091  35.211  22.102  1.00  0.00     0.009 C 
HETATM    2  C   LIG     1      17.080  36.569  21.384  1.00  0.00    -0.022 C 
HETATM    3  C   LIG     1      18.153  36.587  20.289  1.00  0.00     0.009 C 
ENDROOT
BRANCH   2   4
HETATM    4  C   LIG     1      17.305  37.741  22.365  1.00  0.00     0.014 C 
BRANCH   4   5
HETATM    5  C   LIG     1      16.403  37.663  23.600  1.00  0.00     0.085 C 
HETATM    6 BR   LIG     1      17.478  37.706  25.211  1.00  0.00    -0.096 Br
ENDBRANCH   4   5
ENDBRANCH   2   4
TORSDOF 2
ENDMDL
MODEL 7
REMARK VINA RESULT:      -4.0      3.149      4.265
REMARK  2 active torsions:
REMARK  status: ('A' for Active; 'I' for Inactive)
REMARK    1  A    between atoms: C_2  and  C_4 
REMARK    2  A    between atoms: C_4  and  C_5 
ROOT
HETATM    1  C   LIG     1      18.685  39.404  20.826  1.00  0.00     0.009 C 
HETATM    2  C   LIG     1      18.118  38.320  21.757  1.00  0.00    -0.022 C 
HETATM    3  C   LIG     1      17.800  37.056  20.949  1.00  0.00     0.009 C 
ENDROOT
BRANCH   2   4
HETATM    4  C   LIG     1      16.854  38.804  22.502  1.00  0.00     0.014 C 
BRANCH   4   5
HETATM    5  C   LIG     1      16.334  37.780  23.514  1.00  0.00     0.085 C 
HETATM    6 BR   LIG     1      17.407  37.837  25.126  1.00  0.00    -0.096 Br
ENDBRANCH   4   5
ENDBRANCH   2   4
TORSDOF 2
ENDMDL
MODEL 8
REMARK VINA RESULT:      -3.8      4.801      5.742
REMARK  2 active torsions:
REMARK  status: ('A' for Active; 'I' for Inactive)
REMARK    1  A    between atoms: C_2  and  C_4 
REMARK    2  A    between atoms: C_4  and  C_5 
ROOT
HETATM    1  C   LIG     1      18.422  39.057  21.137  1.00  0.00     0.009 C 
HETATM    2  C   LIG     1      19.110  38.176  20.082  1.00  0.00    -0.022 C 
HETATM    3  C   LIG     1      19.104  38.890  18.724  1.00  0.00     0.009 C 
ENDROOT
BRANCH   2   4
HETATM    4  C   LIG     1      18.433  36.793  19.956  1.00  0.00     0.014 C 
BRANCH   4   5
HETATM    5  C   LIG     1      17.486  36.489  21.120  1.00  0.00     0.085 C 
HETATM    6 BR   LIG     1      16.108  35.253  20.549  1.00  0.00    -0.096 Br
ENDBRANCH   4   5
ENDBRANCH   2   4
TORSDOF 2
ENDMDL
MODEL 9
REMARK VINA RESULT:      -3.7      3.014      3.721
REMARK  2 active torsions:
REMARK  status: ('A' for Active; 'I' for Inactive)
REMARK    1  A    between atoms: C_2  and  C_4 
REMARK    2  A    between atoms: C_4  and  C_5 
ROOT
HETATM    1  C   LIG     1      16.499  37.571  23.275  1.00  0.00     0.009 C 
HETATM    2  C   LIG     1      16.625  36.619  22.075  1.00  0.00    -0.022 C 
HETATM    3  C   LIG     1      16.899  35.194  22.570  1.00  0.00     0.009 C 
ENDROOT
BRANCH   2   4
HETATM    4  C   LIG     1      17.738  37.065  21.100  1.00  0.00     0.014 C 
BRANCH   4   5
HETATM    5  C   LIG     1      18.153  38.525  21.302  1.00  0.00     0.085 C 
HETATM    6 BR   LIG     1      19.545  38.999  20.041  1.00  0.00    -0.096 Br
ENDBRANCH   4   5
ENDBRANCH   2   4
TORSDOF 2
ENDMDL
MODEL 10
REMARK VINA RESULT:      -3.7      9.032     10.353
REMARK  2 active torsions:
REMARK  status: ('A' for Active; 'I' for Inactive)
REMARK    1  A    between atoms: C_2  and  C_4 
REMARK    2  A    between atoms: C_4  and  C_5 
ROOT
HETATM    1  C   LIG     1      15.226  31.455  15.096  1.00  0.00     0.009 C 
HETATM    2  C   LIG     1      14.230  30.984  16.167  1.00  0.00    -0.022 C 
HETATM    3  C   LIG     1      12.959  30.450  15.494  1.00  0.00     0.009 C 
ENDROOT
BRANCH   2   4
HETATM    4  C   LIG     1      13.870  32.114  17.156  1.00  0.00     0.014 C 
BRANCH   4   5
HETATM    5  C   LIG     1      15.066  32.566  17.999  1.00  0.00     0.085 C 
HETATM    6 BR   LIG     1      15.003  31.729  19.745  1.00  0.00    -0.096 Br
ENDBRANCH   4   5
ENDBRANCH   2   4
TORSDOF 2
ENDMDL
MODEL 11
REMARK VINA RESULT:      -3.6      2.007      2.906
REMARK  2 active torsions:
REMARK  status: ('A' for Active; 'I' for Inactive)
REMARK    1  A    between atoms: C_2  and  C_4 
REMARK    2  A    between atoms: C_4  and  C_5 
ROOT
HETATM    1  C   LIG     1      16.714  35.153  22.089  1.00  0.00     0.009 C 
HETATM    2  C   LIG     1      17.093  36.398  22.906  1.00  0.00    -0.022 C 
HETATM    3  C   LIG     1      17.179  36.036  24.394  1.00  0.00     0.009 C 
ENDROOT
BRANCH   2   4
HETATM    4  C   LIG     1      16.086  37.551  22.698  1.00  0.00     0.014 C 
BRANCH   4   5
HETATM    5  C   LIG     1      16.760  38.925  22.650  1.00  0.00     0.085 C 
HETATM    6 BR   LIG     1      18.240  38.895  21.400  1.00  0.00    -0.096 Br
ENDBRANCH   4   5
ENDBRANCH   2   4
TORSDOF 2
ENDMDL
MODEL 12
REMARK VINA RESULT:      -3.6      5.546      6.597
REMARK  2 active torsions:
REMARK  status: ('A' for Active; 'I' for Inactive)
REMARK    1  A    between atoms: C_2  and  C_4 
REMARK    2  A    between atoms: C_4  and  C_5 
ROOT
HETATM    1  C   LIG     1      15.081  32.764  18.166  1.00  0.00     0.009 C 
HETATM    2  C   LIG     1      15.559  32.440  19.590  1.00  0.00    -0.022 C 
HETATM    3  C   LIG     1      14.828  31.197  20.113  1.00  0.00     0.009 C 
ENDROOT
BRANCH   2   4
HETATM    4  C   LIG     1      15.340  33.627  20.555  1.00  0.00     0.014 C 
BRANCH   4   5
HETATM    5  C   LIG     1      15.798  34.963  19.964  1.00  0.00     0.085 C 
HETATM    6 BR   LIG     1      17.031  35.838  21.176  1.00  0.00    -0.096 Br
ENDBRANCH   4   5
ENDBRANCH   2   4
TORSDOF 2
ENDMDL
MODEL 13
REMARK VINA RESULT:      -3.5     10.933     11.709
REMARK  2 active torsions:
REMARK  status: ('A' for Active; 'I' for Inactive)
REMARK    1  A    between atoms: C_2  and  C_4 
REMARK    2  A    between atoms: C_4  and  C_5 
ROOT
HETATM    1  C   LIG     1      14.578  29.852  14.033  1.00  0.00     0.009 C 
HETATM    2  C   LIG     1      14.496  30.521  15.414  1.00  0.00    -0.022 C 
HETATM    3  C   LIG     1      13.027  30.691  15.823  1.00  0.00     0.009 C 
ENDROOT
BRANCH   2   4
HETATM    4  C   LIG     1      15.213  31.889  15.435  1.00  0.00     0.014 C 
BRANCH   4   5
HETATM    5  C   LIG     1      16.065  32.131  14.186  1.00  0.00     0.085 C 
HETATM    6 BR   LIG     1      17.548  33.304  14.611  1.00  0.00    -0.096 Br
ENDBRANCH   4   5
ENDBRANCH   2   4
TORSDOF 2
ENDMDL
MODEL 14
REMARK VINA RESULT:      -3.4      2.924      3.951
REMARK  2 active torsions:
REMARK  status: ('A' for Active; 'I' for Inactive)
REMARK    1  A    between atoms: C_2  and  C_4 
REMARK    2  A    between atoms: C_4  and  C_5 
ROOT
HETATM    1  C   LIG     1      17.482  37.537  24.107  1.00  0.00     0.009 C 
HETATM    2  C   LIG     1      16.902  37.744  22.699  1.00  0.00    -0.022 C 
HETATM    3  C   LIG     1      15.371  37.794  22.770  1.00  0.00     0.009 C 
ENDROOT
BRANCH   2   4
HETATM    4  C   LIG     1      17.351  36.636  21.722  1.00  0.00     0.014 C 
BRANCH   4   5
HETATM    5  C   LIG     1      16.932  35.236  22.181  1.00  0.00     0.085 C 
HETATM    6 BR   LIG     1      15.820  34.401  20.833  1.00  0.00    -0.096 Br
ENDBRANCH   4   5
ENDBRANCH   2   4
TORSDOF 2
ENDMDL
MODEL 15
REMARK VINA RESULT:      -3.3      9.547     10.850
REMARK  2 active torsions:
REMARK  status: ('A' for Active; 'I' for Inactive)
REMARK    1  A    between atoms: C_2  and  C_4 
REMARK    2  A    between atoms: C_4  and  C_5 
ROOT
HETATM    1  C   LIG     1      15.144  33.170  16.725  1.00  0.00     0.009 C 
HETATM    2  C   LIG     1      14.117  32.201  17.330  1.00  0.00    -0.022 C 
HETATM    3  C   LIG     1      14.594  31.734  18.711  1.00  0.00     0.009 C 
ENDROOT
BRANCH   2   4
HETATM    4  C   LIG     1      13.869  30.981  16.415  1.00  0.00     0.014 C 
BRANCH   4   5
HETATM    5  C   LIG     1      14.779  30.968  15.184  1.00  0.00     0.085 C 
HETATM    6 BR   LIG     1      14.394  29.416  14.090  1.00  0.00    -0.096 Br
ENDBRANCH   4   5
ENDBRANCH   2   4
TORSDOF 2
ENDMDL
MODEL 16
REMARK VINA RESULT:      -3.3      5.138      6.029
REMARK  2 active torsions:
REMARK  status: ('A' for Active; 'I' for Inactive)
REMARK    1  A    between atoms: C_2  and  C_4 
REMARK    2  A    between atoms: C_4  and  C_5 
ROOT
HETATM    1  C   LIG     1      15.447  36.502  21.871  1.00  0.00     0.009 C 
HETATM    2  C   LIG     1      16.397  35.524  21.162  1.00  0.00    -0.022 C 
HETATM    3  C   LIG     1      17.638  36.274  20.663  1.00  0.00     0.009 C 
ENDROOT
BRANCH   2   4
HETATM    4  C   LIG     1      15.706  34.802  19.984  1.00  0.00     0.014 C 
BRANCH   4   5
HETATM    5  C   LIG     1      15.498  33.308  20.245  1.00  0.00     0.085 C 
HETATM    6 BR   LIG     1      15.058  32.400  18.591  1.00  0.00    -0.096 Br
ENDBRANCH   4   5
ENDBRANCH   2   4
TORSDOF 2
ENDMDL
MODEL 17
REMARK VINA RESULT:      -3.2      9.229     10.190
REMARK  2 active torsions:
REMARK  status: ('A' for Active; 'I' for Inactive)
REMARK    1  A    between atoms: C_2  and  C_4 
REMARK    2  A    between atoms: C_4  and  C_5 
ROOT
HETATM    1  C   LIG     1      17.208  32.971  14.994  1.00  0.00     0.009 C 
HETATM    2  C   LIG     1      16.133  32.083  15.640  1.00  0.00    -0.022 C 
HETATM    3  C   LIG     1      15.426  31.254  14.561  1.00  0.00     0.009 C 
ENDROOT
BRANCH   2   4
HETATM    4  C   LIG     1      15.099  32.914  16.432  1.00  0.00     0.014 C 
BRANCH   4   5
HETATM    5  C   LIG     1      14.373  32.094  17.501  1.00  0.00     0.085 C 
HETATM    6 BR   LIG     1      15.237  32.330  19.219  1.00  0.00    -0.096 Br
ENDBRANCH   4   5
ENDBRANCH   2   4
TORSDOF 2
ENDMDL
MODEL 18
REMARK VINA RESULT:      -3.2     10.523     11.825
REMARK  2 active torsions:
REMARK  status: ('A' for Active; 'I' for Inactive)
REMARK    1  A    between atoms: C_2  and  C_4 
REMARK    2  A    between atoms: C_4  and  C_5 
ROOT
HETATM    1  C   LIG     1      15.543  32.772  16.204  1.00  0.00     0.009 C 
HETATM    2  C   LIG     1      16.495  32.144  15.174  1.00  0.00    -0.022 C 
HETATM    3  C   LIG     1      17.487  33.201  14.672  1.00  0.00     0.009 C 
ENDROOT
BRANCH   2   4
HETATM    4  C   LIG     1      15.729  31.528  13.982  1.00  0.00     0.014 C 
BRANCH   4   5
HETATM    5  C   LIG     1      15.346  30.065  14.217  1.00  0.00     0.085 C 
HETATM    6 BR   LIG     1      13.497  29.945  14.782  1.00  0.00    -0.096 Br
ENDBRANCH   4   5
ENDBRANCH   2   4
TORSDOF 2
ENDMDL
MODEL 19
REMARK VINA RESULT:      -3.2     12.550     13.669
REMARK  2 active torsions:
REMARK  status: ('A' for Active; 'I' for Inactive)
REMARK    1  A    between atoms: C_2  and  C_4 
REMARK    2  A    between atoms: C_4  and  C_5 
ROOT
HETATM    1  C   LIG     1      13.467  30.284  15.208  1.00  0.00     0.009 C 
HETATM    2  C   LIG     1      14.955  30.182  14.841  1.00  0.00    -0.022 C 
HETATM    3  C   LIG     1      15.570  31.586  14.770  1.00  0.00     0.009 C 
ENDROOT
BRANCH   2   4
HETATM    4  C   LIG     1      15.169  29.443  13.502  1.00  0.00     0.014 C 
BRANCH   4   5
HETATM    5  C   LIG     1      15.303  27.927  13.676  1.00  0.00     0.085 C 
HETATM    6 BR   LIG     1      15.992  27.130  12.051  1.00  0.00    -0.096 Br
ENDBRANCH   4   5
ENDBRANCH   2   4
TORSDOF 2
ENDMDL
MODEL 20
REMARK VINA RESULT:      -3.1     10.152     11.390
REMARK  2 active torsions:
REMARK  status: ('A' for Active; 'I' for Inactive)
REMARK    1  A    between atoms: C_2  and  C_4 
REMARK    2  A    between atoms: C_4  and  C_5 
ROOT
HETATM    1  C   LIG     1      15.581  30.954  13.536  1.00  0.00     0.009 C 
HETATM    2  C   LIG     1      15.951  32.330  14.109  1.00  0.00    -0.022 C 
HETATM    3  C   LIG     1      17.145  32.910  13.341  1.00  0.00     0.009 C 
ENDROOT
BRANCH   2   4
HETATM    4  C   LIG     1      16.276  32.257  15.617  1.00  0.00     0.014 C 
BRANCH   4   5
HETATM    5  C   LIG     1      15.207  32.924  16.488  1.00  0.00     0.085 C 
HETATM    6 BR   LIG     1      13.803  31.655  16.902  1.00  0.00    -0.096 Br
ENDBRANCH   4   5
ENDBRANCH   2   4
TORSDOF 2
ENDMDL
