REMARK  1 active torsions:
REMARK  status: ('A' for Active; 'I' for Inactive)
REMARK    1  A    between atoms: C_2  and  C_3 
ROOT
HETATM    1  C   LIG     1      -1.295   0.256  -0.527  1.00  0.00     0.008 C 
HETATM    2  C   LIG     1      -0.124   0.546   0.045  1.00  0.00    -0.022 C 
ENDROOT
BRANCH   2   3
HETATM    3  C   LIG     1       0.894  -0.525   0.300  1.00  0.00     0.141 C 
HETATM    4 CL   LIG     1       2.345   0.166   1.069  1.00  0.00    -0.126 Cl
ENDBRANCH   2   3
TORSDOF 1
