MODEL 1
REMARK VINA RESULT:      -3.5      0.000      0.000
REMARK  1 active torsions:
REMARK  status: ('A' for Active; 'I' for Inactive)
REMARK    1  A    between atoms: C_2  and  C_3 
ROOT
HETATM    1  I   LIG     1      17.502  37.795  25.043  1.00  0.00    -0.090 I 
HETATM    2  C   LIG     1      18.410  36.591  26.565  1.00  0.00     0.079 C 
ENDROOT
BRANCH   2   3
HETATM    3  C   LIG     1      18.233  35.096  26.293  1.00  0.00     0.006 C 
HETATM    4  C   LIG     1      17.322  34.831  25.095  1.00  0.00     0.006 C 
ENDBRANCH   2   3
TORSDOF 1
ENDMDL
MODEL 2
REMARK VINA RESULT:      -3.4      0.587      1.759
REMARK  1 active torsions:
REMARK  status: ('A' for Active; 'I' for Inactive)
REMARK    1  A    between atoms: C_2  and  C_3 
ROOT
HETATM    1  I   LIG     1      17.322  37.667  24.640  1.00  0.00    -0.090 I 
HETATM    2  C   LIG     1      17.259  35.527  24.727  1.00  0.00     0.079 C 
ENDROOT
BRANCH   2   3
HETATM    3  C   LIG     1      17.896  34.988  26.010  1.00  0.00     0.006 C 
HETATM    4  C   LIG     1      18.476  36.103  26.879  1.00  0.00     0.006 C 
ENDBRANCH   2   3
TORSDOF 1
ENDMDL
MODEL 3
REMARK VINA RESULT:      -3.0      5.926      6.148
REMARK  1 active torsions:
REMARK  status: ('A' for Active; 'I' for Inactive)
REMARK    1  A    between atoms: C_2  and  C_3 
ROOT
HETATM    1  I   LIG     1      17.790  38.631  21.928  1.00  0.00    -0.090 I 
HETATM    2  C   LIG     1      19.205  39.309  20.469  1.00  0.00     0.079 C 
ENDROOT
BRANCH   2   3
HETATM    3  C   LIG     1      19.392  38.295  19.339  1.00  0.00     0.006 C 
HETATM    4  C   LIG     1      18.904  36.900  19.728  1.00  0.00     0.006 C 
ENDBRANCH   2   3
TORSDOF 1
ENDMDL
MODEL 4
REMARK VINA RESULT:      -2.9      4.004      4.374
REMARK  1 active torsions:
REMARK  status: ('A' for Active; 'I' for Inactive)
REMARK    1  A    between atoms: C_2  and  C_3 
ROOT
HETATM    1  I   LIG     1      17.431  37.718  24.956  1.00  0.00    -0.090 I 
HETATM    2  C   LIG     1      16.453  37.966  23.066  1.00  0.00     0.079 C 
ENDROOT
BRANCH   2   3
HETATM    3  C   LIG     1      17.437  37.881  21.897  1.00  0.00     0.006 C 
HETATM    4  C   LIG     1      18.261  39.158  21.743  1.00  0.00     0.006 C 
ENDBRANCH   2   3
TORSDOF 1
ENDMDL
MODEL 5
REMARK VINA RESULT:      -2.9      4.272      4.568
REMARK  1 active torsions:
REMARK  status: ('A' for Active; 'I' for Inactive)
REMARK    1  A    between atoms: C_2  and  C_3 
ROOT
HETATM    1  I   LIG     1      18.746  38.996  20.876  1.00  0.00    -0.090 I 
HETATM    2  C   LIG     1      17.364  37.655  21.816  1.00  0.00     0.079 C 
ENDROOT
BRANCH   2   3
HETATM    3  C   LIG     1      17.321  36.295  21.116  1.00  0.00     0.006 C 
HETATM    4  C   LIG     1      16.996  35.159  22.084  1.00  0.00     0.006 C 
ENDBRANCH   2   3
TORSDOF 1
ENDMDL
MODEL 6
REMARK VINA RESULT:      -2.9      5.422      5.601
REMARK  1 active torsions:
REMARK  status: ('A' for Active; 'I' for Inactive)
REMARK    1  A    between atoms: C_2  and  C_3 
ROOT
HETATM    1  I   LIG     1      19.732  38.709  19.544  1.00  0.00    -0.090 I 
HETATM    2  C   LIG     1      18.610  39.363  21.248  1.00  0.00     0.079 C 
ENDROOT
BRANCH   2   3
HETATM    3  C   LIG     1      17.660  38.277  21.758  1.00  0.00     0.006 C 
HETATM    4  C   LIG     1      16.588  38.840  22.690  1.00  0.00     0.006 C 
ENDBRANCH   2   3
TORSDOF 1
ENDMDL
MODEL 7
REMARK VINA RESULT:      -2.8      5.190      5.631
REMARK  1 active torsions:
REMARK  status: ('A' for Active; 'I' for Inactive)
REMARK    1  A    between atoms: C_2  and  C_3 
ROOT
HETATM    1  I   LIG     1      16.508  35.462  21.489  1.00  0.00    -0.090 I 
HETATM    2  C   LIG     1      17.916  36.878  20.712  1.00  0.00     0.079 C 
ENDROOT
BRANCH   2   3
HETATM    3  C   LIG     1      17.866  38.208  21.468  1.00  0.00     0.006 C 
HETATM    4  C   LIG     1      18.744  39.275  20.817  1.00  0.00     0.006 C 
ENDBRANCH   2   3
TORSDOF 1
ENDMDL
MODEL 8
REMARK VINA RESULT:      -2.7      9.303     10.167
REMARK  1 active torsions:
REMARK  status: ('A' for Active; 'I' for Inactive)
REMARK    1  A    between atoms: C_2  and  C_3 
ROOT
HETATM    1  I   LIG     1      15.186  32.071  19.589  1.00  0.00    -0.090 I 
HETATM    2  C   LIG     1      14.787  32.419  17.513  1.00  0.00     0.079 C 
ENDROOT
BRANCH   2   3
HETATM    3  C   LIG     1      13.490  31.746  17.059  1.00  0.00     0.006 C 
HETATM    4  C   LIG     1      13.714  30.799  15.881  1.00  0.00     0.006 C 
ENDBRANCH   2   3
TORSDOF 1
ENDMDL
MODEL 9
REMARK VINA RESULT:      -2.6     12.227     12.702
REMARK  1 active torsions:
REMARK  status: ('A' for Active; 'I' for Inactive)
REMARK    1  A    between atoms: C_2  and  C_3 
ROOT
HETATM    1  I   LIG     1      16.409  32.392  15.081  1.00  0.00    -0.090 I 
HETATM    2  C   LIG     1      15.542  31.109  13.600  1.00  0.00     0.079 C 
ENDROOT
BRANCH   2   3
HETATM    3  C   LIG     1      14.698  29.999  14.229  1.00  0.00     0.006 C 
HETATM    4  C   LIG     1      13.823  30.516  15.370  1.00  0.00     0.006 C 
ENDBRANCH   2   3
TORSDOF 1
ENDMDL
MODEL 10
REMARK VINA RESULT:      -2.6     13.024     13.097
REMARK  1 active torsions:
REMARK  status: ('A' for Active; 'I' for Inactive)
REMARK    1  A    between atoms: C_2  and  C_3 
ROOT
HETATM    1  I   LIG     1      13.479  31.033  16.323  1.00  0.00    -0.090 I 
HETATM    2  C   LIG     1      13.715  29.775  14.606  1.00  0.00     0.079 C 
ENDROOT
BRANCH   2   3
HETATM    3  C   LIG     1      15.152  29.785  14.082  1.00  0.00     0.006 C 
HETATM    4  C   LIG     1      15.564  31.157  13.552  1.00  0.00     0.006 C 
ENDBRANCH   2   3
TORSDOF 1
ENDMDL
MODEL 11
REMARK VINA RESULT:      -2.6     10.631     11.563
REMARK  1 active torsions:
REMARK  status: ('A' for Active; 'I' for Inactive)
REMARK    1  A    between atoms: C_2  and  C_3 
ROOT
HETATM    1  I   LIG     1      14.937  32.851  16.887  1.00  0.00    -0.090 I 
HETATM    2  C   LIG     1      13.770  31.064  17.073  1.00  0.00     0.079 C 
ENDROOT
BRANCH   2   3
HETATM    3  C   LIG     1      13.189  30.618  15.730  1.00  0.00     0.006 C 
HETATM    4  C   LIG     1      14.274  30.172  14.752  1.00  0.00     0.006 C 
ENDBRANCH   2   3
TORSDOF 1
ENDMDL
MODEL 12
REMARK VINA RESULT:      -2.6      3.226      3.813
REMARK  1 active torsions:
REMARK  status: ('A' for Active; 'I' for Inactive)
REMARK    1  A    between atoms: C_2  and  C_3 
ROOT
HETATM    1  I   LIG     1      16.017  35.595  21.447  1.00  0.00    -0.090 I 
HETATM    2  C   LIG     1      17.050  36.162  23.236  1.00  0.00     0.079 C 
ENDROOT
BRANCH   2   3
HETATM    3  C   LIG     1      16.595  37.529  23.750  1.00  0.00     0.006 C 
HETATM    4  C   LIG     1      17.405  37.988  24.962  1.00  0.00     0.006 C 
ENDBRANCH   2   3
TORSDOF 1
ENDMDL
MODEL 13
REMARK VINA RESULT:      -2.6     14.292     14.685
REMARK  1 active torsions:
REMARK  status: ('A' for Active; 'I' for Inactive)
REMARK    1  A    between atoms: C_2  and  C_3 
ROOT
HETATM    1  I   LIG     1      20.651  32.176  10.417  1.00  0.00    -0.090 I 
HETATM    2  C   LIG     1      20.627  34.113  11.330  1.00  0.00     0.079 C 
ENDROOT
BRANCH   2   3
HETATM    3  C   LIG     1      21.144  34.073  12.770  1.00  0.00     0.006 C 
HETATM    4  C   LIG     1      22.324  35.019  12.986  1.00  0.00     0.006 C 
ENDBRANCH   2   3
TORSDOF 1
ENDMDL
MODEL 14
REMARK VINA RESULT:      -2.5     11.113     11.996
REMARK  1 active torsions:
REMARK  status: ('A' for Active; 'I' for Inactive)
REMARK    1  A    between atoms: C_2  and  C_3 
ROOT
HETATM    1  I   LIG     1      16.100  32.162  15.081  1.00  0.00    -0.090 I 
HETATM    2  C   LIG     1      14.811  30.497  14.685  1.00  0.00     0.079 C 
ENDROOT
BRANCH   2   3
HETATM    3  C   LIG     1      13.548  30.533  15.548  1.00  0.00     0.006 C 
HETATM    4  C   LIG     1      13.750  31.337  16.831  1.00  0.00     0.006 C 
ENDBRANCH   2   3
TORSDOF 1
ENDMDL
MODEL 15
REMARK VINA RESULT:      -2.5      3.422      3.956
REMARK  1 active torsions:
REMARK  status: ('A' for Active; 'I' for Inactive)
REMARK    1  A    between atoms: C_2  and  C_3 
ROOT
HETATM    1  I   LIG     1      15.865  35.069  21.087  1.00  0.00    -0.090 I 
HETATM    2  C   LIG     1      16.884  36.740  21.959  1.00  0.00     0.079 C 
ENDROOT
BRANCH   2   3
HETATM    3  C   LIG     1      16.982  36.620  23.481  1.00  0.00     0.006 C 
HETATM    4  C   LIG     1      17.130  35.169  23.937  1.00  0.00     0.006 C 
ENDBRANCH   2   3
TORSDOF 1
ENDMDL
MODEL 16
REMARK VINA RESULT:      -2.5      6.018      6.486
REMARK  1 active torsions:
REMARK  status: ('A' for Active; 'I' for Inactive)
REMARK    1  A    between atoms: C_2  and  C_3 
ROOT
HETATM    1  I   LIG     1      16.678  35.485  21.731  1.00  0.00    -0.090 I 
HETATM    2  C   LIG     1      15.663  34.630  20.049  1.00  0.00     0.079 C 
ENDROOT
BRANCH   2   3
HETATM    3  C   LIG     1      15.448  33.124  20.217  1.00  0.00     0.006 C 
HETATM    4  C   LIG     1      15.215  32.422  18.880  1.00  0.00     0.006 C 
ENDBRANCH   2   3
TORSDOF 1
ENDMDL
MODEL 17
REMARK VINA RESULT:      -2.5     12.267     12.333
REMARK  1 active torsions:
REMARK  status: ('A' for Active; 'I' for Inactive)
REMARK    1  A    between atoms: C_2  and  C_3 
ROOT
HETATM    1  I   LIG     1      29.916  38.956  21.085  1.00  0.00    -0.090 I 
HETATM    2  C   LIG     1      28.145  39.172  19.899  1.00  0.00     0.079 C 
ENDROOT
BRANCH   2   3
HETATM    3  C   LIG     1      27.664  37.831  19.340  1.00  0.00     0.006 C 
HETATM    4  C   LIG     1      26.722  38.006  18.150  1.00  0.00     0.006 C 
ENDBRANCH   2   3
TORSDOF 1
ENDMDL
MODEL 18
REMARK VINA RESULT:      -2.5      8.825      9.393
REMARK  1 active torsions:
REMARK  status: ('A' for Active; 'I' for Inactive)
REMARK    1  A    between atoms: C_2  and  C_3 
ROOT
HETATM    1  I   LIG     1      15.586  32.285  15.822  1.00  0.00    -0.090 I 
HETATM    2  C   LIG     1      14.397  32.029  17.586  1.00  0.00     0.079 C 
ENDROOT
BRANCH   2   3
HETATM    3  C   LIG     1      15.190  32.330  18.859  1.00  0.00     0.006 C 
HETATM    4  C   LIG     1      14.851  31.362  19.992  1.00  0.00     0.006 C 
ENDBRANCH   2   3
TORSDOF 1
ENDMDL
MODEL 19
REMARK VINA RESULT:      -2.4     11.314     12.120
REMARK  1 active torsions:
REMARK  status: ('A' for Active; 'I' for Inactive)
REMARK    1  A    between atoms: C_2  and  C_3 
ROOT
HETATM    1  I   LIG     1      15.072  30.069  14.094  1.00  0.00    -0.090 I 
HETATM    2  C   LIG     1      15.988  32.000  13.948  1.00  0.00     0.079 C 
ENDROOT
BRANCH   2   3
HETATM    3  C   LIG     1      16.559  32.465  15.289  1.00  0.00     0.006 C 
HETATM    4  C   LIG     1      15.463  32.859  16.277  1.00  0.00     0.006 C 
ENDBRANCH   2   3
TORSDOF 1
ENDMDL
MODEL 20
REMARK VINA RESULT:      -2.3     12.467     13.219
REMARK  1 active torsions:
REMARK  status: ('A' for Active; 'I' for Inactive)
REMARK    1  A    between atoms: C_2  and  C_3 
ROOT
HETATM    1  I   LIG     1      15.210  28.382  13.650  1.00  0.00    -0.090 I 
HETATM    2  C   LIG     1      14.661  30.292  14.451  1.00  0.00     0.079 C 
ENDROOT
BRANCH   2   3
HETATM    3  C   LIG     1      13.328  30.236  15.201  1.00  0.00     0.006 C 
HETATM    4  C   LIG     1      13.354  31.062  16.485  1.00  0.00     0.006 C 
ENDBRANCH   2   3
TORSDOF 1
ENDMDL
