MODEL 1
REMARK VINA RESULT:      -3.8      0.000      0.000
REMARK  0 active torsions:
REMARK  status: ('A' for Active; 'I' for Inactive)
ROOT
HETATM    1  C   LIG     1      18.069  35.087  26.219  1.00  0.00     0.022 C 
HETATM    2  C   LIG     1      18.355  36.379  26.341  1.00  0.00     0.083 C 
HETATM    3  C   LIG     1      17.547  37.376  25.692  1.00  0.00     0.087 C 
HETATM    4  N   LIG     1      16.899  38.180  25.170  1.00  0.00    -0.192 NA
ENDROOT
TORSDOF 0
ENDMDL
MODEL 2
REMARK VINA RESULT:      -3.1      5.572      6.072
REMARK  0 active torsions:
REMARK  status: ('A' for Active; 'I' for Inactive)
ROOT
HETATM    1  C   LIG     1      17.770  38.089  21.504  1.00  0.00     0.022 C 
HETATM    2  C   LIG     1      18.439  39.206  21.242  1.00  0.00     0.083 C 
HETATM    3  C   LIG     1      19.488  39.223  20.259  1.00  0.00     0.087 C 
HETATM    4  N   LIG     1      20.333  39.238  19.468  1.00  0.00    -0.192 NA
ENDROOT
TORSDOF 0
ENDMDL
MODEL 3
REMARK VINA RESULT:      -3.0      3.267      4.114
REMARK  0 active torsions:
REMARK  status: ('A' for Active; 'I' for Inactive)
ROOT
HETATM    1  C   LIG     1      18.306  39.158  21.791  1.00  0.00     0.022 C 
HETATM    2  C   LIG     1      17.406  38.202  21.991  1.00  0.00     0.083 C 
HETATM    3  C   LIG     1      16.743  38.069  23.261  1.00  0.00     0.087 C 
HETATM    4  N   LIG     1      16.210  37.960  24.282  1.00  0.00    -0.192 NA
ENDROOT
TORSDOF 0
ENDMDL
MODEL 4
REMARK VINA RESULT:      -3.0      2.794      3.044
REMARK  0 active torsions:
REMARK  status: ('A' for Active; 'I' for Inactive)
ROOT
HETATM    1  C   LIG     1      16.881  35.262  22.578  1.00  0.00     0.022 C 
HETATM    2  C   LIG     1      16.867  36.588  22.499  1.00  0.00     0.083 C 
HETATM    3  C   LIG     1      16.666  37.393  23.673  1.00  0.00     0.087 C 
HETATM    4  N   LIG     1      16.503  38.043  24.617  1.00  0.00    -0.192 NA
ENDROOT
TORSDOF 0
ENDMDL
MODEL 5
REMARK VINA RESULT:      -2.8      5.357      5.948
REMARK  0 active torsions:
REMARK  status: ('A' for Active; 'I' for Inactive)
ROOT
HETATM    1  C   LIG     1      20.176  38.793  19.619  1.00  0.00     0.022 C 
HETATM    2  C   LIG     1      19.060  39.335  20.093  1.00  0.00     0.083 C 
HETATM    3  C   LIG     1      18.630  39.076  21.441  1.00  0.00     0.087 C 
HETATM    4  N   LIG     1      18.283  38.867  22.525  1.00  0.00    -0.192 NA
ENDROOT
TORSDOF 0
ENDMDL
MODEL 6
REMARK VINA RESULT:      -2.8     11.574     11.647
REMARK  0 active torsions:
REMARK  status: ('A' for Active; 'I' for Inactive)
ROOT
HETATM    1  C   LIG     1      16.585  43.692  35.036  1.00  0.00     0.022 C 
HETATM    2  C   LIG     1      15.366  44.101  34.700  1.00  0.00     0.083 C 
HETATM    3  C   LIG     1      15.178  45.085  33.668  1.00  0.00     0.087 C 
HETATM    4  N   LIG     1      15.025  45.877  32.839  1.00  0.00    -0.192 NA
ENDROOT
TORSDOF 0
ENDMDL
MODEL 7
REMARK VINA RESULT:      -2.8     10.105     10.274
REMARK  0 active torsions:
REMARK  status: ('A' for Active; 'I' for Inactive)
ROOT
HETATM    1  C   LIG     1      13.832  31.363  16.676  1.00  0.00     0.022 C 
HETATM    2  C   LIG     1      14.410  32.238  17.491  1.00  0.00     0.083 C 
HETATM    3  C   LIG     1      15.018  33.435  16.975  1.00  0.00     0.087 C 
HETATM    4  N   LIG     1      15.508  34.398  16.561  1.00  0.00    -0.192 NA
ENDROOT
TORSDOF 0
ENDMDL
MODEL 8
REMARK VINA RESULT:      -2.8      1.829      2.692
REMARK  0 active torsions:
REMARK  status: ('A' for Active; 'I' for Inactive)
ROOT
HETATM    1  C   LIG     1      17.653  38.213  23.943  1.00  0.00     0.022 C 
HETATM    2  C   LIG     1      17.156  37.881  25.129  1.00  0.00     0.083 C 
HETATM    3  C   LIG     1      17.906  37.056  26.037  1.00  0.00     0.087 C 
HETATM    4  N   LIG     1      18.509  36.392  26.768  1.00  0.00    -0.192 NA
ENDROOT
TORSDOF 0
ENDMDL
MODEL 9
REMARK VINA RESULT:      -2.8     13.270     13.546
REMARK  0 active torsions:
REMARK  status: ('A' for Active; 'I' for Inactive)
ROOT
HETATM    1  C   LIG     1      13.506  30.416  15.364  1.00  0.00     0.022 C 
HETATM    2  C   LIG     1      14.324  29.948  14.428  1.00  0.00     0.083 C 
HETATM    3  C   LIG     1      15.323  30.794  13.834  1.00  0.00     0.087 C 
HETATM    4  N   LIG     1      16.128  31.475  13.355  1.00  0.00    -0.192 NA
ENDROOT
TORSDOF 0
ENDMDL
MODEL 10
REMARK VINA RESULT:      -2.8      6.122      6.616
REMARK  0 active torsions:
REMARK  status: ('A' for Active; 'I' for Inactive)
ROOT
HETATM    1  C   LIG     1      20.350  38.885  19.365  1.00  0.00     0.022 C 
HETATM    2  C   LIG     1      19.354  38.586  20.191  1.00  0.00     0.083 C 
HETATM    3  C   LIG     1      18.635  37.348  20.060  1.00  0.00     0.087 C 
HETATM    4  N   LIG     1      18.055  36.352  19.955  1.00  0.00    -0.192 NA
ENDROOT
TORSDOF 0
ENDMDL
MODEL 11
REMARK VINA RESULT:      -2.8      5.255      5.404
REMARK  0 active torsions:
REMARK  status: ('A' for Active; 'I' for Inactive)
ROOT
HETATM    1  C   LIG     1      16.764  35.107  21.748  1.00  0.00     0.022 C 
HETATM    2  C   LIG     1      17.221  36.314  21.434  1.00  0.00     0.083 C 
HETATM    3  C   LIG     1      18.059  36.507  20.282  1.00  0.00     0.087 C 
HETATM    4  N   LIG     1      18.734  36.664  19.355  1.00  0.00    -0.192 NA
ENDROOT
TORSDOF 0
ENDMDL
MODEL 12
REMARK VINA RESULT:      -2.7     12.592     12.868
REMARK  0 active torsions:
REMARK  status: ('A' for Active; 'I' for Inactive)
ROOT
HETATM    1  C   LIG     1      14.803  29.574  14.203  1.00  0.00     0.022 C 
HETATM    2  C   LIG     1      14.602  30.672  14.922  1.00  0.00     0.083 C 
HETATM    3  C   LIG     1      13.559  30.724  15.910  1.00  0.00     0.087 C 
HETATM    4  N   LIG     1      12.719  30.767  16.706  1.00  0.00    -0.192 NA
ENDROOT
TORSDOF 0
ENDMDL
MODEL 13
REMARK VINA RESULT:      -2.7      8.613      8.932
REMARK  0 active torsions:
REMARK  status: ('A' for Active; 'I' for Inactive)
ROOT
HETATM    1  C   LIG     1      15.532  33.267  20.154  1.00  0.00     0.022 C 
HETATM    2  C   LIG     1      15.340  32.011  19.766  1.00  0.00     0.083 C 
HETATM    3  C   LIG     1      14.515  31.709  18.628  1.00  0.00     0.087 C 
HETATM    4  N   LIG     1      13.851  31.466  17.712  1.00  0.00    -0.192 NA
ENDROOT
TORSDOF 0
ENDMDL
MODEL 14
REMARK VINA RESULT:      -2.7      5.131      5.363
REMARK  0 active torsions:
REMARK  status: ('A' for Active; 'I' for Inactive)
ROOT
HETATM    1  C   LIG     1      17.466  36.190  20.826  1.00  0.00     0.022 C 
HETATM    2  C   LIG     1      17.020  35.356  21.759  1.00  0.00     0.083 C 
HETATM    3  C   LIG     1      15.733  34.728  21.631  1.00  0.00     0.087 C 
HETATM    4  N   LIG     1      14.697  34.223  21.529  1.00  0.00    -0.192 NA
ENDROOT
TORSDOF 0
ENDMDL
MODEL 15
REMARK VINA RESULT:      -2.6     14.068     14.407
REMARK  0 active torsions:
REMARK  status: ('A' for Active; 'I' for Inactive)
ROOT
HETATM    1  C   LIG     1      14.264  30.516  15.017  1.00  0.00     0.022 C 
HETATM    2  C   LIG     1      15.136  30.071  14.120  1.00  0.00     0.083 C 
HETATM    3  C   LIG     1      15.264  28.663  13.854  1.00  0.00     0.087 C 
HETATM    4  N   LIG     1      15.369  27.531  13.640  1.00  0.00    -0.192 NA
ENDROOT
TORSDOF 0
ENDMDL
MODEL 16
REMARK VINA RESULT:      -2.6     11.573     11.794
REMARK  0 active torsions:
REMARK  status: ('A' for Active; 'I' for Inactive)
ROOT
HETATM    1  C   LIG     1      15.148  45.759  33.149  1.00  0.00     0.022 C 
HETATM    2  C   LIG     1      16.324  45.211  33.433  1.00  0.00     0.083 C 
HETATM    3  C   LIG     1      16.437  44.197  34.447  1.00  0.00     0.087 C 
HETATM    4  N   LIG     1      16.530  43.382  35.263  1.00  0.00    -0.192 NA
ENDROOT
TORSDOF 0
ENDMDL
MODEL 17
REMARK VINA RESULT:      -2.6      5.771      6.098
REMARK  0 active torsions:
REMARK  status: ('A' for Active; 'I' for Inactive)
ROOT
HETATM    1  C   LIG     1      19.126  36.968  19.521  1.00  0.00     0.022 C 
HETATM    2  C   LIG     1      18.199  36.868  20.467  1.00  0.00     0.083 C 
HETATM    3  C   LIG     1      17.134  35.909  20.356  1.00  0.00     0.087 C 
HETATM    4  N   LIG     1      16.276  35.137  20.268  1.00  0.00    -0.192 NA
ENDROOT
TORSDOF 0
ENDMDL
MODEL 18
REMARK VINA RESULT:      -2.6     18.276     18.838
REMARK  0 active torsions:
REMARK  status: ('A' for Active; 'I' for Inactive)
ROOT
HETATM    1  C   LIG     1       4.319  44.519  14.266  1.00  0.00     0.022 C 
HETATM    2  C   LIG     1       3.293  44.112  15.004  1.00  0.00     0.083 C 
HETATM    3  C   LIG     1       3.498  43.259  16.144  1.00  0.00     0.087 C 
HETATM    4  N   LIG     1       3.662  42.573  17.061  1.00  0.00    -0.192 NA
ENDROOT
TORSDOF 0
ENDMDL
MODEL 19
REMARK VINA RESULT:      -2.6     11.674     11.884
REMARK  0 active torsions:
REMARK  status: ('A' for Active; 'I' for Inactive)
ROOT
HETATM    1  C   LIG     1      14.276  30.663  15.278  1.00  0.00     0.022 C 
HETATM    2  C   LIG     1      15.371  31.258  14.819  1.00  0.00     0.083 C 
HETATM    3  C   LIG     1      15.807  32.517  15.363  1.00  0.00     0.087 C 
HETATM    4  N   LIG     1      16.158  33.529  15.799  1.00  0.00    -0.192 NA
ENDROOT
TORSDOF 0
ENDMDL
MODEL 20
REMARK VINA RESULT:      -2.5     12.324     12.614
REMARK  0 active torsions:
REMARK  status: ('A' for Active; 'I' for Inactive)
ROOT
HETATM    1  C   LIG     1      13.921  31.546  17.204  1.00  0.00     0.022 C 
HETATM    2  C   LIG     1      13.271  30.954  16.209  1.00  0.00     0.083 C 
HETATM    3  C   LIG     1      13.984  30.403  15.088  1.00  0.00     0.087 C 
HETATM    4  N   LIG     1      14.557  29.960  14.185  1.00  0.00    -0.192 NA
ENDROOT
TORSDOF 0
ENDMDL
