REMARK  3 active torsions:
REMARK  status: ('A' for Active; 'I' for Inactive)
REMARK    1  A    between atoms: O_1  and  C_2 
REMARK    2  A    between atoms: C_2  and  C_3 
REMARK    3  A    between atoms: C_3  and  C_4 
ROOT
HETATM    1  C   LIG     1       1.212  -0.768  -0.785  1.00  0.00     0.139 C 
HETATM    2  O   LIG     1       1.181  -1.177  -1.976  1.00  0.00    -0.650 OA
ENDROOT
BRANCH   1   3
HETATM    3  O   LIG     1       1.644  -1.627   0.222  1.00  0.00    -0.776 OA
HETATM    4  H   LIG     1       1.663  -1.333   1.191  1.00  0.00     0.167 HD
ENDBRANCH   1   3
BRANCH   1   5
HETATM    5  C   LIG     1       0.749   0.622  -0.459  1.00  0.00     0.109 C 
BRANCH   5   6
HETATM    6  C   LIG     1      -0.779   0.699  -0.341  1.00  0.00     0.006 C 
HETATM    7  C   LIG     1      -1.306  -0.049   0.883  1.00  0.00     0.005 C 
ENDBRANCH   5   6
ENDBRANCH   1   5
TORSDOF 3
