MODEL 1
REMARK VINA RESULT:      -4.6      0.000      0.000
REMARK  3 active torsions:
REMARK  status: ('A' for Active; 'I' for Inactive)
REMARK    1  A    between atoms: O_1  and  C_2 
REMARK    2  A    between atoms: C_2  and  C_3 
REMARK    3  A    between atoms: C_3  and  C_4 
ROOT
HETATM    1  C   LIG     1      17.250  38.115  25.274  1.00  0.00     0.139 C 
HETATM    2  O   LIG     1      16.290  37.804  24.520  1.00  0.00    -0.650 OA
ENDROOT
BRANCH   1   3
HETATM    3  O   LIG     1      17.238  39.347  25.923  1.00  0.00    -0.776 OA
HETATM    4  H   LIG     1      16.665  39.503  26.743  1.00  0.00     0.167 HD
ENDBRANCH   1   3
BRANCH   1   5
HETATM    5  C   LIG     1      18.409  37.176  25.436  1.00  0.00     0.109 C 
BRANCH   5   6
HETATM    6  C   LIG     1      18.235  36.262  26.656  1.00  0.00     0.006 C 
HETATM    7  C   LIG     1      18.084  34.792  26.265  1.00  0.00     0.005 C 
ENDBRANCH   5   6
ENDBRANCH   1   5
TORSDOF 3
ENDMDL
MODEL 2
REMARK VINA RESULT:      -4.3      1.501      1.868
REMARK  3 active torsions:
REMARK  status: ('A' for Active; 'I' for Inactive)
REMARK    1  A    between atoms: O_1  and  C_2 
REMARK    2  A    between atoms: C_2  and  C_3 
REMARK    3  A    between atoms: C_3  and  C_4 
ROOT
HETATM    1  C   LIG     1      16.582  37.491  24.123  1.00  0.00     0.139 C 
HETATM    2  O   LIG     1      17.110  36.605  23.400  1.00  0.00    -0.650 OA
ENDROOT
BRANCH   1   3
HETATM    3  O   LIG     1      15.380  38.071  23.726  1.00  0.00    -0.776 OA
HETATM    4  H   LIG     1      15.360  38.845  23.073  1.00  0.00     0.167 HD
ENDBRANCH   1   3
BRANCH   1   5
HETATM    5  C   LIG     1      17.270  37.940  25.379  1.00  0.00     0.109 C 
BRANCH   5   6
HETATM    6  C   LIG     1      18.512  37.090  25.681  1.00  0.00     0.006 C 
HETATM    7  C   LIG     1      18.256  36.059  26.780  1.00  0.00     0.005 C 
ENDBRANCH   5   6
ENDBRANCH   1   5
TORSDOF 3
ENDMDL
MODEL 3
REMARK VINA RESULT:      -4.0      3.223      4.470
REMARK  3 active torsions:
REMARK  status: ('A' for Active; 'I' for Inactive)
REMARK    1  A    between atoms: O_1  and  C_2 
REMARK    2  A    between atoms: C_2  and  C_3 
REMARK    3  A    between atoms: C_3  and  C_4 
ROOT
HETATM    1  C   LIG     1      16.462  38.251  23.193  1.00  0.00     0.139 C 
HETATM    2  O   LIG     1      16.921  38.519  24.335  1.00  0.00    -0.650 OA
ENDROOT
BRANCH   1   3
HETATM    3  O   LIG     1      15.089  38.087  23.029  1.00  0.00    -0.776 OA
HETATM    4  H   LIG     1      14.428  38.716  23.469  1.00  0.00     0.167 HD
ENDBRANCH   1   3
BRANCH   1   5
HETATM    5  C   LIG     1      17.397  38.073  22.033  1.00  0.00     0.109 C 
BRANCH   5   6
HETATM    6  C   LIG     1      18.362  39.258  21.895  1.00  0.00     0.006 C 
HETATM    7  C   LIG     1      19.025  39.312  20.519  1.00  0.00     0.005 C 
ENDBRANCH   5   6
ENDBRANCH   1   5
TORSDOF 3
ENDMDL
MODEL 4
REMARK VINA RESULT:      -4.0      6.088      6.497
REMARK  3 active torsions:
REMARK  status: ('A' for Active; 'I' for Inactive)
REMARK    1  A    between atoms: O_1  and  C_2 
REMARK    2  A    between atoms: C_2  and  C_3 
REMARK    3  A    between atoms: C_3  and  C_4 
ROOT
HETATM    1  C   LIG     1      19.555  38.934  19.068  1.00  0.00     0.139 C 
HETATM    2  O   LIG     1      18.629  39.711  18.713  1.00  0.00    -0.650 OA
ENDROOT
BRANCH   1   3
HETATM    3  O   LIG     1      20.875  39.372  19.011  1.00  0.00    -0.776 OA
HETATM    4  H   LIG     1      21.615  38.767  18.676  1.00  0.00     0.167 HD
ENDBRANCH   1   3
BRANCH   1   5
HETATM    5  C   LIG     1      19.230  37.537  19.510  1.00  0.00     0.109 C 
BRANCH   5   6
HETATM    6  C   LIG     1      18.256  37.528  20.696  1.00  0.00     0.006 C 
HETATM    7  C   LIG     1      17.514  36.199  20.828  1.00  0.00     0.005 C 
ENDBRANCH   5   6
ENDBRANCH   1   5
TORSDOF 3
ENDMDL
MODEL 5
REMARK VINA RESULT:      -3.8      5.077      5.855
REMARK  3 active torsions:
REMARK  status: ('A' for Active; 'I' for Inactive)
REMARK    1  A    between atoms: O_1  and  C_2 
REMARK    2  A    between atoms: C_2  and  C_3 
REMARK    3  A    between atoms: C_3  and  C_4 
ROOT
HETATM    1  C   LIG     1      15.567  34.378  21.092  1.00  0.00     0.139 C 
HETATM    2  O   LIG     1      15.846  33.790  20.014  1.00  0.00    -0.650 OA
ENDROOT
BRANCH   1   3
HETATM    3  O   LIG     1      14.250  34.390  21.544  1.00  0.00    -0.776 OA
HETATM    4  H   LIG     1      13.476  34.246  20.907  1.00  0.00     0.167 HD
ENDBRANCH   1   3
BRANCH   1   5
HETATM    5  C   LIG     1      16.645  35.089  21.857  1.00  0.00     0.109 C 
BRANCH   5   6
HETATM    6  C   LIG     1      17.363  36.133  20.991  1.00  0.00     0.006 C 
HETATM    7  C   LIG     1      17.422  37.504  21.662  1.00  0.00     0.005 C 
ENDBRANCH   5   6
ENDBRANCH   1   5
TORSDOF 3
ENDMDL
MODEL 6
REMARK VINA RESULT:      -3.7      2.322      2.531
REMARK  3 active torsions:
REMARK  status: ('A' for Active; 'I' for Inactive)
REMARK    1  A    between atoms: O_1  and  C_2 
REMARK    2  A    between atoms: C_2  and  C_3 
REMARK    3  A    between atoms: C_3  and  C_4 
ROOT
HETATM    1  C   LIG     1      17.596  37.658  25.232  1.00  0.00     0.139 C 
HETATM    2  O   LIG     1      18.509  36.970  25.760  1.00  0.00    -0.650 OA
ENDROOT
BRANCH   1   3
HETATM    3  O   LIG     1      17.253  38.885  25.794  1.00  0.00    -0.776 OA
HETATM    4  H   LIG     1      16.760  39.589  25.257  1.00  0.00     0.167 HD
ENDBRANCH   1   3
BRANCH   1   5
HETATM    5  C   LIG     1      16.863  37.135  24.031  1.00  0.00     0.109 C 
BRANCH   5   6
HETATM    6  C   LIG     1      17.114  35.635  23.822  1.00  0.00     0.006 C 
HETATM    7  C   LIG     1      16.987  35.224  22.356  1.00  0.00     0.005 C 
ENDBRANCH   5   6
ENDBRANCH   1   5
TORSDOF 3
ENDMDL
MODEL 7
REMARK VINA RESULT:      -3.7     12.009     12.726
REMARK  3 active torsions:
REMARK  status: ('A' for Active; 'I' for Inactive)
REMARK    1  A    between atoms: O_1  and  C_2 
REMARK    2  A    between atoms: C_2  and  C_3 
REMARK    3  A    between atoms: C_3  and  C_4 
ROOT
HETATM    1  C   LIG     1      13.509  30.924  16.736  1.00  0.00     0.139 C 
HETATM    2  O   LIG     1      13.864  31.457  17.821  1.00  0.00    -0.650 OA
ENDROOT
BRANCH   1   3
HETATM    3  O   LIG     1      12.285  30.264  16.667  1.00  0.00    -0.776 OA
HETATM    4  H   LIG     1      11.857  30.043  15.776  1.00  0.00     0.167 HD
ENDBRANCH   1   3
BRANCH   1   5
HETATM    5  C   LIG     1      14.421  30.973  15.546  1.00  0.00     0.109 C 
BRANCH   5   6
HETATM    6  C   LIG     1      14.051  29.910  14.502  1.00  0.00     0.006 C 
HETATM    7  C   LIG     1      15.281  29.230  13.903  1.00  0.00     0.005 C 
ENDBRANCH   5   6
ENDBRANCH   1   5
TORSDOF 3
ENDMDL
MODEL 8
REMARK VINA RESULT:      -3.6     10.263     10.902
REMARK  3 active torsions:
REMARK  status: ('A' for Active; 'I' for Inactive)
REMARK    1  A    between atoms: O_1  and  C_2 
REMARK    2  A    between atoms: C_2  and  C_3 
REMARK    3  A    between atoms: C_3  and  C_4 
ROOT
HETATM    1  C   LIG     1      14.635  32.208  18.150  1.00  0.00     0.139 C 
HETATM    2  O   LIG     1      15.613  32.965  18.386  1.00  0.00    -0.650 OA
ENDROOT
BRANCH   1   3
HETATM    3  O   LIG     1      14.142  31.392  19.165  1.00  0.00    -0.776 OA
HETATM    4  H   LIG     1      14.759  30.808  19.716  1.00  0.00     0.167 HD
ENDBRANCH   1   3
BRANCH   1   5
HETATM    5  C   LIG     1      14.038  32.163  16.773  1.00  0.00     0.109 C 
BRANCH   5   6
HETATM    6  C   LIG     1      13.322  30.832  16.507  1.00  0.00     0.006 C 
HETATM    7  C   LIG     1      13.615  30.283  15.111  1.00  0.00     0.005 C 
ENDBRANCH   5   6
ENDBRANCH   1   5
TORSDOF 3
ENDMDL
MODEL 9
REMARK VINA RESULT:      -3.6      2.044      3.131
REMARK  3 active torsions:
REMARK  status: ('A' for Active; 'I' for Inactive)
REMARK    1  A    between atoms: O_1  and  C_2 
REMARK    2  A    between atoms: C_2  and  C_3 
REMARK    3  A    between atoms: C_3  and  C_4 
ROOT
HETATM    1  C   LIG     1      17.902  36.971  25.726  1.00  0.00     0.139 C 
HETATM    2  O   LIG     1      17.463  35.833  25.411  1.00  0.00    -0.650 OA
ENDROOT
BRANCH   1   3
HETATM    3  O   LIG     1      18.923  37.074  26.667  1.00  0.00    -0.776 OA
HETATM    4  H   LIG     1      18.830  37.671  27.480  1.00  0.00     0.167 HD
ENDBRANCH   1   3
BRANCH   1   5
HETATM    5  C   LIG     1      17.297  38.202  25.115  1.00  0.00     0.109 C 
BRANCH   5   6
HETATM    6  C   LIG     1      17.546  38.266  23.602  1.00  0.00     0.006 C 
HETATM    7  C   LIG     1      16.266  38.063  22.793  1.00  0.00     0.005 C 
ENDBRANCH   5   6
ENDBRANCH   1   5
TORSDOF 3
ENDMDL
MODEL 10
REMARK VINA RESULT:      -3.6     13.081     13.846
REMARK  3 active torsions:
REMARK  status: ('A' for Active; 'I' for Inactive)
REMARK    1  A    between atoms: O_1  and  C_2 
REMARK    2  A    between atoms: C_2  and  C_3 
REMARK    3  A    between atoms: C_3  and  C_4 
ROOT
HETATM    1  C   LIG     1      13.907  29.198  14.241  1.00  0.00     0.139 C 
HETATM    2  O   LIG     1      14.886  28.509  13.851  1.00  0.00    -0.650 OA
ENDROOT
BRANCH   1   3
HETATM    3  O   LIG     1      12.614  28.791  13.924  1.00  0.00    -0.776 OA
HETATM    4  H   LIG     1      12.333  27.822  14.007  1.00  0.00     0.167 HD
ENDBRANCH   1   3
BRANCH   1   5
HETATM    5  C   LIG     1      14.144  30.467  15.008  1.00  0.00     0.109 C 
BRANCH   5   6
HETATM    6  C   LIG     1      13.045  30.715  16.049  1.00  0.00     0.006 C 
HETATM    7  C   LIG     1      13.381  31.877  16.984  1.00  0.00     0.005 C 
ENDBRANCH   5   6
ENDBRANCH   1   5
TORSDOF 3
ENDMDL
MODEL 11
REMARK VINA RESULT:      -3.6     12.296     12.873
REMARK  3 active torsions:
REMARK  status: ('A' for Active; 'I' for Inactive)
REMARK    1  A    between atoms: O_1  and  C_2 
REMARK    2  A    between atoms: C_2  and  C_3 
REMARK    3  A    between atoms: C_3  and  C_4 
ROOT
HETATM    1  C   LIG     1      16.047  32.103  14.051  1.00  0.00     0.139 C 
HETATM    2  O   LIG     1      16.045  33.093  14.829  1.00  0.00    -0.650 OA
ENDROOT
BRANCH   1   3
HETATM    3  O   LIG     1      16.817  32.147  12.891  1.00  0.00    -0.776 OA
HETATM    4  H   LIG     1      17.487  32.890  12.733  1.00  0.00     0.167 HD
ENDBRANCH   1   3
BRANCH   1   5
HETATM    5  C   LIG     1      15.196  30.906  14.359  1.00  0.00     0.109 C 
BRANCH   5   6
HETATM    6  C   LIG     1      14.412  31.088  15.666  1.00  0.00     0.006 C 
HETATM    7  C   LIG     1      13.016  30.471  15.596  1.00  0.00     0.005 C 
ENDBRANCH   5   6
ENDBRANCH   1   5
TORSDOF 3
ENDMDL
MODEL 12
REMARK VINA RESULT:      -3.5      9.018      9.627
REMARK  3 active torsions:
REMARK  status: ('A' for Active; 'I' for Inactive)
REMARK    1  A    between atoms: O_1  and  C_2 
REMARK    2  A    between atoms: C_2  and  C_3 
REMARK    3  A    between atoms: C_3  and  C_4 
ROOT
HETATM    1  C   LIG     1      15.341  33.378  16.734  1.00  0.00     0.139 C 
HETATM    2  O   LIG     1      15.596  34.547  17.128  1.00  0.00    -0.650 OA
ENDROOT
BRANCH   1   3
HETATM    3  O   LIG     1      15.619  33.025  15.416  1.00  0.00    -0.776 OA
HETATM    4  H   LIG     1      15.439  33.665  14.652  1.00  0.00     0.167 HD
ENDBRANCH   1   3
BRANCH   1   5
HETATM    5  C   LIG     1      14.708  32.393  17.673  1.00  0.00     0.109 C 
BRANCH   5   6
HETATM    6  C   LIG     1      15.275  32.518  19.094  1.00  0.00     0.006 C 
HETATM    7  C   LIG     1      14.837  31.366  19.998  1.00  0.00     0.005 C 
ENDBRANCH   5   6
ENDBRANCH   1   5
TORSDOF 3
ENDMDL
MODEL 13
REMARK VINA RESULT:      -3.4      4.322      5.164
REMARK  3 active torsions:
REMARK  status: ('A' for Active; 'I' for Inactive)
REMARK    1  A    between atoms: O_1  and  C_2 
REMARK    2  A    between atoms: C_2  and  C_3 
REMARK    3  A    between atoms: C_3  and  C_4 
ROOT
HETATM    1  C   LIG     1      18.810  38.794  20.557  1.00  0.00     0.139 C 
HETATM    2  O   LIG     1      19.094  39.706  19.736  1.00  0.00    -0.650 OA
ENDROOT
BRANCH   1   3
HETATM    3  O   LIG     1      18.715  37.478  20.112  1.00  0.00    -0.776 OA
HETATM    4  H   LIG     1      17.922  37.164  19.566  1.00  0.00     0.167 HD
ENDBRANCH   1   3
BRANCH   1   5
HETATM    5  C   LIG     1      18.539  39.138  21.993  1.00  0.00     0.109 C 
BRANCH   5   6
HETATM    6  C   LIG     1      17.073  38.886  22.371  1.00  0.00     0.006 C 
HETATM    7  C   LIG     1      16.899  37.621  23.210  1.00  0.00     0.005 C 
ENDBRANCH   5   6
ENDBRANCH   1   5
TORSDOF 3
ENDMDL
MODEL 14
REMARK VINA RESULT:      -3.4      5.015      5.770
REMARK  3 active torsions:
REMARK  status: ('A' for Active; 'I' for Inactive)
REMARK    1  A    between atoms: O_1  and  C_2 
REMARK    2  A    between atoms: C_2  and  C_3 
REMARK    3  A    between atoms: C_3  and  C_4 
ROOT
HETATM    1  C   LIG     1      18.231  38.679  21.583  1.00  0.00     0.139 C 
HETATM    2  O   LIG     1      17.097  38.984  22.039  1.00  0.00    -0.650 OA
ENDROOT
BRANCH   1   3
HETATM    3  O   LIG     1      19.352  39.388  22.007  1.00  0.00    -0.776 OA
HETATM    4  H   LIG     1      19.531  40.331  21.683  1.00  0.00     0.167 HD
ENDBRANCH   1   3
BRANCH   1   5
HETATM    5  C   LIG     1      18.358  37.586  20.562  1.00  0.00     0.109 C 
BRANCH   5   6
HETATM    6  C   LIG     1      19.462  37.888  19.540  1.00  0.00     0.006 C 
HETATM    7  C   LIG     1      19.035  38.940  18.517  1.00  0.00     0.005 C 
ENDBRANCH   5   6
ENDBRANCH   1   5
TORSDOF 3
ENDMDL
MODEL 15
REMARK VINA RESULT:      -3.4     13.364     13.800
REMARK  3 active torsions:
REMARK  status: ('A' for Active; 'I' for Inactive)
REMARK    1  A    between atoms: O_1  and  C_2 
REMARK    2  A    between atoms: C_2  and  C_3 
REMARK    3  A    between atoms: C_3  and  C_4 
ROOT
HETATM    1  C   LIG     1      18.369  33.916  12.537  1.00  0.00     0.139 C 
HETATM    2  O   LIG     1      17.779  34.814  13.194  1.00  0.00    -0.650 OA
ENDROOT
BRANCH   1   3
HETATM    3  O   LIG     1      17.820  32.637  12.480  1.00  0.00    -0.776 OA
HETATM    4  H   LIG     1      16.836  32.496  12.284  1.00  0.00     0.167 HD
ENDBRANCH   1   3
BRANCH   1   5
HETATM    5  C   LIG     1      19.672  34.220  11.857  1.00  0.00     0.109 C 
BRANCH   5   6
HETATM    6  C   LIG     1      20.871  33.746  12.688  1.00  0.00     0.006 C 
HETATM    7  C   LIG     1      21.900  34.855  12.909  1.00  0.00     0.005 C 
ENDBRANCH   5   6
ENDBRANCH   1   5
TORSDOF 3
ENDMDL
MODEL 16
REMARK VINA RESULT:      -3.4     10.319     10.790
REMARK  3 active torsions:
REMARK  status: ('A' for Active; 'I' for Inactive)
REMARK    1  A    between atoms: O_1  and  C_2 
REMARK    2  A    between atoms: C_2  and  C_3 
REMARK    3  A    between atoms: C_3  and  C_4 
ROOT
HETATM    1  C   LIG     1      15.332  33.907  16.807  1.00  0.00     0.139 C 
HETATM    2  O   LIG     1      16.121  34.542  16.058  1.00  0.00    -0.650 OA
ENDROOT
BRANCH   1   3
HETATM    3  O   LIG     1      14.849  34.514  17.963  1.00  0.00    -0.776 OA
HETATM    4  H   LIG     1      14.967  35.508  18.123  1.00  0.00     0.167 HD
ENDBRANCH   1   3
BRANCH   1   5
HETATM    5  C   LIG     1      14.951  32.496  16.467  1.00  0.00     0.109 C 
BRANCH   5   6
HETATM    6  C   LIG     1      15.677  31.998  15.210  1.00  0.00     0.006 C 
HETATM    7  C   LIG     1      15.054  30.721  14.647  1.00  0.00     0.005 C 
ENDBRANCH   5   6
ENDBRANCH   1   5
TORSDOF 3
ENDMDL
MODEL 17
REMARK VINA RESULT:      -3.4     11.853     12.360
REMARK  3 active torsions:
REMARK  status: ('A' for Active; 'I' for Inactive)
REMARK    1  A    between atoms: O_1  and  C_2 
REMARK    2  A    between atoms: C_2  and  C_3 
REMARK    3  A    between atoms: C_3  and  C_4 
ROOT
HETATM    1  C   LIG     1      16.671  32.505  15.297  1.00  0.00     0.139 C 
HETATM    2  O   LIG     1      16.100  32.919  16.341  1.00  0.00    -0.650 OA
ENDROOT
BRANCH   1   3
HETATM    3  O   LIG     1      18.049  32.656  15.165  1.00  0.00    -0.776 OA
HETATM    4  H   LIG     1      18.448  33.485  14.741  1.00  0.00     0.167 HD
ENDBRANCH   1   3
BRANCH   1   5
HETATM    5  C   LIG     1      15.860  31.891  14.193  1.00  0.00     0.109 C 
BRANCH   5   6
HETATM    6  C   LIG     1      14.953  30.767  14.713  1.00  0.00     0.006 C 
HETATM    7  C   LIG     1      15.145  29.462  13.942  1.00  0.00     0.005 C 
ENDBRANCH   5   6
ENDBRANCH   1   5
TORSDOF 3
ENDMDL
MODEL 18
REMARK VINA RESULT:      -3.3     13.696     14.221
REMARK  3 active torsions:
REMARK  status: ('A' for Active; 'I' for Inactive)
REMARK    1  A    between atoms: O_1  and  C_2 
REMARK    2  A    between atoms: C_2  and  C_3 
REMARK    3  A    between atoms: C_3  and  C_4 
ROOT
HETATM    1  C   LIG     1      19.546  33.633  12.110  1.00  0.00     0.139 C 
HETATM    2  O   LIG     1      18.868  34.694  12.080  1.00  0.00    -0.650 OA
ENDROOT
BRANCH   1   3
HETATM    3  O   LIG     1      19.000  32.457  11.603  1.00  0.00    -0.776 OA
HETATM    4  H   LIG     1      19.552  31.819  11.044  1.00  0.00     0.167 HD
ENDBRANCH   1   3
BRANCH   1   5
HETATM    5  C   LIG     1      20.917  33.638  12.723  1.00  0.00     0.109 C 
BRANCH   5   6
HETATM    6  C   LIG     1      21.700  34.904  12.352  1.00  0.00     0.006 C 
HETATM    7  C   LIG     1      22.808  35.217  13.356  1.00  0.00     0.005 C 
ENDBRANCH   5   6
ENDBRANCH   1   5
TORSDOF 3
ENDMDL
MODEL 19
REMARK VINA RESULT:      -3.3      3.532      3.979
REMARK  3 active torsions:
REMARK  status: ('A' for Active; 'I' for Inactive)
REMARK    1  A    between atoms: O_1  and  C_2 
REMARK    2  A    between atoms: C_2  and  C_3 
REMARK    3  A    between atoms: C_3  and  C_4 
ROOT
HETATM    1  C   LIG     1      18.130  38.744  22.600  1.00  0.00     0.139 C 
HETATM    2  O   LIG     1      18.561  38.562  23.770  1.00  0.00    -0.650 OA
ENDROOT
BRANCH   1   3
HETATM    3  O   LIG     1      18.739  39.697  21.788  1.00  0.00    -0.776 OA
HETATM    4  H   LIG     1      19.747  39.790  21.751  1.00  0.00     0.167 HD
ENDBRANCH   1   3
BRANCH   1   5
HETATM    5  C   LIG     1      16.947  37.962  22.109  1.00  0.00     0.109 C 
BRANCH   5   6
HETATM    6  C   LIG     1      17.374  36.673  21.395  1.00  0.00     0.006 C 
HETATM    7  C   LIG     1      16.956  35.418  22.160  1.00  0.00     0.005 C 
ENDBRANCH   5   6
ENDBRANCH   1   5
TORSDOF 3
ENDMDL
MODEL 20
REMARK VINA RESULT:      -3.2     11.947     12.463
REMARK  3 active torsions:
REMARK  status: ('A' for Active; 'I' for Inactive)
REMARK    1  A    between atoms: O_1  and  C_2 
REMARK    2  A    between atoms: C_2  and  C_3 
REMARK    3  A    between atoms: C_3  and  C_4 
ROOT
HETATM    1  C   LIG     1      17.907  33.504  13.504  1.00  0.00     0.139 C 
HETATM    2  O   LIG     1      18.209  34.715  13.332  1.00  0.00    -0.650 OA
ENDROOT
BRANCH   1   3
HETATM    3  O   LIG     1      17.898  32.640  12.412  1.00  0.00    -0.776 OA
HETATM    4  H   LIG     1      17.085  32.560  11.812  1.00  0.00     0.167 HD
ENDBRANCH   1   3
BRANCH   1   5
HETATM    5  C   LIG     1      17.526  33.015  14.870  1.00  0.00     0.109 C 
BRANCH   5   6
HETATM    6  C   LIG     1      16.202  32.239  14.847  1.00  0.00     0.006 C 
HETATM    7  C   LIG     1      15.368  32.475  16.105  1.00  0.00     0.005 C 
ENDBRANCH   5   6
ENDBRANCH   1   5
TORSDOF 3
ENDMDL
