MODEL 1
REMARK VINA RESULT:      -3.0      0.000      0.000
REMARK  1 active torsions:
REMARK  status: ('A' for Active; 'I' for Inactive)
REMARK    1  A    between atoms: C_2  and  C_3 
ROOT
HETATM    1 CL   LIG     1      18.419  34.795  26.387  1.00  0.00    -0.129 Cl
HETATM    2  C   LIG     1      18.111  36.518  26.044  1.00  0.00     0.129 C 
ENDROOT
BRANCH   2   3
HETATM    3  C   LIG     1      17.282  36.683  24.776  1.00  0.00     0.129 C 
HETATM    4 CL   LIG     1      17.160  35.141  23.886  1.00  0.00    -0.129 Cl
ENDBRANCH   2   3
TORSDOF 1
ENDMDL
MODEL 2
REMARK VINA RESULT:      -3.0      0.048      2.277
REMARK  1 active torsions:
REMARK  status: ('A' for Active; 'I' for Inactive)
REMARK    1  A    between atoms: C_2  and  C_3 
ROOT
HETATM    1 CL   LIG     1      17.156  35.163  23.856  1.00  0.00    -0.129 Cl
HETATM    2  C   LIG     1      17.272  36.678  24.791  1.00  0.00     0.129 C 
ENDROOT
BRANCH   2   3
HETATM    3  C   LIG     1      18.183  36.505  26.000  1.00  0.00     0.129 C 
HETATM    4 CL   LIG     1      18.413  34.779  26.387  1.00  0.00    -0.129 Cl
ENDBRANCH   2   3
TORSDOF 1
ENDMDL
MODEL 3
REMARK VINA RESULT:      -2.9      1.689      1.689
REMARK  1 active torsions:
REMARK  status: ('A' for Active; 'I' for Inactive)
REMARK    1  A    between atoms: C_2  and  C_3 
ROOT
HETATM    1 CL   LIG     1      18.377  34.806  26.358  1.00  0.00    -0.129 Cl
HETATM    2  C   LIG     1      18.400  36.587  26.267  1.00  0.00     0.129 C 
ENDROOT
BRANCH   2   3
HETATM    3  C   LIG     1      17.370  37.095  25.265  1.00  0.00     0.129 C 
HETATM    4 CL   LIG     1      18.093  38.289  24.153  1.00  0.00    -0.129 Cl
ENDBRANCH   2   3
TORSDOF 1
ENDMDL
MODEL 4
REMARK VINA RESULT:      -2.8      2.119      3.372
REMARK  1 active torsions:
REMARK  status: ('A' for Active; 'I' for Inactive)
REMARK    1  A    between atoms: C_2  and  C_3 
ROOT
HETATM    1 CL   LIG     1      16.287  38.174  22.955  1.00  0.00    -0.129 Cl
HETATM    2  C   LIG     1      17.017  37.060  24.142  1.00  0.00     0.129 C 
ENDROOT
BRANCH   2   3
HETATM    3  C   LIG     1      17.390  37.796  25.423  1.00  0.00     0.129 C 
HETATM    4 CL   LIG     1      18.434  36.787  26.460  1.00  0.00    -0.129 Cl
ENDBRANCH   2   3
TORSDOF 1
ENDMDL
MODEL 5
REMARK VINA RESULT:      -2.7      5.521      5.923
REMARK  1 active torsions:
REMARK  status: ('A' for Active; 'I' for Inactive)
REMARK    1  A    between atoms: C_2  and  C_3 
ROOT
HETATM    1 CL   LIG     1      18.008  38.428  21.599  1.00  0.00    -0.129 Cl
HETATM    2  C   LIG     1      18.975  39.447  20.499  1.00  0.00     0.129 C 
ENDROOT
BRANCH   2   3
HETATM    3  C   LIG     1      19.953  38.603  19.691  1.00  0.00     0.129 C 
HETATM    4 CL   LIG     1      19.352  36.934  19.498  1.00  0.00    -0.129 Cl
ENDBRANCH   2   3
TORSDOF 1
ENDMDL
MODEL 6
REMARK VINA RESULT:      -2.7      5.552      6.090
REMARK  1 active torsions:
REMARK  status: ('A' for Active; 'I' for Inactive)
REMARK    1  A    between atoms: C_2  and  C_3 
ROOT
HETATM    1 CL   LIG     1      19.360  36.853  19.535  1.00  0.00    -0.129 Cl
HETATM    2  C   LIG     1      19.789  38.582  19.447  1.00  0.00     0.129 C 
ENDROOT
BRANCH   2   3
HETATM    3  C   LIG     1      19.057  39.382  20.518  1.00  0.00     0.129 C 
HETATM    4 CL   LIG     1      17.884  38.360  21.390  1.00  0.00    -0.129 Cl
ENDBRANCH   2   3
TORSDOF 1
ENDMDL
MODEL 7
REMARK VINA RESULT:      -2.6      5.100      5.299
REMARK  1 active torsions:
REMARK  status: ('A' for Active; 'I' for Inactive)
REMARK    1  A    between atoms: C_2  and  C_3 
ROOT
HETATM    1 CL   LIG     1      18.366  39.070  21.070  1.00  0.00    -0.129 Cl
HETATM    2  C   LIG     1      17.553  37.560  21.560  1.00  0.00     0.129 C 
ENDROOT
BRANCH   2   3
HETATM    3  C   LIG     1      17.815  36.447  20.551  1.00  0.00     0.129 C 
HETATM    4 CL   LIG     1      19.229  36.827  19.531  1.00  0.00    -0.129 Cl
ENDBRANCH   2   3
TORSDOF 1
ENDMDL
MODEL 8
REMARK VINA RESULT:      -2.6      4.818      5.199
REMARK  1 active torsions:
REMARK  status: ('A' for Active; 'I' for Inactive)
REMARK    1  A    between atoms: C_2  and  C_3 
ROOT
HETATM    1 CL   LIG     1      18.928  36.793  19.694  1.00  0.00    -0.129 Cl
HETATM    2  C   LIG     1      17.593  36.280  20.761  1.00  0.00     0.129 C 
ENDROOT
BRANCH   2   3
HETATM    3  C   LIG     1      17.254  37.367  21.773  1.00  0.00     0.129 C 
HETATM    4 CL   LIG     1      18.059  38.904  21.356  1.00  0.00    -0.129 Cl
ENDBRANCH   2   3
TORSDOF 1
ENDMDL
MODEL 9
REMARK VINA RESULT:      -2.6      3.961      4.951
REMARK  1 active torsions:
REMARK  status: ('A' for Active; 'I' for Inactive)
REMARK    1  A    between atoms: C_2  and  C_3 
ROOT
HETATM    1 CL   LIG     1      19.150  36.802  19.482  1.00  0.00    -0.129 Cl
HETATM    2  C   LIG     1      17.954  37.029  20.786  1.00  0.00     0.129 C 
ENDROOT
BRANCH   2   3
HETATM    3  C   LIG     1      17.015  35.832  20.880  1.00  0.00     0.129 C 
HETATM    4 CL   LIG     1      17.040  35.125  22.518  1.00  0.00    -0.129 Cl
ENDBRANCH   2   3
TORSDOF 1
ENDMDL
MODEL 10
REMARK VINA RESULT:      -2.4      5.787      6.744
REMARK  1 active torsions:
REMARK  status: ('A' for Active; 'I' for Inactive)
REMARK    1  A    between atoms: C_2  and  C_3 
ROOT
HETATM    1 CL   LIG     1      19.023  39.168  18.103  1.00  0.00    -0.129 Cl
HETATM    2  C   LIG     1      18.875  39.335  19.873  1.00  0.00     0.129 C 
ENDROOT
BRANCH   2   3
HETATM    3  C   LIG     1      18.621  37.984  20.529  1.00  0.00     0.129 C 
HETATM    4 CL   LIG     1      19.302  36.657  19.549  1.00  0.00    -0.129 Cl
ENDBRANCH   2   3
TORSDOF 1
ENDMDL
MODEL 11
REMARK VINA RESULT:      -2.4      3.210      4.191
REMARK  1 active torsions:
REMARK  status: ('A' for Active; 'I' for Inactive)
REMARK    1  A    between atoms: C_2  and  C_3 
ROOT
HETATM    1 CL   LIG     1      18.097  38.966  21.675  1.00  0.00    -0.129 Cl
HETATM    2  C   LIG     1      17.170  37.487  22.039  1.00  0.00     0.129 C 
ENDROOT
BRANCH   2   3
HETATM    3  C   LIG     1      16.131  37.746  23.124  1.00  0.00     0.129 C 
HETATM    4 CL   LIG     1      16.879  37.726  24.744  1.00  0.00    -0.129 Cl
ENDBRANCH   2   3
TORSDOF 1
ENDMDL
MODEL 12
REMARK VINA RESULT:      -2.4      4.217      4.934
REMARK  1 active torsions:
REMARK  status: ('A' for Active; 'I' for Inactive)
REMARK    1  A    between atoms: C_2  and  C_3 
ROOT
HETATM    1 CL   LIG     1      15.696  37.931  22.807  1.00  0.00    -0.129 Cl
HETATM    2  C   LIG     1      17.147  38.900  22.439  1.00  0.00     0.129 C 
ENDROOT
BRANCH   2   3
HETATM    3  C   LIG     1      17.969  38.253  21.330  1.00  0.00     0.129 C 
HETATM    4 CL   LIG     1      19.095  39.427  20.599  1.00  0.00    -0.129 Cl
ENDBRANCH   2   3
TORSDOF 1
ENDMDL
MODEL 13
REMARK VINA RESULT:      -2.4      3.367      4.655
REMARK  1 active torsions:
REMARK  status: ('A' for Active; 'I' for Inactive)
REMARK    1  A    between atoms: C_2  and  C_3 
ROOT
HETATM    1 CL   LIG     1      15.685  33.467  20.324  1.00  0.00    -0.129 Cl
HETATM    2  C   LIG     1      15.560  34.846  21.449  1.00  0.00     0.129 C 
ENDROOT
BRANCH   2   3
HETATM    3  C   LIG     1      16.939  35.290  21.923  1.00  0.00     0.129 C 
HETATM    4 CL   LIG     1      17.144  34.988  23.669  1.00  0.00    -0.129 Cl
ENDBRANCH   2   3
TORSDOF 1
ENDMDL
MODEL 14
REMARK VINA RESULT:      -2.4     12.644     13.271
REMARK  1 active torsions:
REMARK  status: ('A' for Active; 'I' for Inactive)
REMARK    1  A    between atoms: C_2  and  C_3 
ROOT
HETATM    1 CL   LIG     1      13.288  30.536  15.710  1.00  0.00    -0.129 Cl
HETATM    2  C   LIG     1      13.597  29.438  14.338  1.00  0.00     0.129 C 
ENDROOT
BRANCH   2   3
HETATM    3  C   LIG     1      15.092  29.248  14.117  1.00  0.00     0.129 C 
HETATM    4 CL   LIG     1      15.464  27.562  13.664  1.00  0.00    -0.129 Cl
ENDBRANCH   2   3
TORSDOF 1
ENDMDL
MODEL 15
REMARK VINA RESULT:      -2.4      2.916      3.704
REMARK  1 active torsions:
REMARK  status: ('A' for Active; 'I' for Inactive)
REMARK    1  A    between atoms: C_2  and  C_3 
ROOT
HETATM    1 CL   LIG     1      16.046  37.733  22.898  1.00  0.00    -0.129 Cl
HETATM    2  C   LIG     1      16.920  36.653  21.780  1.00  0.00     0.129 C 
ENDROOT
BRANCH   2   3
HETATM    3  C   LIG     1      16.834  35.203  22.242  1.00  0.00     0.129 C 
HETATM    4 CL   LIG     1      17.176  35.065  23.987  1.00  0.00    -0.129 Cl
ENDBRANCH   2   3
TORSDOF 1
ENDMDL
MODEL 16
REMARK VINA RESULT:      -2.4      8.424      9.509
REMARK  1 active torsions:
REMARK  status: ('A' for Active; 'I' for Inactive)
REMARK    1  A    between atoms: C_2  and  C_3 
ROOT
HETATM    1 CL   LIG     1      14.650  31.328  15.718  1.00  0.00    -0.129 Cl
HETATM    2  C   LIG     1      13.872  31.664  17.287  1.00  0.00     0.129 C 
ENDROOT
BRANCH   2   3
HETATM    3  C   LIG     1      14.867  32.266  18.272  1.00  0.00     0.129 C 
HETATM    4 CL   LIG     1      14.808  31.418  19.841  1.00  0.00    -0.129 Cl
ENDBRANCH   2   3
TORSDOF 1
ENDMDL
MODEL 17
REMARK VINA RESULT:      -2.3      2.713      3.550
REMARK  1 active torsions:
REMARK  status: ('A' for Active; 'I' for Inactive)
REMARK    1  A    between atoms: C_2  and  C_3 
ROOT
HETATM    1 CL   LIG     1      16.136  36.046  21.701  1.00  0.00    -0.129 Cl
HETATM    2  C   LIG     1      16.991  36.349  23.237  1.00  0.00     0.129 C 
ENDROOT
BRANCH   2   3
HETATM    3  C   LIG     1      16.579  37.689  23.835  1.00  0.00     0.129 C 
HETATM    4 CL   LIG     1      17.269  37.901  25.467  1.00  0.00    -0.129 Cl
ENDBRANCH   2   3
TORSDOF 1
ENDMDL
MODEL 18
REMARK VINA RESULT:      -2.3     12.137     12.382
REMARK  1 active torsions:
REMARK  status: ('A' for Active; 'I' for Inactive)
REMARK    1  A    between atoms: C_2  and  C_3 
ROOT
HETATM    1 CL   LIG     1      15.663  31.999  14.993  1.00  0.00    -0.129 Cl
HETATM    2  C   LIG     1      15.303  30.785  13.737  1.00  0.00     0.129 C 
ENDROOT
BRANCH   2   3
HETATM    3  C   LIG     1      14.347  29.721  14.263  1.00  0.00     0.129 C 
HETATM    4 CL   LIG     1      13.250  30.399  15.495  1.00  0.00    -0.129 Cl
ENDBRANCH   2   3
TORSDOF 1
ENDMDL
MODEL 19
REMARK VINA RESULT:      -2.3      4.105      4.632
REMARK  1 active torsions:
REMARK  status: ('A' for Active; 'I' for Inactive)
REMARK    1  A    between atoms: C_2  and  C_3 
ROOT
HETATM    1 CL   LIG     1      17.272  36.847  21.564  1.00  0.00    -0.129 Cl
HETATM    2  C   LIG     1      16.813  35.174  21.981  1.00  0.00     0.129 C 
ENDROOT
BRANCH   2   3
HETATM    3  C   LIG     1      15.482  34.798  21.342  1.00  0.00     0.129 C 
HETATM    4 CL   LIG     1      15.667  33.393  20.256  1.00  0.00    -0.129 Cl
ENDBRANCH   2   3
TORSDOF 1
ENDMDL
MODEL 20
REMARK VINA RESULT:      -2.2     10.004     11.027
REMARK  1 active torsions:
REMARK  status: ('A' for Active; 'I' for Inactive)
REMARK    1  A    between atoms: C_2  and  C_3 
ROOT
HETATM    1 CL   LIG     1      14.181  30.288  14.893  1.00  0.00    -0.129 Cl
HETATM    2  C   LIG     1      13.129  30.816  16.233  1.00  0.00     0.129 C 
ENDROOT
BRANCH   2   3
HETATM    3  C   LIG     1      13.845  31.823  17.126  1.00  0.00     0.129 C 
HETATM    4 CL   LIG     1      15.208  32.586  16.264  1.00  0.00    -0.129 Cl
ENDBRANCH   2   3
TORSDOF 1
ENDMDL
