MODEL 1
REMARK VINA RESULT:      -7.8      0.000      0.000
REMARK  5 active torsions:
REMARK  status: ('A' for Active; 'I' for Inactive)
REMARK    1  A    between atoms: C_2  and  C_3 
REMARK    2  A    between atoms: C_3  and  C_4 
REMARK    3  A    between atoms: C_4  and  C_5 
REMARK    4  A    between atoms: C_5  and  C_6 
REMARK    5  A    between atoms: C_6  and  C_7 
ROOT
HETATM    1  C   LIG     1      17.868  38.457  21.704  1.00  0.00    -0.058 A 
HETATM    2  C   LIG     1      18.798  39.333  21.116  1.00  0.00     0.007 A 
HETATM    3  C   LIG     1      19.541  38.927  20.004  1.00  0.00     0.001 A 
HETATM    4  C   LIG     1      19.367  37.647  19.473  1.00  0.00     0.000 A 
HETATM    5  C   LIG     1      18.448  36.769  20.054  1.00  0.00     0.001 A 
HETATM    6  C   LIG     1      17.702  37.169  21.166  1.00  0.00     0.007 A 
ENDROOT
BRANCH   1   7
HETATM    7  C   LIG     1      17.069  38.895  22.906  1.00  0.00     0.038 C 
BRANCH   7   8
HETATM    8  C   LIG     1      16.766  37.708  23.827  1.00  0.00     0.005 C 
BRANCH   8   9
HETATM    9  C   LIG     1      17.230  37.991  25.263  1.00  0.00     0.000 C 
BRANCH   9  10
HETATM   10  C   LIG     1      18.527  37.233  25.617  1.00  0.00    -0.000 C 
BRANCH  10  11
HETATM   11  C   LIG     1      18.339  36.163  26.705  1.00  0.00    -0.005 C 
HETATM   12  C   LIG     1      17.786  34.847  26.160  1.00  0.00     0.005 C 
ENDBRANCH  10  11
ENDBRANCH   9  10
ENDBRANCH   8   9
ENDBRANCH   7   8
ENDBRANCH   1   7
TORSDOF 5
ENDMDL
MODEL 2
REMARK VINA RESULT:      -7.7      0.673      1.543
REMARK  5 active torsions:
REMARK  status: ('A' for Active; 'I' for Inactive)
REMARK    1  A    between atoms: C_2  and  C_3 
REMARK    2  A    between atoms: C_3  and  C_4 
REMARK    3  A    between atoms: C_4  and  C_5 
REMARK    4  A    between atoms: C_5  and  C_6 
REMARK    5  A    between atoms: C_6  and  C_7 
ROOT
HETATM    1  C   LIG     1      17.879  38.098  21.744  1.00  0.00    -0.058 A 
HETATM    2  C   LIG     1      17.905  36.946  20.939  1.00  0.00     0.007 A 
HETATM    3  C   LIG     1      18.666  36.923  19.767  1.00  0.00     0.001 A 
HETATM    4  C   LIG     1      19.403  38.048  19.387  1.00  0.00     0.000 A 
HETATM    5  C   LIG     1      19.378  39.199  20.179  1.00  0.00     0.001 A 
HETATM    6  C   LIG     1      18.619  39.227  21.353  1.00  0.00     0.007 A 
ENDROOT
BRANCH   1   7
HETATM    7  C   LIG     1      17.055  38.121  23.007  1.00  0.00     0.038 C 
BRANCH   7   8
HETATM    8  C   LIG     1      17.944  38.312  24.241  1.00  0.00     0.005 C 
BRANCH   8   9
HETATM    9  C   LIG     1      17.350  37.600  25.465  1.00  0.00     0.000 C 
BRANCH   9  10
HETATM   10  C   LIG     1      18.433  36.912  26.323  1.00  0.00    -0.000 C 
BRANCH  10  11
HETATM   11  C   LIG     1      18.304  35.381  26.369  1.00  0.00    -0.005 C 
HETATM   12  C   LIG     1      17.362  34.828  25.300  1.00  0.00     0.005 C 
ENDBRANCH  10  11
ENDBRANCH   9  10
ENDBRANCH   8   9
ENDBRANCH   7   8
ENDBRANCH   1   7
TORSDOF 5
ENDMDL
MODEL 3
REMARK VINA RESULT:      -7.6      0.899      5.358
REMARK  5 active torsions:
REMARK  status: ('A' for Active; 'I' for Inactive)
REMARK    1  A    between atoms: C_2  and  C_3 
REMARK    2  A    between atoms: C_3  and  C_4 
REMARK    3  A    between atoms: C_4  and  C_5 
REMARK    4  A    between atoms: C_5  and  C_6 
REMARK    5  A    between atoms: C_6  and  C_7 
ROOT
HETATM    1  C   LIG     1      17.210  36.584  24.115  1.00  0.00    -0.058 A 
HETATM    2  C   LIG     1      17.787  37.515  24.998  1.00  0.00     0.007 A 
HETATM    3  C   LIG     1      18.306  37.093  26.225  1.00  0.00     0.001 A 
HETATM    4  C   LIG     1      18.250  35.744  26.584  1.00  0.00     0.000 A 
HETATM    5  C   LIG     1      17.674  34.813  25.715  1.00  0.00     0.001 A 
HETATM    6  C   LIG     1      17.153  35.230  24.486  1.00  0.00     0.007 A 
ENDROOT
BRANCH   1   7
HETATM    7  C   LIG     1      16.647  37.042  22.793  1.00  0.00     0.038 C 
BRANCH   7   8
HETATM    8  C   LIG     1      17.027  38.500  22.509  1.00  0.00     0.005 C 
BRANCH   8   9
HETATM    9  C   LIG     1      18.129  38.586  21.443  1.00  0.00     0.000 C 
BRANCH   9  10
HETATM   10  C   LIG     1      18.211  37.306  20.585  1.00  0.00    -0.000 C 
BRANCH  10  11
HETATM   11  C   LIG     1      19.321  37.346  19.521  1.00  0.00    -0.005 C 
HETATM   12  C   LIG     1      20.134  38.639  19.554  1.00  0.00     0.005 C 
ENDBRANCH  10  11
ENDBRANCH   9  10
ENDBRANCH   8   9
ENDBRANCH   7   8
ENDBRANCH   1   7
TORSDOF 5
ENDMDL
MODEL 4
REMARK VINA RESULT:      -7.5      0.962      5.558
REMARK  5 active torsions:
REMARK  status: ('A' for Active; 'I' for Inactive)
REMARK    1  A    between atoms: C_2  and  C_3 
REMARK    2  A    between atoms: C_3  and  C_4 
REMARK    3  A    between atoms: C_4  and  C_5 
REMARK    4  A    between atoms: C_5  and  C_6 
REMARK    5  A    between atoms: C_6  and  C_7 
ROOT
HETATM    1  C   LIG     1      17.189  36.500  24.138  1.00  0.00    -0.058 A 
HETATM    2  C   LIG     1      17.193  35.152  24.539  1.00  0.00     0.007 A 
HETATM    3  C   LIG     1      17.745  34.785  25.769  1.00  0.00     0.001 A 
HETATM    4  C   LIG     1      18.301  35.757  26.606  1.00  0.00     0.000 A 
HETATM    5  C   LIG     1      18.306  37.098  26.212  1.00  0.00     0.001 A 
HETATM    6  C   LIG     1      17.754  37.470  24.983  1.00  0.00     0.007 A 
ENDROOT
BRANCH   1   7
HETATM    7  C   LIG     1      16.596  36.893  22.808  1.00  0.00     0.038 C 
BRANCH   7   8
HETATM    8  C   LIG     1      17.243  36.104  21.663  1.00  0.00     0.005 C 
BRANCH   8   9
HETATM    9  C   LIG     1      18.007  37.038  20.713  1.00  0.00     0.000 C 
BRANCH   9  10
HETATM   10  C   LIG     1      18.113  38.474  21.268  1.00  0.00    -0.000 C 
BRANCH  10  11
HETATM   11  C   LIG     1      19.030  39.389  20.439  1.00  0.00    -0.005 C 
HETATM   12  C   LIG     1      20.074  38.618  19.633  1.00  0.00     0.005 C 
ENDBRANCH  10  11
ENDBRANCH   9  10
ENDBRANCH   8   9
ENDBRANCH   7   8
ENDBRANCH   1   7
TORSDOF 5
ENDMDL
MODEL 5
REMARK VINA RESULT:      -7.2      1.508      5.241
REMARK  5 active torsions:
REMARK  status: ('A' for Active; 'I' for Inactive)
REMARK    1  A    between atoms: C_2  and  C_3 
REMARK    2  A    between atoms: C_3  and  C_4 
REMARK    3  A    between atoms: C_4  and  C_5 
REMARK    4  A    between atoms: C_5  and  C_6 
REMARK    5  A    between atoms: C_6  and  C_7 
ROOT
HETATM    1  C   LIG     1      17.586  37.111  24.758  1.00  0.00    -0.058 A 
HETATM    2  C   LIG     1      17.112  35.837  24.401  1.00  0.00     0.007 A 
HETATM    3  C   LIG     1      17.353  34.738  25.230  1.00  0.00     0.001 A 
HETATM    4  C   LIG     1      18.073  34.900  26.418  1.00  0.00     0.000 A 
HETATM    5  C   LIG     1      18.552  36.162  26.777  1.00  0.00     0.001 A 
HETATM    6  C   LIG     1      18.313  37.265  25.951  1.00  0.00     0.007 A 
ENDROOT
BRANCH   1   7
HETATM    7  C   LIG     1      17.328  38.295  23.861  1.00  0.00     0.038 C 
BRANCH   7   8
HETATM    8  C   LIG     1      16.640  37.860  22.561  1.00  0.00     0.005 C 
BRANCH   8   9
HETATM    9  C   LIG     1      17.669  37.599  21.452  1.00  0.00     0.000 C 
BRANCH   9  10
HETATM   10  C   LIG     1      17.438  36.246  20.748  1.00  0.00    -0.000 C 
BRANCH  10  11
HETATM   11  C   LIG     1      16.015  35.692  20.928  1.00  0.00    -0.005 C 
HETATM   12  C   LIG     1      15.926  34.185  20.689  1.00  0.00     0.005 C 
ENDBRANCH  10  11
ENDBRANCH   9  10
ENDBRANCH   8   9
ENDBRANCH   7   8
ENDBRANCH   1   7
TORSDOF 5
ENDMDL
MODEL 6
REMARK VINA RESULT:      -7.0      2.530      5.873
REMARK  5 active torsions:
REMARK  status: ('A' for Active; 'I' for Inactive)
REMARK    1  A    between atoms: C_2  and  C_3 
REMARK    2  A    between atoms: C_3  and  C_4 
REMARK    3  A    between atoms: C_4  and  C_5 
REMARK    4  A    between atoms: C_5  and  C_6 
REMARK    5  A    between atoms: C_6  and  C_7 
ROOT
HETATM    1  C   LIG     1      17.313  36.300  24.293  1.00  0.00    -0.058 A 
HETATM    2  C   LIG     1      17.315  35.007  24.845  1.00  0.00     0.007 A 
HETATM    3  C   LIG     1      17.881  34.778  26.103  1.00  0.00     0.001 A 
HETATM    4  C   LIG     1      18.453  35.835  26.816  1.00  0.00     0.000 A 
HETATM    5  C   LIG     1      18.460  37.122  26.273  1.00  0.00     0.001 A 
HETATM    6  C   LIG     1      17.895  37.356  25.015  1.00  0.00     0.007 A 
ENDROOT
BRANCH   1   7
HETATM    7  C   LIG     1      16.705  36.543  22.935  1.00  0.00     0.038 C 
BRANCH   7   8
HETATM    8  C   LIG     1      16.859  35.312  22.035  1.00  0.00     0.005 C 
BRANCH   8   9
HETATM    9  C   LIG     1      16.765  35.697  20.551  1.00  0.00     0.000 C 
BRANCH   9  10
HETATM   10  C   LIG     1      15.815  34.769  19.767  1.00  0.00    -0.000 C 
BRANCH  10  11
HETATM   11  C   LIG     1      15.390  33.516  20.550  1.00  0.00    -0.005 C 
HETATM   12  C   LIG     1      15.286  32.269  19.673  1.00  0.00     0.005 C 
ENDBRANCH  10  11
ENDBRANCH   9  10
ENDBRANCH   8   9
ENDBRANCH   7   8
ENDBRANCH   1   7
TORSDOF 5
ENDMDL
MODEL 7
REMARK VINA RESULT:      -6.0      7.229      8.994
REMARK  5 active torsions:
REMARK  status: ('A' for Active; 'I' for Inactive)
REMARK    1  A    between atoms: C_2  and  C_3 
REMARK    2  A    between atoms: C_3  and  C_4 
REMARK    3  A    between atoms: C_4  and  C_5 
REMARK    4  A    between atoms: C_5  and  C_6 
REMARK    5  A    between atoms: C_6  and  C_7 
ROOT
HETATM    1  C   LIG     1      14.232  31.395  16.066  1.00  0.00    -0.058 A 
HETATM    2  C   LIG     1      15.394  31.783  15.375  1.00  0.00     0.007 A 
HETATM    3  C   LIG     1      15.760  31.133  14.194  1.00  0.00     0.001 A 
HETATM    4  C   LIG     1      14.975  30.090  13.694  1.00  0.00     0.000 A 
HETATM    5  C   LIG     1      13.822  29.695  14.377  1.00  0.00     0.001 A 
HETATM    6  C   LIG     1      13.450  30.342  15.560  1.00  0.00     0.007 A 
ENDROOT
BRANCH   1   7
HETATM    7  C   LIG     1      13.840  32.096  17.343  1.00  0.00     0.038 C 
BRANCH   7   8
HETATM    8  C   LIG     1      15.037  32.832  17.956  1.00  0.00     0.005 C 
BRANCH   8   9
HETATM    9  C   LIG     1      15.387  32.262  19.338  1.00  0.00     0.000 C 
BRANCH   9  10
HETATM   10  C   LIG     1      15.362  33.343  20.438  1.00  0.00    -0.000 C 
BRANCH  10  11
HETATM   11  C   LIG     1      15.759  34.742  19.938  1.00  0.00    -0.005 C 
HETATM   12  C   LIG     1      16.669  35.489  20.911  1.00  0.00     0.005 C 
ENDBRANCH  10  11
ENDBRANCH   9  10
ENDBRANCH   8   9
ENDBRANCH   7   8
ENDBRANCH   1   7
TORSDOF 5
ENDMDL
MODEL 8
REMARK VINA RESULT:      -5.8      1.991      4.930
REMARK  5 active torsions:
REMARK  status: ('A' for Active; 'I' for Inactive)
REMARK    1  A    between atoms: C_2  and  C_3 
REMARK    2  A    between atoms: C_3  and  C_4 
REMARK    3  A    between atoms: C_4  and  C_5 
REMARK    4  A    between atoms: C_5  and  C_6 
REMARK    5  A    between atoms: C_6  and  C_7 
ROOT
HETATM    1  C   LIG     1      16.459  36.951  22.911  1.00  0.00    -0.058 A 
HETATM    2  C   LIG     1      15.284  37.126  22.158  1.00  0.00     0.007 A 
HETATM    3  C   LIG     1      14.779  36.077  21.386  1.00  0.00     0.001 A 
HETATM    4  C   LIG     1      15.443  34.847  21.354  1.00  0.00     0.000 A 
HETATM    5  C   LIG     1      16.614  34.666  22.095  1.00  0.00     0.001 A 
HETATM    6  C   LIG     1      17.123  35.713  22.870  1.00  0.00     0.007 A 
ENDROOT
BRANCH   1   7
HETATM    7  C   LIG     1      17.003  38.086  23.741  1.00  0.00     0.038 C 
BRANCH   7   8
HETATM    8  C   LIG     1      17.412  39.269  22.854  1.00  0.00     0.005 C 
BRANCH   8   9
HETATM    9  C   LIG     1      18.664  38.935  22.031  1.00  0.00     0.000 C 
BRANCH   9  10
HETATM   10  C   LIG     1      18.585  39.494  20.595  1.00  0.00    -0.000 C 
BRANCH  10  11
HETATM   11  C   LIG     1      19.352  38.652  19.562  1.00  0.00    -0.005 C 
HETATM   12  C   LIG     1      19.017  39.027  18.119  1.00  0.00     0.005 C 
ENDBRANCH  10  11
ENDBRANCH   9  10
ENDBRANCH   8   9
ENDBRANCH   7   8
ENDBRANCH   1   7
TORSDOF 5
ENDMDL
MODEL 9
REMARK VINA RESULT:      -5.7      3.602      5.972
REMARK  5 active torsions:
REMARK  status: ('A' for Active; 'I' for Inactive)
REMARK    1  A    between atoms: C_2  and  C_3 
REMARK    2  A    between atoms: C_3  and  C_4 
REMARK    3  A    between atoms: C_4  and  C_5 
REMARK    4  A    between atoms: C_5  and  C_6 
REMARK    5  A    between atoms: C_6  and  C_7 
ROOT
HETATM    1  C   LIG     1      15.505  34.412  19.922  1.00  0.00    -0.058 A 
HETATM    2  C   LIG     1      15.397  33.055  20.271  1.00  0.00     0.007 A 
HETATM    3  C   LIG     1      15.202  32.086  19.282  1.00  0.00     0.001 A 
HETATM    4  C   LIG     1      15.109  32.464  17.940  1.00  0.00     0.000 A 
HETATM    5  C   LIG     1      15.211  33.811  17.585  1.00  0.00     0.001 A 
HETATM    6  C   LIG     1      15.406  34.784  18.570  1.00  0.00     0.007 A 
ENDROOT
BRANCH   1   7
HETATM    7  C   LIG     1      15.712  35.456  20.991  1.00  0.00     0.038 C 
BRANCH   7   8
HETATM    8  C   LIG     1      17.189  35.546  21.392  1.00  0.00     0.005 C 
BRANCH   8   9
HETATM    9  C   LIG     1      17.774  36.921  21.037  1.00  0.00     0.000 C 
BRANCH   9  10
HETATM   10  C   LIG     1      18.613  36.881  19.743  1.00  0.00    -0.000 C 
BRANCH  10  11
HETATM   11  C   LIG     1      19.599  38.054  19.610  1.00  0.00    -0.005 C 
HETATM   12  C   LIG     1      19.074  39.349  20.228  1.00  0.00     0.005 C 
ENDBRANCH  10  11
ENDBRANCH   9  10
ENDBRANCH   8   9
ENDBRANCH   7   8
ENDBRANCH   1   7
TORSDOF 5
ENDMDL
MODEL 10
REMARK VINA RESULT:      -5.7      9.154     11.453
REMARK  5 active torsions:
REMARK  status: ('A' for Active; 'I' for Inactive)
REMARK    1  A    between atoms: C_2  and  C_3 
REMARK    2  A    between atoms: C_3  and  C_4 
REMARK    3  A    between atoms: C_4  and  C_5 
REMARK    4  A    between atoms: C_5  and  C_6 
REMARK    5  A    between atoms: C_6  and  C_7 
ROOT
HETATM    1  C   LIG     1      15.897  32.125  15.279  1.00  0.00    -0.058 A 
HETATM    2  C   LIG     1      15.468  31.064  14.463  1.00  0.00     0.007 A 
HETATM    3  C   LIG     1      14.295  30.368  14.770  1.00  0.00     0.001 A 
HETATM    4  C   LIG     1      13.544  30.722  15.894  1.00  0.00     0.000 A 
HETATM    5  C   LIG     1      13.966  31.773  16.713  1.00  0.00     0.001 A 
HETATM    6  C   LIG     1      15.139  32.472  16.410  1.00  0.00     0.007 A 
ENDROOT
BRANCH   1   7
HETATM    7  C   LIG     1      17.164  32.872  14.947  1.00  0.00     0.038 C 
BRANCH   7   8
HETATM    8  C   LIG     1      17.296  33.088  13.434  1.00  0.00     0.005 C 
BRANCH   8   9
HETATM    9  C   LIG     1      18.586  33.847  13.095  1.00  0.00     0.000 C 
BRANCH   9  10
HETATM   10  C   LIG     1      19.225  33.354  11.780  1.00  0.00    -0.000 C 
BRANCH  10  11
HETATM   11  C   LIG     1      20.760  33.283  11.827  1.00  0.00    -0.005 C 
HETATM   12  C   LIG     1      21.386  34.414  12.641  1.00  0.00     0.005 C 
ENDBRANCH  10  11
ENDBRANCH   9  10
ENDBRANCH   8   9
ENDBRANCH   7   8
ENDBRANCH   1   7
TORSDOF 5
ENDMDL
MODEL 11
REMARK VINA RESULT:      -5.7      3.728      4.737
REMARK  5 active torsions:
REMARK  status: ('A' for Active; 'I' for Inactive)
REMARK    1  A    between atoms: C_2  and  C_3 
REMARK    2  A    between atoms: C_3  and  C_4 
REMARK    3  A    between atoms: C_4  and  C_5 
REMARK    4  A    between atoms: C_5  and  C_6 
REMARK    5  A    between atoms: C_6  and  C_7 
ROOT
HETATM    1  C   LIG     1      15.501  34.431  19.900  1.00  0.00    -0.058 A 
HETATM    2  C   LIG     1      15.429  34.712  18.524  1.00  0.00     0.007 A 
HETATM    3  C   LIG     1      15.222  33.681  17.604  1.00  0.00     0.001 A 
HETATM    4  C   LIG     1      15.089  32.362  18.048  1.00  0.00     0.000 A 
HETATM    5  C   LIG     1      15.164  32.074  19.413  1.00  0.00     0.001 A 
HETATM    6  C   LIG     1      15.371  33.102  20.338  1.00  0.00     0.007 A 
ENDROOT
BRANCH   1   7
HETATM    7  C   LIG     1      15.728  35.546  20.890  1.00  0.00     0.038 C 
BRANCH   7   8
HETATM    8  C   LIG     1      17.111  35.428  21.543  1.00  0.00     0.005 C 
BRANCH   8   9
HETATM    9  C   LIG     1      16.989  35.221  23.060  1.00  0.00     0.000 C 
BRANCH   9  10
HETATM   10  C   LIG     1      17.121  36.545  23.841  1.00  0.00    -0.000 C 
BRANCH  10  11
HETATM   11  C   LIG     1      17.495  36.355  25.321  1.00  0.00    -0.005 C 
HETATM   12  C   LIG     1      17.599  34.885  25.726  1.00  0.00     0.005 C 
ENDBRANCH  10  11
ENDBRANCH   9  10
ENDBRANCH   8   9
ENDBRANCH   7   8
ENDBRANCH   1   7
TORSDOF 5
ENDMDL
MODEL 12
REMARK VINA RESULT:      -5.6      4.182      5.991
REMARK  5 active torsions:
REMARK  status: ('A' for Active; 'I' for Inactive)
REMARK    1  A    between atoms: C_2  and  C_3 
REMARK    2  A    between atoms: C_3  and  C_4 
REMARK    3  A    between atoms: C_4  and  C_5 
REMARK    4  A    between atoms: C_5  and  C_6 
REMARK    5  A    between atoms: C_6  and  C_7 
ROOT
HETATM    1  C   LIG     1      15.368  33.617  19.443  1.00  0.00    -0.058 A 
HETATM    2  C   LIG     1      15.440  34.526  18.372  1.00  0.00     0.007 A 
HETATM    3  C   LIG     1      15.082  34.124  17.082  1.00  0.00     0.001 A 
HETATM    4  C   LIG     1      14.654  32.815  16.849  1.00  0.00     0.000 A 
HETATM    5  C   LIG     1      14.584  31.904  17.907  1.00  0.00     0.001 A 
HETATM    6  C   LIG     1      14.941  32.301  19.199  1.00  0.00     0.007 A 
ENDROOT
BRANCH   1   7
HETATM    7  C   LIG     1      15.759  34.052  20.833  1.00  0.00     0.038 C 
BRANCH   7   8
HETATM    8  C   LIG     1      15.078  35.374  21.207  1.00  0.00     0.005 C 
BRANCH   8   9
HETATM    9  C   LIG     1      16.092  36.372  21.786  1.00  0.00     0.000 C 
BRANCH   9  10
HETATM   10  C   LIG     1      17.522  36.119  21.265  1.00  0.00    -0.000 C 
BRANCH  10  11
HETATM   11  C   LIG     1      18.176  37.359  20.632  1.00  0.00    -0.005 C 
HETATM   12  C   LIG     1      19.074  37.019  19.443  1.00  0.00     0.005 C 
ENDBRANCH  10  11
ENDBRANCH   9  10
ENDBRANCH   8   9
ENDBRANCH   7   8
ENDBRANCH   1   7
TORSDOF 5
ENDMDL
MODEL 13
REMARK VINA RESULT:      -5.6      2.470      6.028
REMARK  5 active torsions:
REMARK  status: ('A' for Active; 'I' for Inactive)
REMARK    1  A    between atoms: C_2  and  C_3 
REMARK    2  A    between atoms: C_3  and  C_4 
REMARK    3  A    between atoms: C_4  and  C_5 
REMARK    4  A    between atoms: C_5  and  C_6 
REMARK    5  A    between atoms: C_6  and  C_7 
ROOT
HETATM    1  C   LIG     1      18.019  38.117  21.333  1.00  0.00    -0.058 A 
HETATM    2  C   LIG     1      17.062  38.469  22.301  1.00  0.00     0.007 A 
HETATM    3  C   LIG     1      16.077  37.554  22.683  1.00  0.00     0.001 A 
HETATM    4  C   LIG     1      16.037  36.284  22.101  1.00  0.00     0.000 A 
HETATM    5  C   LIG     1      16.982  35.928  21.134  1.00  0.00     0.001 A 
HETATM    6  C   LIG     1      17.969  36.840  20.749  1.00  0.00     0.007 A 
ENDROOT
BRANCH   1   7
HETATM    7  C   LIG     1      19.079  39.108  20.920  1.00  0.00     0.038 C 
BRANCH   7   8
HETATM    8  C   LIG     1      19.995  38.516  19.842  1.00  0.00     0.005 C 
BRANCH   8   9
HETATM    9  C   LIG     1      19.513  38.900  18.436  1.00  0.00     0.000 C 
BRANCH   9  10
HETATM   10  C   LIG     1      18.395  39.963  18.473  1.00  0.00    -0.000 C 
BRANCH  10  11
HETATM   11  C   LIG     1      17.831  40.314  17.086  1.00  0.00    -0.005 C 
HETATM   12  C   LIG     1      18.660  39.736  15.940  1.00  0.00     0.005 C 
ENDBRANCH  10  11
ENDBRANCH   9  10
ENDBRANCH   8   9
ENDBRANCH   7   8
ENDBRANCH   1   7
TORSDOF 5
ENDMDL
MODEL 14
REMARK VINA RESULT:      -5.6      1.967      3.038
REMARK  5 active torsions:
REMARK  status: ('A' for Active; 'I' for Inactive)
REMARK    1  A    between atoms: C_2  and  C_3 
REMARK    2  A    between atoms: C_3  and  C_4 
REMARK    3  A    between atoms: C_4  and  C_5 
REMARK    4  A    between atoms: C_5  and  C_6 
REMARK    5  A    between atoms: C_6  and  C_7 
ROOT
HETATM    1  C   LIG     1      16.743  36.856  21.629  1.00  0.00    -0.058 A 
HETATM    2  C   LIG     1      15.354  36.876  21.841  1.00  0.00     0.007 A 
HETATM    3  C   LIG     1      14.597  35.714  21.662  1.00  0.00     0.001 A 
HETATM    4  C   LIG     1      15.219  34.527  21.266  1.00  0.00     0.000 A 
HETATM    5  C   LIG     1      16.599  34.500  21.048  1.00  0.00     0.001 A 
HETATM    6  C   LIG     1      17.360  35.659  21.226  1.00  0.00     0.007 A 
ENDROOT
BRANCH   1   7
HETATM    7  C   LIG     1      17.557  38.112  21.819  1.00  0.00     0.038 C 
BRANCH   7   8
HETATM    8  C   LIG     1      17.630  38.500  23.301  1.00  0.00     0.005 C 
BRANCH   8   9
HETATM    9  C   LIG     1      16.896  37.474  24.177  1.00  0.00     0.000 C 
BRANCH   9  10
HETATM   10  C   LIG     1      17.795  36.920  25.302  1.00  0.00    -0.000 C 
BRANCH  10  11
HETATM   11  C   LIG     1      17.422  35.494  25.744  1.00  0.00    -0.005 C 
HETATM   12  C   LIG     1      18.598  34.729  26.347  1.00  0.00     0.005 C 
ENDBRANCH  10  11
ENDBRANCH   9  10
ENDBRANCH   8   9
ENDBRANCH   7   8
ENDBRANCH   1   7
TORSDOF 5
ENDMDL
MODEL 15
REMARK VINA RESULT:      -5.2      5.055      7.355
REMARK  5 active torsions:
REMARK  status: ('A' for Active; 'I' for Inactive)
REMARK    1  A    between atoms: C_2  and  C_3 
REMARK    2  A    between atoms: C_3  and  C_4 
REMARK    3  A    between atoms: C_4  and  C_5 
REMARK    4  A    between atoms: C_5  and  C_6 
REMARK    5  A    between atoms: C_6  and  C_7 
ROOT
HETATM    1  C   LIG     1      15.900  34.575  20.997  1.00  0.00    -0.058 A 
HETATM    2  C   LIG     1      16.176  34.916  22.333  1.00  0.00     0.007 A 
HETATM    3  C   LIG     1      17.012  35.996  22.626  1.00  0.00     0.001 A 
HETATM    4  C   LIG     1      17.584  36.741  21.591  1.00  0.00     0.000 A 
HETATM    5  C   LIG     1      17.320  36.405  20.260  1.00  0.00     0.001 A 
HETATM    6  C   LIG     1      16.483  35.325  19.962  1.00  0.00     0.007 A 
ENDROOT
BRANCH   1   7
HETATM    7  C   LIG     1      15.000  33.406  20.683  1.00  0.00     0.038 C 
BRANCH   7   8
HETATM    8  C   LIG     1      15.731  32.362  19.830  1.00  0.00     0.005 C 
BRANCH   8   9
HETATM    9  C   LIG     1      15.262  32.416  18.369  1.00  0.00     0.000 C 
BRANCH   9  10
HETATM   10  C   LIG     1      14.074  31.468  18.102  1.00  0.00    -0.000 C 
BRANCH  10  11
HETATM   11  C   LIG     1      13.262  31.834  16.849  1.00  0.00    -0.005 C 
HETATM   12  C   LIG     1      13.126  30.673  15.865  1.00  0.00     0.005 C 
ENDBRANCH  10  11
ENDBRANCH   9  10
ENDBRANCH   8   9
ENDBRANCH   7   8
ENDBRANCH   1   7
TORSDOF 5
ENDMDL
MODEL 16
REMARK VINA RESULT:      -5.0      8.006      9.944
REMARK  5 active torsions:
REMARK  status: ('A' for Active; 'I' for Inactive)
REMARK    1  A    between atoms: C_2  and  C_3 
REMARK    2  A    between atoms: C_3  and  C_4 
REMARK    3  A    between atoms: C_4  and  C_5 
REMARK    4  A    between atoms: C_5  and  C_6 
REMARK    5  A    between atoms: C_6  and  C_7 
ROOT
HETATM    1  C   LIG     1      15.096  31.194  14.981  1.00  0.00    -0.058 A 
HETATM    2  C   LIG     1      15.569  30.181  14.129  1.00  0.00     0.007 A 
HETATM    3  C   LIG     1      14.744  29.105  13.787  1.00  0.00     0.001 A 
HETATM    4  C   LIG     1      13.444  29.029  14.295  1.00  0.00     0.000 A 
HETATM    5  C   LIG     1      12.968  30.030  15.147  1.00  0.00     0.001 A 
HETATM    6  C   LIG     1      13.789  31.108  15.492  1.00  0.00     0.007 A 
ENDROOT
BRANCH   1   7
HETATM    7  C   LIG     1      15.989  32.351  15.351  1.00  0.00     0.038 C 
BRANCH   7   8
HETATM    8  C   LIG     1      15.310  33.261  16.382  1.00  0.00     0.005 C 
BRANCH   8   9
HETATM    9  C   LIG     1      15.096  32.524  17.712  1.00  0.00     0.000 C 
BRANCH   9  10
HETATM   10  C   LIG     1      15.314  33.443  18.931  1.00  0.00    -0.000 C 
BRANCH  10  11
HETATM   11  C   LIG     1      15.219  32.712  20.281  1.00  0.00    -0.005 C 
HETATM   12  C   LIG     1      14.888  31.228  20.135  1.00  0.00     0.005 C 
ENDBRANCH  10  11
ENDBRANCH   9  10
ENDBRANCH   8   9
ENDBRANCH   7   8
ENDBRANCH   1   7
TORSDOF 5
ENDMDL
MODEL 17
REMARK VINA RESULT:      -4.9     10.565     13.106
REMARK  5 active torsions:
REMARK  status: ('A' for Active; 'I' for Inactive)
REMARK    1  A    between atoms: C_2  and  C_3 
REMARK    2  A    between atoms: C_3  and  C_4 
REMARK    3  A    between atoms: C_4  and  C_5 
REMARK    4  A    between atoms: C_5  and  C_6 
REMARK    5  A    between atoms: C_6  and  C_7 
ROOT
HETATM    1  C   LIG     1      14.821  30.790  14.665  1.00  0.00    -0.058 A 
HETATM    2  C   LIG     1      14.748  31.379  15.940  1.00  0.00     0.007 A 
HETATM    3  C   LIG     1      15.521  32.504  16.242  1.00  0.00     0.001 A 
HETATM    4  C   LIG     1      16.374  33.047  15.278  1.00  0.00     0.000 A 
HETATM    5  C   LIG     1      16.456  32.465  14.010  1.00  0.00     0.001 A 
HETATM    6  C   LIG     1      15.685  31.340  13.703  1.00  0.00     0.007 A 
ENDROOT
BRANCH   1   7
HETATM    7  C   LIG     1      13.989  29.574  14.343  1.00  0.00     0.038 C 
BRANCH   7   8
HETATM    8  C   LIG     1      14.856  28.455  13.754  1.00  0.00     0.005 C 
BRANCH   8   9
HETATM    9  C   LIG     1      13.999  27.242  13.362  1.00  0.00     0.000 C 
BRANCH   9  10
HETATM   10  C   LIG     1      12.489  27.547  13.435  1.00  0.00    -0.000 C 
BRANCH  10  11
HETATM   11  C   LIG     1      11.602  26.392  12.939  1.00  0.00    -0.005 C 
HETATM   12  C   LIG     1      11.912  25.974  11.503  1.00  0.00     0.005 C 
ENDBRANCH  10  11
ENDBRANCH   9  10
ENDBRANCH   8   9
ENDBRANCH   7   8
ENDBRANCH   1   7
TORSDOF 5
ENDMDL
