MODEL 1
REMARK VINA RESULT:      -6.4      0.000      0.000
REMARK  1 active torsions:
REMARK  status: ('A' for Active; 'I' for Inactive)
REMARK    1  A    between atoms: C_7  and  O_8 
ROOT
HETATM    1  C   LIG     1      17.952  34.876  26.262  1.00  0.00     0.048 C 
HETATM    2  C   LIG     1      17.489  35.617  25.042  1.00  0.00    -0.059 A 
HETATM    3  C   LIG     1      17.205  34.932  23.849  1.00  0.00     0.013 A 
HETATM    4  C   LIG     1      16.763  35.632  22.715  1.00  0.00    -0.059 A 
HETATM    5  C   LIG     1      16.498  34.901  21.432  1.00  0.00     0.048 C 
HETATM    6  C   LIG     1      16.638  37.028  22.771  1.00  0.00     0.043 A 
HETATM    7  C   LIG     1      16.921  37.718  23.956  1.00  0.00     0.066 A 
HETATM    8  C   LIG     1      17.343  37.010  25.090  1.00  0.00     0.043 A 
ENDROOT
BRANCH   7   9
HETATM    9  O   LIG     1      16.781  39.102  23.994  1.00  0.00    -0.361 OA
HETATM   10  H   LIG     1      16.725  39.653  23.145  1.00  0.00     0.217 HD
ENDBRANCH   7   9
TORSDOF 1
ENDMDL
MODEL 2
REMARK VINA RESULT:      -6.4      0.048      2.877
REMARK  1 active torsions:
REMARK  status: ('A' for Active; 'I' for Inactive)
REMARK    1  A    between atoms: C_7  and  O_8 
ROOT
HETATM    1  C   LIG     1      16.450  34.878  21.434  1.00  0.00     0.048 C 
HETATM    2  C   LIG     1      16.767  35.627  22.695  1.00  0.00    -0.059 A 
HETATM    3  C   LIG     1      17.201  34.948  23.845  1.00  0.00     0.013 A 
HETATM    4  C   LIG     1      17.504  35.658  25.018  1.00  0.00    -0.059 A 
HETATM    5  C   LIG     1      17.931  34.925  26.255  1.00  0.00     0.048 C 
HETATM    6  C   LIG     1      17.339  37.051  25.044  1.00  0.00     0.043 A 
HETATM    7  C   LIG     1      16.905  37.734  23.903  1.00  0.00     0.066 A 
HETATM    8  C   LIG     1      16.622  37.021  22.730  1.00  0.00     0.043 A 
ENDROOT
BRANCH   7   9
HETATM    9  O   LIG     1      16.756  39.117  23.947  1.00  0.00    -0.361 OA
HETATM   10  H   LIG     1      15.883  39.548  24.228  1.00  0.00     0.217 HD
ENDBRANCH   7   9
TORSDOF 1
ENDMDL
MODEL 3
REMARK VINA RESULT:      -6.1      2.016      3.447
REMARK  1 active torsions:
REMARK  status: ('A' for Active; 'I' for Inactive)
REMARK    1  A    between atoms: C_7  and  O_8 
ROOT
HETATM    1  C   LIG     1      19.055  39.307  20.320  1.00  0.00     0.048 C 
HETATM    2  C   LIG     1      18.259  38.438  21.249  1.00  0.00    -0.059 A 
HETATM    3  C   LIG     1      17.848  37.154  20.857  1.00  0.00     0.013 A 
HETATM    4  C   LIG     1      17.110  36.345  21.737  1.00  0.00    -0.059 A 
HETATM    5  C   LIG     1      16.640  34.989  21.300  1.00  0.00     0.048 C 
HETATM    6  C   LIG     1      16.758  36.841  23.001  1.00  0.00     0.043 A 
HETATM    7  C   LIG     1      17.163  38.120  23.397  1.00  0.00     0.066 A 
HETATM    8  C   LIG     1      17.915  38.915  22.522  1.00  0.00     0.043 A 
ENDROOT
BRANCH   7   9
HETATM    9  O   LIG     1      16.812  38.591  24.659  1.00  0.00    -0.361 OA
HETATM   10  H   LIG     1      16.130  38.109  25.234  1.00  0.00     0.217 HD
ENDBRANCH   7   9
TORSDOF 1
ENDMDL
MODEL 4
REMARK VINA RESULT:      -6.1      1.980      3.366
REMARK  1 active torsions:
REMARK  status: ('A' for Active; 'I' for Inactive)
REMARK    1  A    between atoms: C_7  and  O_8 
ROOT
HETATM    1  C   LIG     1      16.672  34.956  21.300  1.00  0.00     0.048 C 
HETATM    2  C   LIG     1      17.089  36.327  21.743  1.00  0.00    -0.059 A 
HETATM    3  C   LIG     1      17.806  37.174  20.882  1.00  0.00     0.013 A 
HETATM    4  C   LIG     1      18.185  38.460  21.302  1.00  0.00    -0.059 A 
HETATM    5  C   LIG     1      18.983  39.346  20.393  1.00  0.00     0.048 C 
HETATM    6  C   LIG     1      17.870  38.882  22.602  1.00  0.00     0.043 A 
HETATM    7  C   LIG     1      17.158  38.043  23.466  1.00  0.00     0.066 A 
HETATM    8  C   LIG     1      16.766  36.768  23.034  1.00  0.00     0.043 A 
ENDROOT
BRANCH   7   9
HETATM    9  O   LIG     1      16.847  38.484  24.750  1.00  0.00    -0.361 OA
HETATM   10  H   LIG     1      16.461  37.857  25.446  1.00  0.00     0.217 HD
ENDBRANCH   7   9
TORSDOF 1
ENDMDL
MODEL 5
REMARK VINA RESULT:      -5.9      3.373      5.019
REMARK  1 active torsions:
REMARK  status: ('A' for Active; 'I' for Inactive)
REMARK    1  A    between atoms: C_7  and  O_8 
ROOT
HETATM    1  C   LIG     1      20.253  38.773  19.403  1.00  0.00     0.048 C 
HETATM    2  C   LIG     1      19.128  38.182  20.200  1.00  0.00    -0.059 A 
HETATM    3  C   LIG     1      18.670  38.807  21.371  1.00  0.00     0.013 A 
HETATM    4  C   LIG     1      17.610  38.251  22.106  1.00  0.00    -0.059 A 
HETATM    5  C   LIG     1      17.150  38.902  23.377  1.00  0.00     0.048 C 
HETATM    6  C   LIG     1      17.031  37.047  21.679  1.00  0.00     0.043 A 
HETATM    7  C   LIG     1      17.483  36.418  20.514  1.00  0.00     0.066 A 
HETATM    8  C   LIG     1      18.528  36.988  19.775  1.00  0.00     0.043 A 
ENDROOT
BRANCH   7   9
HETATM    9  O   LIG     1      16.888  35.228  20.102  1.00  0.00    -0.361 OA
HETATM   10  H   LIG     1      15.888  35.082  20.176  1.00  0.00     0.217 HD
ENDBRANCH   7   9
TORSDOF 1
ENDMDL
MODEL 6
REMARK VINA RESULT:      -5.9      3.353      4.486
REMARK  1 active torsions:
REMARK  status: ('A' for Active; 'I' for Inactive)
REMARK    1  A    between atoms: C_7  and  O_8 
ROOT
HETATM    1  C   LIG     1      17.200  38.900  23.442  1.00  0.00     0.048 C 
HETATM    2  C   LIG     1      17.663  38.242  22.176  1.00  0.00    -0.059 A 
HETATM    3  C   LIG     1      18.695  38.806  21.409  1.00  0.00     0.013 A 
HETATM    4  C   LIG     1      19.129  38.177  20.230  1.00  0.00    -0.059 A 
HETATM    5  C   LIG     1      20.205  38.803  19.393  1.00  0.00     0.048 C 
HETATM    6  C   LIG     1      18.501  36.996  19.806  1.00  0.00     0.043 A 
HETATM    7  C   LIG     1      17.471  36.430  20.565  1.00  0.00     0.066 A 
HETATM    8  C   LIG     1      17.056  37.052  21.750  1.00  0.00     0.043 A 
ENDROOT
BRANCH   7   9
HETATM    9  O   LIG     1      16.867  35.253  20.132  1.00  0.00    -0.361 OA
HETATM   10  H   LIG     1      15.859  35.165  20.072  1.00  0.00     0.217 HD
ENDBRANCH   7   9
TORSDOF 1
ENDMDL
MODEL 7
REMARK VINA RESULT:      -5.8      2.076      3.715
REMARK  1 active torsions:
REMARK  status: ('A' for Active; 'I' for Inactive)
REMARK    1  A    between atoms: C_7  and  O_8 
ROOT
HETATM    1  C   LIG     1      16.693  35.422  20.870  1.00  0.00     0.048 C 
HETATM    2  C   LIG     1      17.190  36.613  21.633  1.00  0.00    -0.059 A 
HETATM    3  C   LIG     1      16.975  36.722  23.017  1.00  0.00     0.013 A 
HETATM    4  C   LIG     1      17.453  37.837  23.725  1.00  0.00    -0.059 A 
HETATM    5  C   LIG     1      17.187  37.967  25.196  1.00  0.00     0.048 C 
HETATM    6  C   LIG     1      18.119  38.860  23.034  1.00  0.00     0.043 A 
HETATM    7  C   LIG     1      18.335  38.759  21.656  1.00  0.00     0.066 A 
HETATM    8  C   LIG     1      17.873  37.635  20.958  1.00  0.00     0.043 A 
ENDROOT
BRANCH   7   9
HETATM    9  O   LIG     1      19.008  39.781  20.990  1.00  0.00    -0.361 OA
HETATM   10  H   LIG     1      19.016  40.729  21.346  1.00  0.00     0.217 HD
ENDBRANCH   7   9
TORSDOF 1
ENDMDL
MODEL 8
REMARK VINA RESULT:      -5.8      2.186      2.737
REMARK  1 active torsions:
REMARK  status: ('A' for Active; 'I' for Inactive)
REMARK    1  A    between atoms: C_7  and  O_8 
ROOT
HETATM    1  C   LIG     1      17.249  38.112  25.090  1.00  0.00     0.048 C 
HETATM    2  C   LIG     1      17.479  37.932  23.618  1.00  0.00    -0.059 A 
HETATM    3  C   LIG     1      16.971  36.812  22.942  1.00  0.00     0.013 A 
HETATM    4  C   LIG     1      17.183  36.657  21.563  1.00  0.00    -0.059 A 
HETATM    5  C   LIG     1      16.671  35.439  20.852  1.00  0.00     0.048 C 
HETATM    6  C   LIG     1      17.936  37.615  20.868  1.00  0.00     0.043 A 
HETATM    7  C   LIG     1      18.447  38.734  21.535  1.00  0.00     0.066 A 
HETATM    8  C   LIG     1      18.215  38.892  22.909  1.00  0.00     0.043 A 
ENDROOT
BRANCH   7   9
HETATM    9  O   LIG     1      19.183  39.679  20.826  1.00  0.00    -0.361 OA
HETATM   10  H   LIG     1      20.182  39.579  20.691  1.00  0.00     0.217 HD
ENDBRANCH   7   9
TORSDOF 1
ENDMDL
MODEL 9
REMARK VINA RESULT:      -5.8      2.764      4.463
REMARK  1 active torsions:
REMARK  status: ('A' for Active; 'I' for Inactive)
REMARK    1  A    between atoms: C_7  and  O_8 
ROOT
HETATM    1  C   LIG     1      19.171  39.360  20.384  1.00  0.00     0.048 C 
HETATM    2  C   LIG     1      18.347  38.343  21.117  1.00  0.00    -0.059 A 
HETATM    3  C   LIG     1      17.984  38.544  22.458  1.00  0.00     0.013 A 
HETATM    4  C   LIG     1      17.205  37.590  23.134  1.00  0.00    -0.059 A 
HETATM    5  C   LIG     1      16.851  37.790  24.578  1.00  0.00     0.048 C 
HETATM    6  C   LIG     1      16.818  36.417  22.468  1.00  0.00     0.043 A 
HETATM    7  C   LIG     1      17.178  36.210  21.132  1.00  0.00     0.066 A 
HETATM    8  C   LIG     1      17.939  37.175  20.458  1.00  0.00     0.043 A 
ENDROOT
BRANCH   7   9
HETATM    9  O   LIG     1      16.776  35.044  20.486  1.00  0.00    -0.361 OA
HETATM   10  H   LIG     1      16.919  34.913  19.492  1.00  0.00     0.217 HD
ENDBRANCH   7   9
TORSDOF 1
ENDMDL
MODEL 10
REMARK VINA RESULT:      -5.7      1.966      3.699
REMARK  1 active torsions:
REMARK  status: ('A' for Active; 'I' for Inactive)
REMARK    1  A    between atoms: C_7  and  O_8 
ROOT
HETATM    1  C   LIG     1      17.157  39.219  22.770  1.00  0.00     0.048 C 
HETATM    2  C   LIG     1      17.129  37.748  23.066  1.00  0.00    -0.059 A 
HETATM    3  C   LIG     1      17.411  37.269  24.355  1.00  0.00     0.013 A 
HETATM    4  C   LIG     1      17.374  35.891  24.625  1.00  0.00    -0.059 A 
HETATM    5  C   LIG     1      17.713  35.381  25.994  1.00  0.00     0.048 C 
HETATM    6  C   LIG     1      17.083  34.992  23.588  1.00  0.00     0.043 A 
HETATM    7  C   LIG     1      16.803  35.463  22.301  1.00  0.00     0.066 A 
HETATM    8  C   LIG     1      16.823  36.840  22.043  1.00  0.00     0.043 A 
ENDROOT
BRANCH   7   9
HETATM    9  O   LIG     1      16.507  34.555  21.287  1.00  0.00    -0.361 OA
HETATM   10  H   LIG     1      16.838  34.693  20.340  1.00  0.00     0.217 HD
ENDBRANCH   7   9
TORSDOF 1
ENDMDL
MODEL 11
REMARK VINA RESULT:      -5.7      8.582      9.962
REMARK  1 active torsions:
REMARK  status: ('A' for Active; 'I' for Inactive)
REMARK    1  A    between atoms: C_7  and  O_8 
ROOT
HETATM    1  C   LIG     1      17.224  32.995  14.857  1.00  0.00     0.048 C 
HETATM    2  C   LIG     1      16.032  32.221  15.336  1.00  0.00    -0.059 A 
HETATM    3  C   LIG     1      15.491  31.182  14.562  1.00  0.00     0.013 A 
HETATM    4  C   LIG     1      14.381  30.456  15.022  1.00  0.00    -0.059 A 
HETATM    5  C   LIG     1      13.783  29.372  14.174  1.00  0.00     0.048 C 
HETATM    6  C   LIG     1      13.793  30.798  16.249  1.00  0.00     0.043 A 
HETATM    7  C   LIG     1      14.325  31.833  17.025  1.00  0.00     0.066 A 
HETATM    8  C   LIG     1      15.445  32.541  16.568  1.00  0.00     0.043 A 
ENDROOT
BRANCH   7   9
HETATM    9  O   LIG     1      13.733  32.151  18.244  1.00  0.00    -0.361 OA
HETATM   10  H   LIG     1      12.958  31.613  18.613  1.00  0.00     0.217 HD
ENDBRANCH   7   9
TORSDOF 1
ENDMDL
MODEL 12
REMARK VINA RESULT:      -5.6      8.714     10.217
REMARK  1 active torsions:
REMARK  status: ('A' for Active; 'I' for Inactive)
REMARK    1  A    between atoms: C_7  and  O_8 
ROOT
HETATM    1  C   LIG     1      14.056  29.251  14.015  1.00  0.00     0.048 C 
HETATM    2  C   LIG     1      14.502  30.413  14.852  1.00  0.00    -0.059 A 
HETATM    3  C   LIG     1      15.596  31.202  14.463  1.00  0.00     0.013 A 
HETATM    4  C   LIG     1      16.001  32.293  15.249  1.00  0.00    -0.059 A 
HETATM    5  C   LIG     1      17.194  33.110  14.849  1.00  0.00     0.048 C 
HETATM    6  C   LIG     1      15.325  32.571  16.446  1.00  0.00     0.043 A 
HETATM    7  C   LIG     1      14.235  31.787  16.841  1.00  0.00     0.066 A 
HETATM    8  C   LIG     1      13.824  30.712  16.042  1.00  0.00     0.043 A 
ENDROOT
BRANCH   7   9
HETATM    9  O   LIG     1      13.570  32.085  18.028  1.00  0.00    -0.361 OA
HETATM   10  H   LIG     1      13.889  31.723  18.919  1.00  0.00     0.217 HD
ENDBRANCH   7   9
TORSDOF 1
ENDMDL
MODEL 13
REMARK VINA RESULT:      -5.6      1.903      2.843
REMARK  1 active torsions:
REMARK  status: ('A' for Active; 'I' for Inactive)
REMARK    1  A    between atoms: C_7  and  O_8 
ROOT
HETATM    1  C   LIG     1      17.875  35.677  26.296  1.00  0.00     0.048 C 
HETATM    2  C   LIG     1      17.491  36.079  24.903  1.00  0.00    -0.059 A 
HETATM    3  C   LIG     1      17.411  37.433  24.540  1.00  0.00     0.013 A 
HETATM    4  C   LIG     1      17.060  37.799  23.231  1.00  0.00    -0.059 A 
HETATM    5  C   LIG     1      16.938  39.247  22.858  1.00  0.00     0.048 C 
HETATM    6  C   LIG     1      16.755  36.801  22.293  1.00  0.00     0.043 A 
HETATM    7  C   LIG     1      16.831  35.450  22.647  1.00  0.00     0.066 A 
HETATM    8  C   LIG     1      17.201  35.091  23.950  1.00  0.00     0.043 A 
ENDROOT
BRANCH   7   9
HETATM    9  O   LIG     1      16.535  34.474  21.699  1.00  0.00    -0.361 OA
HETATM   10  H   LIG     1      16.521  34.685  20.709  1.00  0.00     0.217 HD
ENDBRANCH   7   9
TORSDOF 1
ENDMDL
MODEL 14
REMARK VINA RESULT:      -5.6      1.587      3.215
REMARK  1 active torsions:
REMARK  status: ('A' for Active; 'I' for Inactive)
REMARK    1  A    between atoms: C_7  and  O_8 
ROOT
HETATM    1  C   LIG     1      16.554  34.482  21.489  1.00  0.00     0.048 C 
HETATM    2  C   LIG     1      16.829  35.556  22.499  1.00  0.00    -0.059 A 
HETATM    3  C   LIG     1      16.912  36.903  22.113  1.00  0.00     0.013 A 
HETATM    4  C   LIG     1      17.161  37.903  23.067  1.00  0.00    -0.059 A 
HETATM    5  C   LIG     1      17.287  39.337  22.644  1.00  0.00     0.048 C 
HETATM    6  C   LIG     1      17.361  37.543  24.408  1.00  0.00     0.043 A 
HETATM    7  C   LIG     1      17.282  36.202  24.801  1.00  0.00     0.066 A 
HETATM    8  C   LIG     1      17.013  35.212  23.846  1.00  0.00     0.043 A 
ENDROOT
BRANCH   7   9
HETATM    9  O   LIG     1      17.473  35.866  26.138  1.00  0.00    -0.361 OA
HETATM   10  H   LIG     1      16.719  35.494  26.704  1.00  0.00     0.217 HD
ENDBRANCH   7   9
TORSDOF 1
ENDMDL
MODEL 15
REMARK VINA RESULT:      -5.5      8.517     10.696
REMARK  1 active torsions:
REMARK  status: ('A' for Active; 'I' for Inactive)
REMARK    1  A    between atoms: C_7  and  O_8 
ROOT
HETATM    1  C   LIG     1      14.999  32.840  17.360  1.00  0.00     0.048 C 
HETATM    2  C   LIG     1      15.072  32.105  16.054  1.00  0.00    -0.059 A 
HETATM    3  C   LIG     1      14.241  31.002  15.802  1.00  0.00     0.013 A 
HETATM    4  C   LIG     1      14.311  30.325  14.573  1.00  0.00    -0.059 A 
HETATM    5  C   LIG     1      13.448  29.124  14.323  1.00  0.00     0.048 C 
HETATM    6  C   LIG     1      15.241  30.740  13.608  1.00  0.00     0.043 A 
HETATM    7  C   LIG     1      16.074  31.837  13.853  1.00  0.00     0.066 A 
HETATM    8  C   LIG     1      15.986  32.520  15.074  1.00  0.00     0.043 A 
ENDROOT
BRANCH   7   9
HETATM    9  O   LIG     1      16.984  32.239  12.879  1.00  0.00    -0.361 OA
HETATM   10  H   LIG     1      17.785  32.816  13.108  1.00  0.00     0.217 HD
ENDBRANCH   7   9
TORSDOF 1
ENDMDL
MODEL 16
REMARK VINA RESULT:      -5.5      8.516     10.957
REMARK  1 active torsions:
REMARK  status: ('A' for Active; 'I' for Inactive)
REMARK    1  A    between atoms: C_7  and  O_8 
ROOT
HETATM    1  C   LIG     1      13.404  29.094  14.235  1.00  0.00     0.048 C 
HETATM    2  C   LIG     1      14.288  30.261  14.565  1.00  0.00    -0.059 A 
HETATM    3  C   LIG     1      14.206  30.894  15.815  1.00  0.00     0.013 A 
HETATM    4  C   LIG     1      15.044  31.980  16.118  1.00  0.00    -0.059 A 
HETATM    5  C   LIG     1      14.927  32.677  17.442  1.00  0.00     0.048 C 
HETATM    6  C   LIG     1      15.942  32.450  15.149  1.00  0.00     0.043 A 
HETATM    7  C   LIG     1      16.028  31.826  13.900  1.00  0.00     0.066 A 
HETATM    8  C   LIG     1      15.202  30.731  13.611  1.00  0.00     0.043 A 
ENDROOT
BRANCH   7   9
HETATM    9  O   LIG     1      16.933  32.302  12.955  1.00  0.00    -0.361 OA
HETATM   10  H   LIG     1      17.578  31.682  12.480  1.00  0.00     0.217 HD
ENDBRANCH   7   9
TORSDOF 1
ENDMDL
MODEL 17
REMARK VINA RESULT:      -5.3      9.398     11.048
REMARK  1 active torsions:
REMARK  status: ('A' for Active; 'I' for Inactive)
REMARK    1  A    between atoms: C_7  and  O_8 
ROOT
HETATM    1  C   LIG     1      13.863  31.898  17.474  1.00  0.00     0.048 C 
HETATM    2  C   LIG     1      14.399  31.501  16.130  1.00  0.00    -0.059 A 
HETATM    3  C   LIG     1      15.384  32.271  15.492  1.00  0.00     0.013 A 
HETATM    4  C   LIG     1      15.886  31.886  14.238  1.00  0.00    -0.059 A 
HETATM    5  C   LIG     1      16.910  32.734  13.543  1.00  0.00     0.048 C 
HETATM    6  C   LIG     1      15.373  30.742  13.611  1.00  0.00     0.043 A 
HETATM    7  C   LIG     1      14.390  29.970  14.240  1.00  0.00     0.066 A 
HETATM    8  C   LIG     1      13.907  30.349  15.500  1.00  0.00     0.043 A 
ENDROOT
BRANCH   7   9
HETATM    9  O   LIG     1      13.901  28.831  13.605  1.00  0.00    -0.361 OA
HETATM   10  H   LIG     1      12.984  28.457  13.821  1.00  0.00     0.217 HD
ENDBRANCH   7   9
TORSDOF 1
ENDMDL
MODEL 18
REMARK VINA RESULT:      -5.3      9.255     11.127
REMARK  1 active torsions:
REMARK  status: ('A' for Active; 'I' for Inactive)
REMARK    1  A    between atoms: C_7  and  O_8 
ROOT
HETATM    1  C   LIG     1      17.056  32.893  13.648  1.00  0.00     0.048 C 
HETATM    2  C   LIG     1      15.998  32.058  14.307  1.00  0.00    -0.059 A 
HETATM    3  C   LIG     1      15.509  32.389  15.580  1.00  0.00     0.013 A 
HETATM    4  C   LIG     1      14.512  31.607  16.185  1.00  0.00    -0.059 A 
HETATM    5  C   LIG     1      14.020  31.943  17.562  1.00  0.00     0.048 C 
HETATM    6  C   LIG     1      14.029  30.469  15.521  1.00  0.00     0.043 A 
HETATM    7  C   LIG     1      14.514  30.131  14.252  1.00  0.00     0.066 A 
HETATM    8  C   LIG     1      15.495  30.928  13.646  1.00  0.00     0.043 A 
ENDROOT
BRANCH   7   9
HETATM    9  O   LIG     1      14.015  29.004  13.605  1.00  0.00    -0.361 OA
HETATM   10  H   LIG     1      14.541  28.535  12.877  1.00  0.00     0.217 HD
ENDBRANCH   7   9
TORSDOF 1
ENDMDL
MODEL 19
REMARK VINA RESULT:      -5.3      3.204      4.211
REMARK  1 active torsions:
REMARK  status: ('A' for Active; 'I' for Inactive)
REMARK    1  A    between atoms: C_7  and  O_8 
ROOT
HETATM    1  C   LIG     1      15.094  34.737  21.485  1.00  0.00     0.048 C 
HETATM    2  C   LIG     1      16.142  35.805  21.370  1.00  0.00    -0.059 A 
HETATM    3  C   LIG     1      16.129  36.919  22.224  1.00  0.00     0.013 A 
HETATM    4  C   LIG     1      17.120  37.909  22.115  1.00  0.00    -0.059 A 
HETATM    5  C   LIG     1      17.081  39.117  23.004  1.00  0.00     0.048 C 
HETATM    6  C   LIG     1      18.106  37.793  21.124  1.00  0.00     0.043 A 
HETATM    7  C   LIG     1      18.124  36.686  20.269  1.00  0.00     0.066 A 
HETATM    8  C   LIG     1      17.144  35.693  20.396  1.00  0.00     0.043 A 
ENDROOT
BRANCH   7   9
HETATM    9  O   LIG     1      19.117  36.585  19.298  1.00  0.00    -0.361 OA
HETATM   10  H   LIG     1      18.988  36.022  18.466  1.00  0.00     0.217 HD
ENDBRANCH   7   9
TORSDOF 1
ENDMDL
MODEL 20
REMARK VINA RESULT:      -5.3      7.995     10.292
REMARK  1 active torsions:
REMARK  status: ('A' for Active; 'I' for Inactive)
REMARK    1  A    between atoms: C_7  and  O_8 
ROOT
HETATM    1  C   LIG     1      15.773  30.808  13.494  1.00  0.00     0.048 C 
HETATM    2  C   LIG     1      15.047  31.242  14.732  1.00  0.00    -0.059 A 
HETATM    3  C   LIG     1      15.479  32.359  15.466  1.00  0.00     0.013 A 
HETATM    4  C   LIG     1      14.787  32.763  16.619  1.00  0.00    -0.059 A 
HETATM    5  C   LIG     1      15.275  33.933  17.421  1.00  0.00     0.048 C 
HETATM    6  C   LIG     1      13.676  32.024  17.053  1.00  0.00     0.043 A 
HETATM    7  C   LIG     1      13.241  30.909  16.328  1.00  0.00     0.066 A 
HETATM    8  C   LIG     1      13.925  30.522  15.167  1.00  0.00     0.043 A 
ENDROOT
BRANCH   7   9
HETATM    9  O   LIG     1      12.131  30.194  16.769  1.00  0.00    -0.361 OA
HETATM   10  H   LIG     1      12.230  29.320  17.272  1.00  0.00     0.217 HD
ENDBRANCH   7   9
TORSDOF 1
ENDMDL
