MODEL 1
REMARK VINA RESULT:      -5.8      0.000      0.000
REMARK  0 active torsions:
REMARK  status: ('A' for Active; 'I' for Inactive)
ROOT
HETATM    1  C   LIG     1      16.637  36.852  22.828  1.00  0.00     0.048 C 
HETATM    2  C   LIG     1      17.215  36.486  24.163  1.00  0.00    -0.062 A 
HETATM    3  C   LIG     1      17.229  35.143  24.571  1.00  0.00     0.007 A 
HETATM    4  C   LIG     1      17.765  34.791  25.814  1.00  0.00     0.001 A 
HETATM    5  C   LIG     1      18.287  35.776  26.657  1.00  0.00     0.000 A 
HETATM    6  C   LIG     1      18.276  37.115  26.257  1.00  0.00     0.001 A 
HETATM    7  C   LIG     1      17.742  37.471  25.015  1.00  0.00     0.007 A 
ENDROOT
TORSDOF 0
ENDMDL
MODEL 2
REMARK VINA RESULT:      -5.8      0.860      1.930
REMARK  0 active torsions:
REMARK  status: ('A' for Active; 'I' for Inactive)
ROOT
HETATM    1  C   LIG     1      16.697  35.280  22.739  1.00  0.00     0.048 C 
HETATM    2  C   LIG     1      17.211  35.726  24.075  1.00  0.00    -0.062 A 
HETATM    3  C   LIG     1      17.379  37.096  24.334  1.00  0.00     0.007 A 
HETATM    4  C   LIG     1      17.858  37.523  25.577  1.00  0.00     0.001 A 
HETATM    5  C   LIG     1      18.174  36.587  26.566  1.00  0.00     0.000 A 
HETATM    6  C   LIG     1      18.009  35.222  26.315  1.00  0.00     0.001 A 
HETATM    7  C   LIG     1      17.530  34.791  25.074  1.00  0.00     0.007 A 
ENDROOT
TORSDOF 0
ENDMDL
MODEL 3
REMARK VINA RESULT:      -5.5      3.995      5.225
REMARK  0 active torsions:
REMARK  status: ('A' for Active; 'I' for Inactive)
ROOT
HETATM    1  C   LIG     1      17.029  35.712  21.254  1.00  0.00     0.048 C 
HETATM    2  C   LIG     1      17.846  36.919  20.902  1.00  0.00    -0.062 A 
HETATM    3  C   LIG     1      18.742  36.864  19.823  1.00  0.00     0.007 A 
HETATM    4  C   LIG     1      19.508  37.985  19.486  1.00  0.00     0.001 A 
HETATM    5  C   LIG     1      19.386  39.165  20.226  1.00  0.00     0.000 A 
HETATM    6  C   LIG     1      18.497  39.227  21.302  1.00  0.00     0.001 A 
HETATM    7  C   LIG     1      17.728  38.109  21.641  1.00  0.00     0.007 A 
ENDROOT
TORSDOF 0
ENDMDL
MODEL 4
REMARK VINA RESULT:      -5.5      3.938      5.215
REMARK  0 active torsions:
REMARK  status: ('A' for Active; 'I' for Inactive)
ROOT
HETATM    1  C   LIG     1      16.953  38.983  22.767  1.00  0.00     0.048 C 
HETATM    2  C   LIG     1      17.799  38.516  21.621  1.00  0.00    -0.062 A 
HETATM    3  C   LIG     1      17.660  37.204  21.140  1.00  0.00     0.007 A 
HETATM    4  C   LIG     1      18.444  36.759  20.071  1.00  0.00     0.001 A 
HETATM    5  C   LIG     1      19.374  37.618  19.478  1.00  0.00     0.000 A 
HETATM    6  C   LIG     1      19.519  38.925  19.952  1.00  0.00     0.001 A 
HETATM    7  C   LIG     1      18.736  39.374  21.020  1.00  0.00     0.007 A 
ENDROOT
TORSDOF 0
ENDMDL
MODEL 5
REMARK VINA RESULT:      -5.5      3.818      5.010
REMARK  0 active torsions:
REMARK  status: ('A' for Active; 'I' for Inactive)
ROOT
HETATM    1  C   LIG     1      20.231  38.908  19.339  1.00  0.00     0.048 C 
HETATM    2  C   LIG     1      19.148  38.257  20.147  1.00  0.00    -0.062 A 
HETATM    3  C   LIG     1      18.749  36.945  19.849  1.00  0.00     0.007 A 
HETATM    4  C   LIG     1      17.740  36.329  20.597  1.00  0.00     0.001 A 
HETATM    5  C   LIG     1      17.123  37.019  21.644  1.00  0.00     0.000 A 
HETATM    6  C   LIG     1      17.515  38.326  21.947  1.00  0.00     0.001 A 
HETATM    7  C   LIG     1      18.524  38.945  21.202  1.00  0.00     0.007 A 
ENDROOT
TORSDOF 0
ENDMDL
MODEL 6
REMARK VINA RESULT:      -5.5      3.779      5.273
REMARK  0 active torsions:
REMARK  status: ('A' for Active; 'I' for Inactive)
ROOT
HETATM    1  C   LIG     1      20.200  38.927  19.346  1.00  0.00     0.048 C 
HETATM    2  C   LIG     1      19.130  38.256  20.154  1.00  0.00    -0.062 A 
HETATM    3  C   LIG     1      18.545  38.933  21.236  1.00  0.00     0.007 A 
HETATM    4  C   LIG     1      17.546  38.316  21.996  1.00  0.00     0.001 A 
HETATM    5  C   LIG     1      17.128  37.019  21.683  1.00  0.00     0.000 A 
HETATM    6  C   LIG     1      17.707  36.338  20.609  1.00  0.00     0.001 A 
HETATM    7  C   LIG     1      18.705  36.953  19.845  1.00  0.00     0.007 A 
ENDROOT
TORSDOF 0
ENDMDL
MODEL 7
REMARK VINA RESULT:      -5.4      0.910      2.832
REMARK  0 active torsions:
REMARK  status: ('A' for Active; 'I' for Inactive)
ROOT
HETATM    1  C   LIG     1      17.913  34.798  26.242  1.00  0.00     0.048 C 
HETATM    2  C   LIG     1      17.501  35.682  25.104  1.00  0.00    -0.062 A 
HETATM    3  C   LIG     1      17.158  35.112  23.868  1.00  0.00     0.007 A 
HETATM    4  C   LIG     1      16.772  35.927  22.799  1.00  0.00     0.001 A 
HETATM    5  C   LIG     1      16.729  37.316  22.956  1.00  0.00     0.000 A 
HETATM    6  C   LIG     1      17.070  37.891  24.184  1.00  0.00     0.001 A 
HETATM    7  C   LIG     1      17.455  37.078  25.255  1.00  0.00     0.007 A 
ENDROOT
TORSDOF 0
ENDMDL
MODEL 8
REMARK VINA RESULT:      -5.2      1.096      2.276
REMARK  0 active torsions:
REMARK  status: ('A' for Active; 'I' for Inactive)
ROOT
HETATM    1  C   LIG     1      16.660  34.988  21.865  1.00  0.00     0.048 C 
HETATM    2  C   LIG     1      16.980  35.676  23.158  1.00  0.00    -0.062 A 
HETATM    3  C   LIG     1      16.987  37.078  23.218  1.00  0.00     0.007 A 
HETATM    4  C   LIG     1      17.284  37.730  24.420  1.00  0.00     0.001 A 
HETATM    5  C   LIG     1      17.579  36.986  25.566  1.00  0.00     0.000 A 
HETATM    6  C   LIG     1      17.575  35.590  25.514  1.00  0.00     0.001 A 
HETATM    7  C   LIG     1      17.277  34.934  24.314  1.00  0.00     0.007 A 
ENDROOT
TORSDOF 0
ENDMDL
MODEL 9
REMARK VINA RESULT:      -5.1      3.445      4.569
REMARK  0 active torsions:
REMARK  status: ('A' for Active; 'I' for Inactive)
ROOT
HETATM    1  C   LIG     1      16.529  34.913  21.182  1.00  0.00     0.048 C 
HETATM    2  C   LIG     1      17.240  36.233  21.179  1.00  0.00    -0.062 A 
HETATM    3  C   LIG     1      18.116  36.550  20.129  1.00  0.00     0.007 A 
HETATM    4  C   LIG     1      18.784  37.779  20.117  1.00  0.00     0.001 A 
HETATM    5  C   LIG     1      18.584  38.696  21.152  1.00  0.00     0.000 A 
HETATM    6  C   LIG     1      17.713  38.388  22.201  1.00  0.00     0.001 A 
HETATM    7  C   LIG     1      17.042  37.160  22.216  1.00  0.00     0.007 A 
ENDROOT
TORSDOF 0
ENDMDL
MODEL 10
REMARK VINA RESULT:      -4.9      9.883     11.358
REMARK  0 active torsions:
REMARK  status: ('A' for Active; 'I' for Inactive)
ROOT
HETATM    1  C   LIG     1      15.344  30.054  13.557  1.00  0.00     0.048 C 
HETATM    2  C   LIG     1      14.743  30.726  14.755  1.00  0.00    -0.062 A 
HETATM    3  C   LIG     1      13.493  30.304  15.237  1.00  0.00     0.007 A 
HETATM    4  C   LIG     1      12.924  30.923  16.354  1.00  0.00     0.001 A 
HETATM    5  C   LIG     1      13.596  31.968  16.995  1.00  0.00     0.000 A 
HETATM    6  C   LIG     1      14.840  32.394  16.521  1.00  0.00     0.001 A 
HETATM    7  C   LIG     1      15.413  31.776  15.404  1.00  0.00     0.007 A 
ENDROOT
TORSDOF 0
ENDMDL
MODEL 11
REMARK VINA RESULT:      -4.8      2.391      3.617
REMARK  0 active torsions:
REMARK  status: ('A' for Active; 'I' for Inactive)
ROOT
HETATM    1  C   LIG     1      18.343  39.311  21.398  1.00  0.00     0.048 C 
HETATM    2  C   LIG     1      17.809  37.970  21.803  1.00  0.00    -0.062 A 
HETATM    3  C   LIG     1      17.753  36.929  20.862  1.00  0.00     0.007 A 
HETATM    4  C   LIG     1      17.258  35.674  21.230  1.00  0.00     0.001 A 
HETATM    5  C   LIG     1      16.813  35.451  22.536  1.00  0.00     0.000 A 
HETATM    6  C   LIG     1      16.865  36.482  23.478  1.00  0.00     0.001 A 
HETATM    7  C   LIG     1      17.361  37.738  23.114  1.00  0.00     0.007 A 
ENDROOT
TORSDOF 0
ENDMDL
MODEL 12
REMARK VINA RESULT:      -4.8      2.143      3.568
REMARK  0 active torsions:
REMARK  status: ('A' for Active; 'I' for Inactive)
ROOT
HETATM    1  C   LIG     1      17.991  39.128  21.412  1.00  0.00     0.048 C 
HETATM    2  C   LIG     1      17.606  37.776  21.933  1.00  0.00    -0.062 A 
HETATM    3  C   LIG     1      17.361  37.601  23.304  1.00  0.00     0.007 A 
HETATM    4  C   LIG     1      17.001  36.344  23.800  1.00  0.00     0.001 A 
HETATM    5  C   LIG     1      16.886  35.254  22.931  1.00  0.00     0.000 A 
HETATM    6  C   LIG     1      17.128  35.421  21.565  1.00  0.00     0.001 A 
HETATM    7  C   LIG     1      17.488  36.677  21.065  1.00  0.00     0.007 A 
ENDROOT
TORSDOF 0
ENDMDL
MODEL 13
REMARK VINA RESULT:      -4.8      9.796     11.094
REMARK  0 active torsions:
REMARK  status: ('A' for Active; 'I' for Inactive)
ROOT
HETATM    1  C   LIG     1      16.799  32.793  15.126  1.00  0.00     0.048 C 
HETATM    2  C   LIG     1      15.538  32.068  15.487  1.00  0.00    -0.062 A 
HETATM    3  C   LIG     1      14.787  32.486  16.598  1.00  0.00     0.007 A 
HETATM    4  C   LIG     1      13.609  31.818  16.944  1.00  0.00     0.001 A 
HETATM    5  C   LIG     1      13.173  30.727  16.185  1.00  0.00     0.000 A 
HETATM    6  C   LIG     1      13.915  30.304  15.078  1.00  0.00     0.001 A 
HETATM    7  C   LIG     1      15.094  30.971  14.729  1.00  0.00     0.007 A 
ENDROOT
TORSDOF 0
ENDMDL
MODEL 14
REMARK VINA RESULT:      -4.7      9.961     11.583
REMARK  0 active torsions:
REMARK  status: ('A' for Active; 'I' for Inactive)
ROOT
HETATM    1  C   LIG     1      13.153  29.061  14.252  1.00  0.00     0.048 C 
HETATM    2  C   LIG     1      13.785  30.192  15.007  1.00  0.00    -0.062 A 
HETATM    3  C   LIG     1      13.150  30.709  16.148  1.00  0.00     0.007 A 
HETATM    4  C   LIG     1      13.731  31.764  16.859  1.00  0.00     0.001 A 
HETATM    5  C   LIG     1      14.946  32.310  16.436  1.00  0.00     0.000 A 
HETATM    6  C   LIG     1      15.584  31.800  15.301  1.00  0.00     0.001 A 
HETATM    7  C   LIG     1      15.007  30.745  14.587  1.00  0.00     0.007 A 
ENDROOT
TORSDOF 0
ENDMDL
MODEL 15
REMARK VINA RESULT:      -4.7      9.920     11.768
REMARK  0 active torsions:
REMARK  status: ('A' for Active; 'I' for Inactive)
ROOT
HETATM    1  C   LIG     1      13.791  31.908  17.367  1.00  0.00     0.048 C 
HETATM    2  C   LIG     1      14.319  31.409  16.055  1.00  0.00    -0.062 A 
HETATM    3  C   LIG     1      13.726  30.294  15.444  1.00  0.00     0.007 A 
HETATM    4  C   LIG     1      14.211  29.821  14.220  1.00  0.00     0.001 A 
HETATM    5  C   LIG     1      15.292  30.456  13.602  1.00  0.00     0.000 A 
HETATM    6  C   LIG     1      15.888  31.566  14.205  1.00  0.00     0.001 A 
HETATM    7  C   LIG     1      15.405  32.043  15.428  1.00  0.00     0.007 A 
ENDROOT
TORSDOF 0
ENDMDL
MODEL 16
REMARK VINA RESULT:      -4.6      9.965     11.851
REMARK  0 active torsions:
REMARK  status: ('A' for Active; 'I' for Inactive)
ROOT
HETATM    1  C   LIG     1      15.372  33.014  16.460  1.00  0.00     0.048 C 
HETATM    2  C   LIG     1      14.891  31.816  15.697  1.00  0.00    -0.062 A 
HETATM    3  C   LIG     1      15.627  31.348  14.597  1.00  0.00     0.007 A 
HETATM    4  C   LIG     1      15.188  30.231  13.879  1.00  0.00     0.001 A 
HETATM    5  C   LIG     1      14.010  29.577  14.253  1.00  0.00     0.000 A 
HETATM    6  C   LIG     1      13.271  30.038  15.346  1.00  0.00     0.001 A 
HETATM    7  C   LIG     1      13.708  31.153  16.067  1.00  0.00     0.007 A 
ENDROOT
TORSDOF 0
ENDMDL
MODEL 17
REMARK VINA RESULT:      -4.1      2.572      4.099
REMARK  0 active torsions:
REMARK  status: ('A' for Active; 'I' for Inactive)
ROOT
HETATM    1  C   LIG     1      17.009  38.012  23.638  1.00  0.00     0.048 C 
HETATM    2  C   LIG     1      16.473  36.905  22.780  1.00  0.00    -0.062 A 
HETATM    3  C   LIG     1      17.235  35.742  22.588  1.00  0.00     0.007 A 
HETATM    4  C   LIG     1      16.744  34.703  21.790  1.00  0.00     0.001 A 
HETATM    5  C   LIG     1      15.493  34.821  21.177  1.00  0.00     0.000 A 
HETATM    6  C   LIG     1      14.729  35.977  21.363  1.00  0.00     0.001 A 
HETATM    7  C   LIG     1      15.216  37.017  22.162  1.00  0.00     0.007 A 
ENDROOT
TORSDOF 0
ENDMDL
MODEL 18
REMARK VINA RESULT:      -4.1      8.360     10.349
REMARK  0 active torsions:
REMARK  status: ('A' for Active; 'I' for Inactive)
ROOT
HETATM    1  C   LIG     1      15.051  32.862  18.911  1.00  0.00     0.048 C 
HETATM    2  C   LIG     1      14.821  32.200  17.586  1.00  0.00    -0.062 A 
HETATM    3  C   LIG     1      15.686  32.468  16.514  1.00  0.00     0.007 A 
HETATM    4  C   LIG     1      15.480  31.856  15.273  1.00  0.00     0.001 A 
HETATM    5  C   LIG     1      14.409  30.976  15.095  1.00  0.00     0.000 A 
HETATM    6  C   LIG     1      13.543  30.705  16.158  1.00  0.00     0.001 A 
HETATM    7  C   LIG     1      13.746  31.314  17.400  1.00  0.00     0.007 A 
ENDROOT
TORSDOF 0
ENDMDL
MODEL 19
REMARK VINA RESULT:      -4.0     11.891     13.582
REMARK  0 active torsions:
REMARK  status: ('A' for Active; 'I' for Inactive)
ROOT
HETATM    1  C   LIG     1      15.432  31.312  14.867  1.00  0.00     0.048 C 
HETATM    2  C   LIG     1      14.789  30.019  14.464  1.00  0.00    -0.062 A 
HETATM    3  C   LIG     1      13.397  29.872  14.562  1.00  0.00     0.007 A 
HETATM    4  C   LIG     1      12.787  28.670  14.189  1.00  0.00     0.001 A 
HETATM    5  C   LIG     1      13.564  27.607  13.719  1.00  0.00     0.000 A 
HETATM    6  C   LIG     1      14.951  27.745  13.620  1.00  0.00     0.001 A 
HETATM    7  C   LIG     1      15.564  28.946  13.991  1.00  0.00     0.007 A 
ENDROOT
TORSDOF 0
ENDMDL
MODEL 20
REMARK VINA RESULT:      -3.7     12.412     13.850
REMARK  0 active torsions:
REMARK  status: ('A' for Active; 'I' for Inactive)
ROOT
HETATM    1  C   LIG     1      17.745  33.556  13.038  1.00  0.00     0.048 C 
HETATM    2  C   LIG     1      18.926  34.039  12.251  1.00  0.00    -0.062 A 
HETATM    3  C   LIG     1      18.733  34.612  10.984  1.00  0.00     0.007 A 
HETATM    4  C   LIG     1      19.828  35.066  10.241  1.00  0.00     0.001 A 
HETATM    5  C   LIG     1      21.122  34.948  10.757  1.00  0.00     0.000 A 
HETATM    6  C   LIG     1      21.322  34.379  12.018  1.00  0.00     0.001 A 
HETATM    7  C   LIG     1      20.230  33.925  12.764  1.00  0.00     0.007 A 
ENDROOT
TORSDOF 0
ENDMDL
