REMARK  0 active torsions:
REMARK  status: ('A' for Active; 'I' for Inactive)
ROOT
HETATM    1 CL   LIG     1      -0.137   3.151  -0.050  1.00  0.00    -0.084 Cl
HETATM    2  C   LIG     1      -0.061   1.399  -0.022  1.00  0.00     0.037 A 
HETATM    3  C   LIG     1       1.180   0.752  -0.006  1.00  0.00     0.047 A 
HETATM    4  C   LIG     1       1.242  -0.646   0.016  1.00  0.00     0.037 A 
HETATM    5 CL   LIG     1       2.797  -1.456   0.036  1.00  0.00    -0.084 Cl
HETATM    6  C   LIG     1       0.061  -1.398   0.022  1.00  0.00     0.047 A 
HETATM    7  C   LIG     1      -1.181  -0.752   0.006  1.00  0.00     0.037 A 
HETATM    8 CL   LIG     1      -2.660  -1.694   0.014  1.00  0.00    -0.084 Cl
HETATM    9  C   LIG     1      -1.241   0.646  -0.016  1.00  0.00     0.047 A 
ENDROOT
TORSDOF 0
