REMARK  0 active torsions:
REMARK  status: ('A' for Active; 'I' for Inactive)
ROOT
HETATM    1 BR   LIG     1       2.934  -1.457   0.022  1.00  0.00    -0.051 Br
HETATM    2  C   LIG     1       1.240  -0.577   0.009  1.00  0.00     0.012 A 
HETATM    3  C   LIG     1       0.059  -1.330  -0.010  1.00  0.00     0.038 A 
HETATM    4  C   LIG     1      -1.183  -0.685  -0.019  1.00  0.00     0.012 A 
HETATM    5 BR   LIG     1      -2.793  -1.712  -0.046  1.00  0.00    -0.051 Br
HETATM    6  C   LIG     1      -1.244   0.714  -0.009  1.00  0.00     0.019 A 
HETATM    7  C   LIG     1      -0.065   1.466   0.011  1.00  0.00     0.003 A 
HETATM    8  C   LIG     1       1.176   0.821   0.020  1.00  0.00     0.019 A 
ENDROOT
TORSDOF 0
