MODEL 1
REMARK VINA RESULT:      -5.4      0.000      0.000
REMARK  1 active torsions:
REMARK  status: ('A' for Active; 'I' for Inactive)
REMARK    1  A    between atoms: S_1  and  C_2 
ROOT
HETATM    1  C   LIG     1      17.195  36.848  24.353  1.00  0.00    -0.003 A 
HETATM    2  C   LIG     1      17.880  37.548  25.354  1.00  0.00     0.018 A 
HETATM    3  C   LIG     1      18.443  36.855  26.432  1.00  0.00     0.001 A 
HETATM    4  C   LIG     1      18.321  35.464  26.511  1.00  0.00     0.000 A 
HETATM    5  C   LIG     1      17.636  34.765  25.512  1.00  0.00     0.001 A 
HETATM    6  C   LIG     1      17.074  35.455  24.433  1.00  0.00     0.018 A 
ENDROOT
BRANCH   1   7
HETATM    7  S   LIG     1      16.476  37.733  22.974  1.00  0.00    -0.143 SA
HETATM    8  H   LIG     1      16.623  36.625  22.117  1.00  0.00     0.107 HD
ENDBRANCH   1   7
TORSDOF 1
ENDMDL
MODEL 2
REMARK VINA RESULT:      -5.0      4.180      5.179
REMARK  1 active torsions:
REMARK  status: ('A' for Active; 'I' for Inactive)
REMARK    1  A    between atoms: S_1  and  C_2 
ROOT
HETATM    1  C   LIG     1      17.671  37.764  21.457  1.00  0.00    -0.003 A 
HETATM    2  C   LIG     1      18.307  39.010  21.381  1.00  0.00     0.018 A 
HETATM    3  C   LIG     1      19.292  39.234  20.413  1.00  0.00     0.001 A 
HETATM    4  C   LIG     1      19.644  38.215  19.522  1.00  0.00     0.000 A 
HETATM    5  C   LIG     1      19.010  36.970  19.598  1.00  0.00     0.001 A 
HETATM    6  C   LIG     1      18.024  36.744  20.564  1.00  0.00     0.018 A 
ENDROOT
BRANCH   1   7
HETATM    7  S   LIG     1      16.410  37.476  22.694  1.00  0.00    -0.143 SA
HETATM    8  H   LIG     1      15.480  37.055  21.725  1.00  0.00     0.107 HD
ENDBRANCH   1   7
TORSDOF 1
ENDMDL
MODEL 3
REMARK VINA RESULT:      -5.0      4.179      5.487
REMARK  1 active torsions:
REMARK  status: ('A' for Active; 'I' for Inactive)
REMARK    1  A    between atoms: S_1  and  C_2 
ROOT
HETATM    1  C   LIG     1      17.675  37.764  21.459  1.00  0.00    -0.003 A 
HETATM    2  C   LIG     1      18.033  36.745  20.567  1.00  0.00     0.018 A 
HETATM    3  C   LIG     1      19.016  36.975  19.599  1.00  0.00     0.001 A 
HETATM    4  C   LIG     1      19.642  38.223  19.520  1.00  0.00     0.000 A 
HETATM    5  C   LIG     1      19.285  39.242  20.409  1.00  0.00     0.001 A 
HETATM    6  C   LIG     1      18.303  39.014  21.378  1.00  0.00     0.018 A 
ENDROOT
BRANCH   1   7
HETATM    7  S   LIG     1      16.419  37.471  22.698  1.00  0.00    -0.143 SA
HETATM    8  H   LIG     1      15.746  38.665  22.377  1.00  0.00     0.107 HD
ENDBRANCH   1   7
TORSDOF 1
ENDMDL
MODEL 4
REMARK VINA RESULT:      -4.7      4.083      4.706
REMARK  1 active torsions:
REMARK  status: ('A' for Active; 'I' for Inactive)
REMARK    1  A    between atoms: S_1  and  C_2 
ROOT
HETATM    1  C   LIG     1      18.792  38.093  20.426  1.00  0.00    -0.003 A 
HETATM    2  C   LIG     1      18.161  38.795  21.460  1.00  0.00     0.018 A 
HETATM    3  C   LIG     1      17.149  38.180  22.208  1.00  0.00     0.001 A 
HETATM    4  C   LIG     1      16.768  36.866  21.921  1.00  0.00     0.000 A 
HETATM    5  C   LIG     1      17.397  36.164  20.888  1.00  0.00     0.001 A 
HETATM    6  C   LIG     1      18.408  36.776  20.140  1.00  0.00     0.018 A 
ENDROOT
BRANCH   1   7
HETATM    7  S   LIG     1      20.086  38.877  19.470  1.00  0.00    -0.143 SA
HETATM    8  H   LIG     1      20.915  39.007  20.600  1.00  0.00     0.107 HD
ENDBRANCH   1   7
TORSDOF 1
ENDMDL
MODEL 5
REMARK VINA RESULT:      -4.7      0.843      1.970
REMARK  1 active torsions:
REMARK  status: ('A' for Active; 'I' for Inactive)
REMARK    1  A    between atoms: S_1  and  C_2 
ROOT
HETATM    1  C   LIG     1      17.386  36.450  23.878  1.00  0.00    -0.003 A 
HETATM    2  C   LIG     1      17.356  35.291  24.664  1.00  0.00     0.018 A 
HETATM    3  C   LIG     1      17.857  35.319  25.970  1.00  0.00     0.001 A 
HETATM    4  C   LIG     1      18.388  36.503  26.491  1.00  0.00     0.000 A 
HETATM    5  C   LIG     1      18.419  37.660  25.707  1.00  0.00     0.001 A 
HETATM    6  C   LIG     1      17.918  37.635  24.401  1.00  0.00     0.018 A 
ENDROOT
BRANCH   1   7
HETATM    7  S   LIG     1      16.745  36.416  22.207  1.00  0.00    -0.143 SA
HETATM    8  H   LIG     1      15.761  35.469  22.547  1.00  0.00     0.107 HD
ENDBRANCH   1   7
TORSDOF 1
ENDMDL
MODEL 6
REMARK VINA RESULT:      -4.6      2.353      3.826
REMARK  1 active torsions:
REMARK  status: ('A' for Active; 'I' for Inactive)
REMARK    1  A    between atoms: S_1  and  C_2 
ROOT
HETATM    1  C   LIG     1      17.279  37.152  23.638  1.00  0.00    -0.003 A 
HETATM    2  C   LIG     1      17.009  35.786  23.487  1.00  0.00     0.018 A 
HETATM    3  C   LIG     1      17.004  35.210  22.211  1.00  0.00     0.001 A 
HETATM    4  C   LIG     1      17.267  35.999  21.087  1.00  0.00     0.000 A 
HETATM    5  C   LIG     1      17.536  37.363  21.237  1.00  0.00     0.001 A 
HETATM    6  C   LIG     1      17.543  37.940  22.511  1.00  0.00     0.018 A 
ENDROOT
BRANCH   1   7
HETATM    7  S   LIG     1      17.288  37.888  25.269  1.00  0.00    -0.143 SA
HETATM    8  H   LIG     1      18.227  36.954  25.745  1.00  0.00     0.107 HD
ENDBRANCH   1   7
TORSDOF 1
ENDMDL
MODEL 7
REMARK VINA RESULT:      -4.5      2.068      3.061
REMARK  1 active torsions:
REMARK  status: ('A' for Active; 'I' for Inactive)
REMARK    1  A    between atoms: S_1  and  C_2 
ROOT
HETATM    1  C   LIG     1      17.466  36.308  24.944  1.00  0.00    -0.003 A 
HETATM    2  C   LIG     1      17.090  37.553  24.425  1.00  0.00     0.018 A 
HETATM    3  C   LIG     1      16.579  37.644  23.126  1.00  0.00     0.001 A 
HETATM    4  C   LIG     1      16.444  36.492  22.345  1.00  0.00     0.000 A 
HETATM    5  C   LIG     1      16.820  35.248  22.862  1.00  0.00     0.001 A 
HETATM    6  C   LIG     1      17.330  35.155  24.160  1.00  0.00     0.018 A 
ENDROOT
BRANCH   1   7
HETATM    7  S   LIG     1      18.120  36.191  26.606  1.00  0.00    -0.143 SA
HETATM    8  H   LIG     1      16.950  35.568  27.080  1.00  0.00     0.107 HD
ENDBRANCH   1   7
TORSDOF 1
ENDMDL
MODEL 8
REMARK VINA RESULT:      -4.4      2.997      4.088
REMARK  1 active torsions:
REMARK  status: ('A' for Active; 'I' for Inactive)
REMARK    1  A    between atoms: S_1  and  C_2 
ROOT
HETATM    1  C   LIG     1      17.967  37.762  21.297  1.00  0.00    -0.003 A 
HETATM    2  C   LIG     1      17.831  36.556  20.598  1.00  0.00     0.018 A 
HETATM    3  C   LIG     1      17.186  35.468  21.198  1.00  0.00     0.001 A 
HETATM    4  C   LIG     1      16.678  35.585  22.496  1.00  0.00     0.000 A 
HETATM    5  C   LIG     1      16.814  36.788  23.195  1.00  0.00     0.001 A 
HETATM    6  C   LIG     1      17.457  37.877  22.596  1.00  0.00     0.018 A 
ENDROOT
BRANCH   1   7
HETATM    7  S   LIG     1      18.790  39.154  20.530  1.00  0.00    -0.143 SA
HETATM    8  H   LIG     1      17.692  40.002  20.766  1.00  0.00     0.107 HD
ENDBRANCH   1   7
TORSDOF 1
ENDMDL
MODEL 9
REMARK VINA RESULT:      -4.3     10.062     11.115
REMARK  1 active torsions:
REMARK  status: ('A' for Active; 'I' for Inactive)
REMARK    1  A    between atoms: S_1  and  C_2 
ROOT
HETATM    1  C   LIG     1      15.646  32.079  15.353  1.00  0.00    -0.003 A 
HETATM    2  C   LIG     1      14.944  32.505  16.488  1.00  0.00     0.018 A 
HETATM    3  C   LIG     1      13.776  31.841  16.879  1.00  0.00     0.001 A 
HETATM    4  C   LIG     1      13.308  30.753  16.137  1.00  0.00     0.000 A 
HETATM    5  C   LIG     1      14.007  30.328  15.003  1.00  0.00     0.001 A 
HETATM    6  C   LIG     1      15.175  30.989  14.611  1.00  0.00     0.018 A 
ENDROOT
BRANCH   1   7
HETATM    7  S   LIG     1      17.140  32.927  14.852  1.00  0.00    -0.143 SA
HETATM    8  H   LIG     1      16.605  34.184  15.191  1.00  0.00     0.107 HD
ENDBRANCH   1   7
TORSDOF 1
ENDMDL
MODEL 10
REMARK VINA RESULT:      -4.3     10.060     11.234
REMARK  1 active torsions:
REMARK  status: ('A' for Active; 'I' for Inactive)
REMARK    1  A    between atoms: S_1  and  C_2 
ROOT
HETATM    1  C   LIG     1      15.646  32.083  15.346  1.00  0.00    -0.003 A 
HETATM    2  C   LIG     1      15.166  30.998  14.600  1.00  0.00     0.018 A 
HETATM    3  C   LIG     1      14.001  30.335  15.000  1.00  0.00     0.001 A 
HETATM    4  C   LIG     1      13.315  30.754  16.144  1.00  0.00     0.000 A 
HETATM    5  C   LIG     1      13.793  31.837  16.890  1.00  0.00     0.001 A 
HETATM    6  C   LIG     1      14.957  32.501  16.491  1.00  0.00     0.018 A 
ENDROOT
BRANCH   1   7
HETATM    7  S   LIG     1      17.136  32.933  14.835  1.00  0.00    -0.143 SA
HETATM    8  H   LIG     1      16.749  32.910  13.481  1.00  0.00     0.107 HD
ENDBRANCH   1   7
TORSDOF 1
ENDMDL
MODEL 11
REMARK VINA RESULT:      -4.2     10.502     11.734
REMARK  1 active torsions:
REMARK  status: ('A' for Active; 'I' for Inactive)
REMARK    1  A    between atoms: S_1  and  C_2 
ROOT
HETATM    1  C   LIG     1      14.712  31.883  15.963  1.00  0.00    -0.003 A 
HETATM    2  C   LIG     1      13.573  31.085  16.123  1.00  0.00     0.018 A 
HETATM    3  C   LIG     1      13.336  30.018  15.248  1.00  0.00     0.001 A 
HETATM    4  C   LIG     1      14.237  29.749  14.213  1.00  0.00     0.000 A 
HETATM    5  C   LIG     1      15.375  30.546  14.052  1.00  0.00     0.001 A 
HETATM    6  C   LIG     1      15.614  31.612  14.925  1.00  0.00     0.018 A 
ENDROOT
BRANCH   1   7
HETATM    7  S   LIG     1      15.016  33.246  17.082  1.00  0.00    -0.143 SA
HETATM    8  H   LIG     1      13.733  33.136  17.650  1.00  0.00     0.107 HD
ENDBRANCH   1   7
TORSDOF 1
ENDMDL
MODEL 12
REMARK VINA RESULT:      -4.2      9.971     11.062
REMARK  1 active torsions:
REMARK  status: ('A' for Active; 'I' for Inactive)
REMARK    1  A    between atoms: S_1  and  C_2 
ROOT
HETATM    1  C   LIG     1      14.639  32.464  16.353  1.00  0.00    -0.003 A 
HETATM    2  C   LIG     1      15.412  31.925  15.317  1.00  0.00     0.018 A 
HETATM    3  C   LIG     1      15.002  30.750  14.676  1.00  0.00     0.001 A 
HETATM    4  C   LIG     1      13.820  30.114  15.071  1.00  0.00     0.000 A 
HETATM    5  C   LIG     1      13.048  30.652  16.106  1.00  0.00     0.001 A 
HETATM    6  C   LIG     1      13.456  31.826  16.747  1.00  0.00     0.018 A 
ENDROOT
BRANCH   1   7
HETATM    7  S   LIG     1      15.163  33.966  17.173  1.00  0.00    -0.143 SA
HETATM    8  H   LIG     1      15.356  34.632  15.947  1.00  0.00     0.107 HD
ENDBRANCH   1   7
TORSDOF 1
ENDMDL
MODEL 13
REMARK VINA RESULT:      -4.1     10.246     11.188
REMARK  1 active torsions:
REMARK  status: ('A' for Active; 'I' for Inactive)
REMARK    1  A    between atoms: S_1  and  C_2 
ROOT
HETATM    1  C   LIG     1      14.783  30.808  15.058  1.00  0.00    -0.003 A 
HETATM    2  C   LIG     1      15.661  31.884  15.244  1.00  0.00     0.018 A 
HETATM    3  C   LIG     1      15.385  32.852  16.216  1.00  0.00     0.001 A 
HETATM    4  C   LIG     1      14.233  32.747  17.001  1.00  0.00     0.000 A 
HETATM    5  C   LIG     1      13.356  31.673  16.816  1.00  0.00     0.001 A 
HETATM    6  C   LIG     1      13.630  30.704  15.846  1.00  0.00     0.018 A 
ENDROOT
BRANCH   1   7
HETATM    7  S   LIG     1      15.136  29.569  13.816  1.00  0.00    -0.143 SA
HETATM    8  H   LIG     1      16.522  29.798  13.904  1.00  0.00     0.107 HD
ENDBRANCH   1   7
TORSDOF 1
ENDMDL
MODEL 14
REMARK VINA RESULT:      -4.0      2.447      3.927
REMARK  1 active torsions:
REMARK  status: ('A' for Active; 'I' for Inactive)
REMARK    1  A    between atoms: S_1  and  C_2 
ROOT
HETATM    1  C   LIG     1      17.703  37.618  24.579  1.00  0.00    -0.003 A 
HETATM    2  C   LIG     1      16.424  37.440  24.036  1.00  0.00     0.018 A 
HETATM    3  C   LIG     1      16.095  38.030  22.811  1.00  0.00     0.001 A 
HETATM    4  C   LIG     1      17.043  38.799  22.128  1.00  0.00     0.000 A 
HETATM    5  C   LIG     1      18.320  38.977  22.669  1.00  0.00     0.001 A 
HETATM    6  C   LIG     1      18.651  38.388  23.893  1.00  0.00     0.018 A 
ENDROOT
BRANCH   1   7
HETATM    7  S   LIG     1      18.124  36.863  26.146  1.00  0.00    -0.143 SA
HETATM    8  H   LIG     1      17.752  35.584  25.691  1.00  0.00     0.107 HD
ENDBRANCH   1   7
TORSDOF 1
ENDMDL
MODEL 15
REMARK VINA RESULT:      -3.8     10.774     11.821
REMARK  1 active torsions:
REMARK  status: ('A' for Active; 'I' for Inactive)
REMARK    1  A    between atoms: S_1  and  C_2 
ROOT
HETATM    1  C   LIG     1      14.713  31.504  15.876  1.00  0.00    -0.003 A 
HETATM    2  C   LIG     1      15.532  32.426  15.211  1.00  0.00     0.018 A 
HETATM    3  C   LIG     1      16.023  32.131  13.934  1.00  0.00     0.001 A 
HETATM    4  C   LIG     1      15.698  30.917  13.322  1.00  0.00     0.000 A 
HETATM    5  C   LIG     1      14.881  29.995  13.986  1.00  0.00     0.001 A 
HETATM    6  C   LIG     1      14.389  30.288  15.261  1.00  0.00     0.018 A 
ENDROOT
BRANCH   1   7
HETATM    7  S   LIG     1      14.084  31.880  17.509  1.00  0.00    -0.143 SA
HETATM    8  H   LIG     1      15.362  32.239  17.978  1.00  0.00     0.107 HD
ENDBRANCH   1   7
TORSDOF 1
ENDMDL
MODEL 16
REMARK VINA RESULT:      -3.5     10.421     11.686
REMARK  1 active torsions:
REMARK  status: ('A' for Active; 'I' for Inactive)
REMARK    1  A    between atoms: S_1  and  C_2 
ROOT
HETATM    1  C   LIG     1      14.553  31.350  15.575  1.00  0.00    -0.003 A 
HETATM    2  C   LIG     1      14.829  30.805  14.315  1.00  0.00     0.018 A 
HETATM    3  C   LIG     1      15.870  31.328  13.539  1.00  0.00     0.001 A 
HETATM    4  C   LIG     1      16.634  32.395  14.022  1.00  0.00     0.000 A 
HETATM    5  C   LIG     1      16.359  32.940  15.280  1.00  0.00     0.001 A 
HETATM    6  C   LIG     1      15.320  32.419  16.057  1.00  0.00     0.018 A 
ENDROOT
BRANCH   1   7
HETATM    7  S   LIG     1      13.223  30.681  16.569  1.00  0.00    -0.143 SA
HETATM    8  H   LIG     1      12.279  30.899  15.548  1.00  0.00     0.107 HD
ENDBRANCH   1   7
TORSDOF 1
ENDMDL
MODEL 17
REMARK VINA RESULT:      -3.4      3.678      4.885
REMARK  1 active torsions:
REMARK  status: ('A' for Active; 'I' for Inactive)
REMARK    1  A    between atoms: S_1  and  C_2 
ROOT
HETATM    1  C   LIG     1      17.596  36.262  20.509  1.00  0.00    -0.003 A 
HETATM    2  C   LIG     1      16.644  35.622  19.705  1.00  0.00     0.018 A 
HETATM    3  C   LIG     1      15.663  34.813  20.291  1.00  0.00     0.001 A 
HETATM    4  C   LIG     1      15.634  34.643  21.678  1.00  0.00     0.000 A 
HETATM    5  C   LIG     1      16.585  35.280  22.482  1.00  0.00     0.001 A 
HETATM    6  C   LIG     1      17.565  36.090  21.898  1.00  0.00     0.018 A 
ENDROOT
BRANCH   1   7
HETATM    7  S   LIG     1      18.850  37.297  19.761  1.00  0.00    -0.143 SA
HETATM    8  H   LIG     1      18.842  38.187  20.851  1.00  0.00     0.107 HD
ENDBRANCH   1   7
TORSDOF 1
ENDMDL
MODEL 18
REMARK VINA RESULT:      -3.3     19.790     20.446
REMARK  1 active torsions:
REMARK  status: ('A' for Active; 'I' for Inactive)
REMARK    1  A    between atoms: S_1  and  C_2 
ROOT
HETATM    1  C   LIG     1      15.484  19.440  13.794  1.00  0.00    -0.003 A 
HETATM    2  C   LIG     1      14.196  18.892  13.828  1.00  0.00     0.018 A 
HETATM    3  C   LIG     1      13.673  18.407  15.031  1.00  0.00     0.001 A 
HETATM    4  C   LIG     1      14.436  18.469  16.201  1.00  0.00     0.000 A 
HETATM    5  C   LIG     1      15.723  19.015  16.169  1.00  0.00     0.001 A 
HETATM    6  C   LIG     1      16.247  19.501  14.967  1.00  0.00     0.018 A 
ENDROOT
BRANCH   1   7
HETATM    7  S   LIG     1      16.154  20.062  12.255  1.00  0.00    -0.143 SA
HETATM    8  H   LIG     1      14.906  19.964  11.610  1.00  0.00     0.107 HD
ENDBRANCH   1   7
TORSDOF 1
ENDMDL
MODEL 19
REMARK VINA RESULT:      -3.2      6.852      8.152
REMARK  1 active torsions:
REMARK  status: ('A' for Active; 'I' for Inactive)
REMARK    1  A    between atoms: S_1  and  C_2 
ROOT
HETATM    1  C   LIG     1      15.376  33.632  19.319  1.00  0.00    -0.003 A 
HETATM    2  C   LIG     1      15.352  34.365  18.125  1.00  0.00     0.018 A 
HETATM    3  C   LIG     1      14.902  33.765  16.944  1.00  0.00     0.001 A 
HETATM    4  C   LIG     1      14.477  32.433  16.954  1.00  0.00     0.000 A 
HETATM    5  C   LIG     1      14.501  31.700  18.145  1.00  0.00     0.001 A 
HETATM    6  C   LIG     1      14.949  32.298  19.326  1.00  0.00     0.018 A 
ENDROOT
BRANCH   1   7
HETATM    7  S   LIG     1      15.950  34.399  20.830  1.00  0.00    -0.143 SA
HETATM    8  H   LIG     1      15.074  33.627  21.618  1.00  0.00     0.107 HD
ENDBRANCH   1   7
TORSDOF 1
ENDMDL
