MODEL 1
REMARK VINA RESULT:      -5.8      0.000      0.000
REMARK  0 active torsions:
REMARK  status: ('A' for Active; 'I' for Inactive)
ROOT
HETATM    1  O   LIG     1      16.426  38.108  24.598  1.00  0.00    -0.298 OA
HETATM    2  C   LIG     1      17.179  37.201  24.915  1.00  0.00     0.127 C 
HETATM    3  C   LIG     1      18.258  37.432  25.938  1.00  0.00     0.078 C 
HETATM    4  C   LIG     1      18.331  36.251  26.914  1.00  0.00     0.007 C 
HETATM    5  C   LIG     1      18.410  34.910  26.168  1.00  0.00     0.001 C 
HETATM    6  C   LIG     1      17.201  34.728  25.238  1.00  0.00     0.007 C 
HETATM    7  C   LIG     1      17.100  35.870  24.220  1.00  0.00     0.078 C 
ENDROOT
TORSDOF 0
ENDMDL
MODEL 2
REMARK VINA RESULT:      -5.4      1.031      2.214
REMARK  0 active torsions:
REMARK  status: ('A' for Active; 'I' for Inactive)
ROOT
HETATM    1  O   LIG     1      17.009  36.024  23.036  1.00  0.00    -0.298 OA
HETATM    2  C   LIG     1      17.199  36.101  24.239  1.00  0.00     0.127 C 
HETATM    3  C   LIG     1      17.144  34.867  25.097  1.00  0.00     0.078 C 
HETATM    4  C   LIG     1      18.298  34.866  26.108  1.00  0.00     0.007 C 
HETATM    5  C   LIG     1      18.374  36.195  26.874  1.00  0.00     0.001 C 
HETATM    6  C   LIG     1      18.545  37.377  25.907  1.00  0.00     0.007 C 
HETATM    7  C   LIG     1      17.397  37.440  24.892  1.00  0.00     0.078 C 
ENDROOT
TORSDOF 0
ENDMDL
MODEL 3
REMARK VINA RESULT:      -5.2      5.037      6.050
REMARK  0 active torsions:
REMARK  status: ('A' for Active; 'I' for Inactive)
ROOT
HETATM    1  O   LIG     1      20.558  39.312  19.364  1.00  0.00    -0.298 OA
HETATM    2  C   LIG     1      19.513  38.845  19.788  1.00  0.00     0.127 C 
HETATM    3  C   LIG     1      18.934  37.599  19.176  1.00  0.00     0.078 C 
HETATM    4  C   LIG     1      18.428  36.650  20.270  1.00  0.00     0.007 C 
HETATM    5  C   LIG     1      17.512  37.379  21.265  1.00  0.00     0.001 C 
HETATM    6  C   LIG     1      18.242  38.564  21.916  1.00  0.00     0.007 C 
HETATM    7  C   LIG     1      18.742  39.560  20.863  1.00  0.00     0.078 C 
ENDROOT
TORSDOF 0
ENDMDL
MODEL 4
REMARK VINA RESULT:      -5.1      4.739      5.914
REMARK  0 active torsions:
REMARK  status: ('A' for Active; 'I' for Inactive)
ROOT
HETATM    1  O   LIG     1      17.120  35.756  20.051  1.00  0.00    -0.298 OA
HETATM    2  C   LIG     1      17.902  36.639  20.369  1.00  0.00     0.127 C 
HETATM    3  C   LIG     1      19.167  36.852  19.583  1.00  0.00     0.078 C 
HETATM    4  C   LIG     1      19.407  38.350  19.352  1.00  0.00     0.007 C 
HETATM    5  C   LIG     1      19.307  39.143  20.664  1.00  0.00     0.001 C 
HETATM    6  C   LIG     1      17.934  38.943  21.322  1.00  0.00     0.007 C 
HETATM    7  C   LIG     1      17.657  37.461  21.603  1.00  0.00     0.078 C 
ENDROOT
TORSDOF 0
ENDMDL
MODEL 5
REMARK VINA RESULT:      -5.0      4.949      5.720
REMARK  0 active torsions:
REMARK  status: ('A' for Active; 'I' for Inactive)
ROOT
HETATM    1  O   LIG     1      20.030  39.344  18.977  1.00  0.00    -0.298 OA
HETATM    2  C   LIG     1      19.512  38.631  19.821  1.00  0.00     0.127 C 
HETATM    3  C   LIG     1      19.096  39.205  21.148  1.00  0.00     0.078 C 
HETATM    4  C   LIG     1      17.715  38.674  21.552  1.00  0.00     0.007 C 
HETATM    5  C   LIG     1      17.650  37.143  21.450  1.00  0.00     0.001 C 
HETATM    6  C   LIG     1      17.979  36.674  20.024  1.00  0.00     0.007 C 
HETATM    7  C   LIG     1      19.367  37.154  19.583  1.00  0.00     0.078 C 
ENDROOT
TORSDOF 0
ENDMDL
MODEL 6
REMARK VINA RESULT:      -4.9      1.134      2.021
REMARK  0 active torsions:
REMARK  status: ('A' for Active; 'I' for Inactive)
ROOT
HETATM    1  O   LIG     1      17.121  38.717  25.449  1.00  0.00    -0.298 OA
HETATM    2  C   LIG     1      17.380  37.686  24.848  1.00  0.00     0.127 C 
HETATM    3  C   LIG     1      17.932  36.496  25.584  1.00  0.00     0.078 C 
HETATM    4  C   LIG     1      17.248  35.208  25.109  1.00  0.00     0.007 C 
HETATM    5  C   LIG     1      17.263  35.097  23.577  1.00  0.00     0.001 C 
HETATM    6  C   LIG     1      16.572  36.308  22.932  1.00  0.00     0.007 C 
HETATM    7  C   LIG     1      17.240  37.623  23.352  1.00  0.00     0.078 C 
ENDROOT
TORSDOF 0
ENDMDL
MODEL 7
REMARK VINA RESULT:      -4.9      0.769      2.087
REMARK  0 active torsions:
REMARK  status: ('A' for Active; 'I' for Inactive)
ROOT
HETATM    1  O   LIG     1      17.251  38.678  24.153  1.00  0.00    -0.298 OA
HETATM    2  C   LIG     1      17.146  37.594  24.705  1.00  0.00     0.127 C 
HETATM    3  C   LIG     1      16.471  36.448  24.004  1.00  0.00     0.078 C 
HETATM    4  C   LIG     1      17.265  35.152  24.210  1.00  0.00     0.007 C 
HETATM    5  C   LIG     1      17.582  34.918  25.695  1.00  0.00     0.001 C 
HETATM    6  C   LIG     1      18.373  36.098  26.279  1.00  0.00     0.007 C 
HETATM    7  C   LIG     1      17.606  37.417  26.125  1.00  0.00     0.078 C 
ENDROOT
TORSDOF 0
ENDMDL
MODEL 8
REMARK VINA RESULT:      -4.9      2.759      4.200
REMARK  0 active torsions:
REMARK  status: ('A' for Active; 'I' for Inactive)
ROOT
HETATM    1  O   LIG     1      16.077  37.931  24.305  1.00  0.00    -0.298 OA
HETATM    2  C   LIG     1      16.844  37.637  23.402  1.00  0.00     0.127 C 
HETATM    3  C   LIG     1      16.857  36.242  22.840  1.00  0.00     0.078 C 
HETATM    4  C   LIG     1      16.941  36.283  21.309  1.00  0.00     0.007 C 
HETATM    5  C   LIG     1      18.084  37.192  20.833  1.00  0.00     0.001 C 
HETATM    6  C   LIG     1      17.909  38.620  21.372  1.00  0.00     0.007 C 
HETATM    7  C   LIG     1      17.850  38.638  22.904  1.00  0.00     0.078 C 
ENDROOT
TORSDOF 0
ENDMDL
MODEL 9
REMARK VINA RESULT:      -4.9      4.462      5.730
REMARK  0 active torsions:
REMARK  status: ('A' for Active; 'I' for Inactive)
ROOT
HETATM    1  O   LIG     1      16.584  37.703  22.086  1.00  0.00    -0.298 OA
HETATM    2  C   LIG     1      17.651  37.757  21.494  1.00  0.00     0.127 C 
HETATM    3  C   LIG     1      18.112  36.600  20.652  1.00  0.00     0.078 C 
HETATM    4  C   LIG     1      18.696  37.102  19.326  1.00  0.00     0.007 C 
HETATM    5  C   LIG     1      19.742  38.204  19.555  1.00  0.00     0.001 C 
HETATM    6  C   LIG     1      19.132  39.387  20.323  1.00  0.00     0.007 C 
HETATM    7  C   LIG     1      18.559  38.941  21.674  1.00  0.00     0.078 C 
ENDROOT
TORSDOF 0
ENDMDL
MODEL 10
REMARK VINA RESULT:      -4.9      4.601      5.580
REMARK  0 active torsions:
REMARK  status: ('A' for Active; 'I' for Inactive)
ROOT
HETATM    1  O   LIG     1      17.530  35.751  21.264  1.00  0.00    -0.298 OA
HETATM    2  C   LIG     1      17.876  36.849  20.857  1.00  0.00     0.127 C 
HETATM    3  C   LIG     1      17.536  38.089  21.637  1.00  0.00     0.078 C 
HETATM    4  C   LIG     1      18.742  39.036  21.688  1.00  0.00     0.007 C 
HETATM    5  C   LIG     1      19.324  39.280  20.287  1.00  0.00     0.001 C 
HETATM    6  C   LIG     1      19.743  37.957  19.630  1.00  0.00     0.007 C 
HETATM    7  C   LIG     1      18.562  36.984  19.527  1.00  0.00     0.078 C 
ENDROOT
TORSDOF 0
ENDMDL
MODEL 11
REMARK VINA RESULT:      -4.8      4.293      5.436
REMARK  0 active torsions:
REMARK  status: ('A' for Active; 'I' for Inactive)
ROOT
HETATM    1  O   LIG     1      19.366  36.458  19.439  1.00  0.00    -0.298 OA
HETATM    2  C   LIG     1      18.579  37.124  20.092  1.00  0.00     0.127 C 
HETATM    3  C   LIG     1      17.360  36.481  20.696  1.00  0.00     0.078 C 
HETATM    4  C   LIG     1      17.149  36.980  22.132  1.00  0.00     0.007 C 
HETATM    5  C   LIG     1      17.186  38.514  22.205  1.00  0.00     0.001 C 
HETATM    6  C   LIG     1      18.520  39.055  21.669  1.00  0.00     0.007 C 
HETATM    7  C   LIG     1      18.765  38.610  20.222  1.00  0.00     0.078 C 
ENDROOT
TORSDOF 0
ENDMDL
MODEL 12
REMARK VINA RESULT:      -4.6      1.669      2.816
REMARK  0 active torsions:
REMARK  status: ('A' for Active; 'I' for Inactive)
ROOT
HETATM    1  O   LIG     1      18.433  36.565  26.143  1.00  0.00    -0.298 OA
HETATM    2  C   LIG     1      17.646  36.531  25.210  1.00  0.00     0.127 C 
HETATM    3  C   LIG     1      17.068  37.805  24.658  1.00  0.00     0.078 C 
HETATM    4  C   LIG     1      17.062  37.769  23.124  1.00  0.00     0.007 C 
HETATM    5  C   LIG     1      16.423  36.476  22.596  1.00  0.00     0.001 C 
HETATM    6  C   LIG     1      17.163  35.240  23.131  1.00  0.00     0.007 C 
HETATM    7  C   LIG     1      17.171  35.213  24.665  1.00  0.00     0.078 C 
ENDROOT
TORSDOF 0
ENDMDL
MODEL 13
REMARK VINA RESULT:      -4.5     10.345     11.569
REMARK  0 active torsions:
REMARK  status: ('A' for Active; 'I' for Inactive)
ROOT
HETATM    1  O   LIG     1      16.824  32.593  15.912  1.00  0.00    -0.298 OA
HETATM    2  C   LIG     1      15.726  32.129  15.644  1.00  0.00     0.127 C 
HETATM    3  C   LIG     1      15.509  31.391  14.352  1.00  0.00     0.078 C 
HETATM    4  C   LIG     1      14.677  30.125  14.592  1.00  0.00     0.007 C 
HETATM    5  C   LIG     1      13.403  30.434  15.394  1.00  0.00     0.001 C 
HETATM    6  C   LIG     1      13.749  31.081  16.744  1.00  0.00     0.007 C 
HETATM    7  C   LIG     1      14.557  32.371  16.556  1.00  0.00     0.078 C 
ENDROOT
TORSDOF 0
ENDMDL
MODEL 14
REMARK VINA RESULT:      -4.5      1.426      2.221
REMARK  0 active torsions:
REMARK  status: ('A' for Active; 'I' for Inactive)
ROOT
HETATM    1  O   LIG     1      16.365  34.965  23.518  1.00  0.00    -0.298 OA
HETATM    2  C   LIG     1      17.143  35.558  24.248  1.00  0.00     0.127 C 
HETATM    3  C   LIG     1      17.372  37.035  24.074  1.00  0.00     0.078 C 
HETATM    4  C   LIG     1      17.403  37.736  25.438  1.00  0.00     0.007 C 
HETATM    5  C   LIG     1      18.365  37.033  26.408  1.00  0.00     0.001 C 
HETATM    6  C   LIG     1      17.970  35.561  26.601  1.00  0.00     0.007 C 
HETATM    7  C   LIG     1      17.954  34.806  25.266  1.00  0.00     0.078 C 
ENDROOT
TORSDOF 0
ENDMDL
MODEL 15
REMARK VINA RESULT:      -4.5     10.601     11.663
REMARK  0 active torsions:
REMARK  status: ('A' for Active; 'I' for Inactive)
ROOT
HETATM    1  O   LIG     1      15.267  33.590  16.175  1.00  0.00    -0.298 OA
HETATM    2  C   LIG     1      15.189  32.413  15.860  1.00  0.00     0.127 C 
HETATM    3  C   LIG     1      14.205  31.507  16.548  1.00  0.00     0.078 C 
HETATM    4  C   LIG     1      13.500  30.607  15.524  1.00  0.00     0.007 C 
HETATM    5  C   LIG     1      14.511  29.903  14.606  1.00  0.00     0.001 C 
HETATM    6  C   LIG     1      15.386  30.926  13.867  1.00  0.00     0.007 C 
HETATM    7  C   LIG     1      16.138  31.833  14.849  1.00  0.00     0.078 C 
ENDROOT
TORSDOF 0
ENDMDL
MODEL 16
REMARK VINA RESULT:      -4.5     10.548     11.701
REMARK  0 active torsions:
REMARK  status: ('A' for Active; 'I' for Inactive)
ROOT
HETATM    1  O   LIG     1      13.604  30.786  17.451  1.00  0.00    -0.298 OA
HETATM    2  C   LIG     1      14.052  31.121  16.366  1.00  0.00     0.127 C 
HETATM    3  C   LIG     1      14.885  32.367  16.240  1.00  0.00     0.078 C 
HETATM    4  C   LIG     1      16.100  32.110  15.339  1.00  0.00     0.007 C 
HETATM    5  C   LIG     1      15.686  31.460  14.010  1.00  0.00     0.001 C 
HETATM    6  C   LIG     1      14.943  30.137  14.254  1.00  0.00     0.007 C 
HETATM    7  C   LIG     1      13.700  30.346  15.127  1.00  0.00     0.078 C 
ENDROOT
TORSDOF 0
ENDMDL
MODEL 17
REMARK VINA RESULT:      -4.4      2.330      3.519
REMARK  0 active torsions:
REMARK  status: ('A' for Active; 'I' for Inactive)
ROOT
HETATM    1  O   LIG     1      17.200  34.927  24.060  1.00  0.00    -0.298 OA
HETATM    2  C   LIG     1      17.010  36.043  23.602  1.00  0.00     0.127 C 
HETATM    3  C   LIG     1      17.026  37.246  24.504  1.00  0.00     0.078 C 
HETATM    4  C   LIG     1      17.801  38.396  23.848  1.00  0.00     0.007 C 
HETATM    5  C   LIG     1      17.313  38.656  22.415  1.00  0.00     0.001 C 
HETATM    6  C   LIG     1      17.449  37.393  21.552  1.00  0.00     0.007 C 
HETATM    7  C   LIG     1      16.665  36.219  22.150  1.00  0.00     0.078 C 
ENDROOT
TORSDOF 0
ENDMDL
MODEL 18
REMARK VINA RESULT:      -4.3      2.733      3.822
REMARK  0 active torsions:
REMARK  status: ('A' for Active; 'I' for Inactive)
ROOT
HETATM    1  O   LIG     1      16.936  37.338  24.531  1.00  0.00    -0.298 OA
HETATM    2  C   LIG     1      16.883  37.092  23.336  1.00  0.00     0.127 C 
HETATM    3  C   LIG     1      17.097  38.185  22.326  1.00  0.00     0.078 C 
HETATM    4  C   LIG     1      17.996  37.691  21.185  1.00  0.00     0.007 C 
HETATM    5  C   LIG     1      17.494  36.357  20.612  1.00  0.00     0.001 C 
HETATM    6  C   LIG     1      17.423  35.282  21.708  1.00  0.00     0.007 C 
HETATM    7  C   LIG     1      16.509  35.716  22.860  1.00  0.00     0.078 C 
ENDROOT
TORSDOF 0
ENDMDL
MODEL 19
REMARK VINA RESULT:      -4.3      2.102      3.244
REMARK  0 active torsions:
REMARK  status: ('A' for Active; 'I' for Inactive)
ROOT
HETATM    1  O   LIG     1      17.723  37.637  21.066  1.00  0.00    -0.298 OA
HETATM    2  C   LIG     1      17.357  37.460  22.217  1.00  0.00     0.127 C 
HETATM    3  C   LIG     1      16.676  36.178  22.609  1.00  0.00     0.078 C 
HETATM    4  C   LIG     1      17.220  35.671  23.951  1.00  0.00     0.007 C 
HETATM    5  C   LIG     1      17.200  36.777  25.018  1.00  0.00     0.001 C 
HETATM    6  C   LIG     1      18.021  37.993  24.562  1.00  0.00     0.007 C 
HETATM    7  C   LIG     1      17.497  38.557  23.236  1.00  0.00     0.078 C 
ENDROOT
TORSDOF 0
ENDMDL
MODEL 20
REMARK VINA RESULT:      -4.2     10.778     11.835
REMARK  0 active torsions:
REMARK  status: ('A' for Active; 'I' for Inactive)
ROOT
HETATM    1  O   LIG     1      13.021  29.806  14.756  1.00  0.00    -0.298 OA
HETATM    2  C   LIG     1      13.933  30.440  15.264  1.00  0.00     0.127 C 
HETATM    3  C   LIG     1      15.260  30.553  14.567  1.00  0.00     0.078 C 
HETATM    4  C   LIG     1      15.789  31.990  14.652  1.00  0.00     0.007 C 
HETATM    5  C   LIG     1      15.759  32.515  16.095  1.00  0.00     0.001 C 
HETATM    6  C   LIG     1      14.335  32.461  16.669  1.00  0.00     0.007 C 
HETATM    7  C   LIG     1      13.771  31.036  16.635  1.00  0.00     0.078 C 
ENDROOT
TORSDOF 0
ENDMDL
