MODEL 1
REMARK VINA RESULT:      -6.2      0.000      0.000
REMARK  1 active torsions:
REMARK  status: ('A' for Active; 'I' for Inactive)
REMARK    1  A    between atoms: O_1  and  C_2 
ROOT
HETATM    1  C   LIG     1      19.610  38.754  19.809  1.00  0.00     0.066 A 
HETATM    2  C   LIG     1      19.380  37.433  19.412  1.00  0.00     0.036 A 
HETATM    3  C   LIG     1      18.420  36.660  20.070  1.00  0.00     0.003 A 
HETATM    4  C   LIG     1      17.681  37.206  21.125  1.00  0.00     0.007 A 
HETATM    5  C   LIG     1      17.891  38.537  21.518  1.00  0.00    -0.059 A 
HETATM    6  C   LIG     1      17.128  39.113  22.674  1.00  0.00     0.048 C 
HETATM    7  C   LIG     1      18.869  39.305  20.865  1.00  0.00     0.043 A 
ENDROOT
BRANCH   1   8
HETATM    8  O   LIG     1      20.576  39.511  19.149  1.00  0.00    -0.361 OA
HETATM    9  H   LIG     1      20.499  40.518  19.074  1.00  0.00     0.217 HD
ENDBRANCH   1   8
TORSDOF 1
ENDMDL
MODEL 2
REMARK VINA RESULT:      -6.2      4.491      5.654
REMARK  1 active torsions:
REMARK  status: ('A' for Active; 'I' for Inactive)
REMARK    1  A    between atoms: O_1  and  C_2 
ROOT
HETATM    1  C   LIG     1      17.436  37.579  25.500  1.00  0.00     0.066 A 
HETATM    2  C   LIG     1      17.894  36.695  26.484  1.00  0.00     0.036 A 
HETATM    3  C   LIG     1      17.971  35.326  26.216  1.00  0.00     0.003 A 
HETATM    4  C   LIG     1      17.597  34.834  24.962  1.00  0.00     0.007 A 
HETATM    5  C   LIG     1      17.156  35.714  23.961  1.00  0.00    -0.059 A 
HETATM    6  C   LIG     1      16.717  35.184  22.628  1.00  0.00     0.048 C 
HETATM    7  C   LIG     1      17.062  37.087  24.241  1.00  0.00     0.043 A 
ENDROOT
BRANCH   1   8
HETATM    8  O   LIG     1      17.356  38.940  25.784  1.00  0.00    -0.361 OA
HETATM    9  H   LIG     1      16.571  39.329  26.292  1.00  0.00     0.217 HD
ENDBRANCH   1   8
TORSDOF 1
ENDMDL
MODEL 3
REMARK VINA RESULT:      -5.8      3.830      4.718
REMARK  1 active torsions:
REMARK  status: ('A' for Active; 'I' for Inactive)
REMARK    1  A    between atoms: O_1  and  C_2 
ROOT
HETATM    1  C   LIG     1      16.860  37.709  23.673  1.00  0.00     0.066 A 
HETATM    2  C   LIG     1      16.657  36.592  22.855  1.00  0.00     0.036 A 
HETATM    3  C   LIG     1      16.962  35.313  23.326  1.00  0.00     0.003 A 
HETATM    4  C   LIG     1      17.466  35.142  24.620  1.00  0.00     0.007 A 
HETATM    5  C   LIG     1      17.654  36.254  25.456  1.00  0.00    -0.059 A 
HETATM    6  C   LIG     1      18.232  36.078  26.829  1.00  0.00     0.048 C 
HETATM    7  C   LIG     1      17.364  37.540  24.971  1.00  0.00     0.043 A 
ENDROOT
BRANCH   1   8
HETATM    8  O   LIG     1      16.559  38.979  23.188  1.00  0.00    -0.361 OA
HETATM    9  H   LIG     1      16.609  39.193  22.198  1.00  0.00     0.217 HD
ENDBRANCH   1   8
TORSDOF 1
ENDMDL
MODEL 4
REMARK VINA RESULT:      -5.7      2.662      3.574
REMARK  1 active torsions:
REMARK  status: ('A' for Active; 'I' for Inactive)
REMARK    1  A    between atoms: O_1  and  C_2 
ROOT
HETATM    1  C   LIG     1      16.699  37.690  22.979  1.00  0.00     0.066 A 
HETATM    2  C   LIG     1      16.629  36.405  22.430  1.00  0.00     0.036 A 
HETATM    3  C   LIG     1      17.322  36.106  21.255  1.00  0.00     0.003 A 
HETATM    4  C   LIG     1      18.094  37.087  20.626  1.00  0.00     0.007 A 
HETATM    5  C   LIG     1      18.187  38.374  21.179  1.00  0.00    -0.059 A 
HETATM    6  C   LIG     1      18.982  39.440  20.485  1.00  0.00     0.048 C 
HETATM    7  C   LIG     1      17.473  38.676  22.350  1.00  0.00     0.043 A 
ENDROOT
BRANCH   1   8
HETATM    8  O   LIG     1      15.995  37.977  24.147  1.00  0.00    -0.361 OA
HETATM    9  H   LIG     1      16.420  37.871  25.060  1.00  0.00     0.217 HD
ENDBRANCH   1   8
TORSDOF 1
ENDMDL
MODEL 5
REMARK VINA RESULT:      -5.6      4.010      5.232
REMARK  1 active torsions:
REMARK  status: ('A' for Active; 'I' for Inactive)
REMARK    1  A    between atoms: O_1  and  C_2 
ROOT
HETATM    1  C   LIG     1      16.820  36.622  23.284  1.00  0.00     0.066 A 
HETATM    2  C   LIG     1      16.902  37.945  23.731  1.00  0.00     0.036 A 
HETATM    3  C   LIG     1      17.386  38.223  25.012  1.00  0.00     0.003 A 
HETATM    4  C   LIG     1      17.795  37.181  25.850  1.00  0.00     0.007 A 
HETATM    5  C   LIG     1      17.734  35.852  25.404  1.00  0.00    -0.059 A 
HETATM    6  C   LIG     1      18.135  34.729  26.316  1.00  0.00     0.048 C 
HETATM    7  C   LIG     1      17.231  35.575  24.123  1.00  0.00     0.043 A 
ENDROOT
BRANCH   1   8
HETATM    8  O   LIG     1      16.328  36.358  22.008  1.00  0.00    -0.361 OA
HETATM    9  H   LIG     1      16.948  36.252  21.213  1.00  0.00     0.217 HD
ENDBRANCH   1   8
TORSDOF 1
ENDMDL
MODEL 6
REMARK VINA RESULT:      -5.6      2.106      3.462
REMARK  1 active torsions:
REMARK  status: ('A' for Active; 'I' for Inactive)
REMARK    1  A    between atoms: O_1  and  C_2 
ROOT
HETATM    1  C   LIG     1      17.613  36.574  20.721  1.00  0.00     0.066 A 
HETATM    2  C   LIG     1      17.155  37.330  21.806  1.00  0.00     0.036 A 
HETATM    3  C   LIG     1      17.733  38.570  22.090  1.00  0.00     0.003 A 
HETATM    4  C   LIG     1      18.767  39.063  21.289  1.00  0.00     0.007 A 
HETATM    5  C   LIG     1      19.221  38.322  20.187  1.00  0.00    -0.059 A 
HETATM    6  C   LIG     1      20.358  38.830  19.350  1.00  0.00     0.048 C 
HETATM    7  C   LIG     1      18.650  37.068  19.915  1.00  0.00     0.043 A 
ENDROOT
BRANCH   1   8
HETATM    8  O   LIG     1      17.034  35.336  20.454  1.00  0.00    -0.361 OA
HETATM    9  H   LIG     1      17.221  34.839  19.591  1.00  0.00     0.217 HD
ENDBRANCH   1   8
TORSDOF 1
ENDMDL
MODEL 7
REMARK VINA RESULT:      -5.5      0.756      2.278
REMARK  1 active torsions:
REMARK  status: ('A' for Active; 'I' for Inactive)
REMARK    1  A    between atoms: O_1  and  C_2 
ROOT
HETATM    1  C   LIG     1      19.499  38.861  20.052  1.00  0.00     0.066 A 
HETATM    2  C   LIG     1      19.077  39.681  21.105  1.00  0.00     0.036 A 
HETATM    3  C   LIG     1      18.076  39.244  21.976  1.00  0.00     0.003 A 
HETATM    4  C   LIG     1      17.495  37.984  21.803  1.00  0.00     0.007 A 
HETATM    5  C   LIG     1      17.924  37.146  20.762  1.00  0.00    -0.059 A 
HETATM    6  C   LIG     1      17.274  35.810  20.550  1.00  0.00     0.048 C 
HETATM    7  C   LIG     1      18.918  37.596  19.878  1.00  0.00     0.043 A 
ENDROOT
BRANCH   1   8
HETATM    8  O   LIG     1      20.492  39.313  19.187  1.00  0.00    -0.361 OA
HETATM    9  H   LIG     1      21.004  40.168  19.368  1.00  0.00     0.217 HD
ENDBRANCH   1   8
TORSDOF 1
ENDMDL
MODEL 8
REMARK VINA RESULT:      -5.3      4.212      5.425
REMARK  1 active torsions:
REMARK  status: ('A' for Active; 'I' for Inactive)
REMARK    1  A    between atoms: O_1  and  C_2 
ROOT
HETATM    1  C   LIG     1      17.375  36.146  25.272  1.00  0.00     0.066 A 
HETATM    2  C   LIG     1      17.407  37.534  25.107  1.00  0.00     0.036 A 
HETATM    3  C   LIG     1      17.225  38.094  23.840  1.00  0.00     0.003 A 
HETATM    4  C   LIG     1      17.003  37.270  22.733  1.00  0.00     0.007 A 
HETATM    5  C   LIG     1      16.949  35.876  22.891  1.00  0.00    -0.059 A 
HETATM    6  C   LIG     1      16.751  34.987  21.699  1.00  0.00     0.048 C 
HETATM    7  C   LIG     1      17.151  35.316  24.163  1.00  0.00     0.043 A 
ENDROOT
BRANCH   1   8
HETATM    8  O   LIG     1      17.566  35.601  26.540  1.00  0.00    -0.361 OA
HETATM    9  H   LIG     1      18.332  35.897  27.133  1.00  0.00     0.217 HD
ENDBRANCH   1   8
TORSDOF 1
ENDMDL
MODEL 9
REMARK VINA RESULT:      -5.3      1.570      2.357
REMARK  1 active torsions:
REMARK  status: ('A' for Active; 'I' for Inactive)
REMARK    1  A    between atoms: O_1  and  C_2 
ROOT
HETATM    1  C   LIG     1      18.430  37.288  20.071  1.00  0.00     0.066 A 
HETATM    2  C   LIG     1      19.039  38.546  20.020  1.00  0.00     0.036 A 
HETATM    3  C   LIG     1      18.822  39.471  21.045  1.00  0.00     0.003 A 
HETATM    4  C   LIG     1      18.002  39.141  22.128  1.00  0.00     0.007 A 
HETATM    5  C   LIG     1      17.402  37.874  22.197  1.00  0.00    -0.059 A 
HETATM    6  C   LIG     1      16.489  37.531  23.338  1.00  0.00     0.048 C 
HETATM    7  C   LIG     1      17.607  36.954  21.157  1.00  0.00     0.043 A 
ENDROOT
BRANCH   1   8
HETATM    8  O   LIG     1      18.647  36.378  19.038  1.00  0.00    -0.361 OA
HETATM    9  H   LIG     1      19.577  36.046  18.813  1.00  0.00     0.217 HD
ENDBRANCH   1   8
TORSDOF 1
ENDMDL
MODEL 10
REMARK VINA RESULT:      -5.3      2.833      4.047
REMARK  1 active torsions:
REMARK  status: ('A' for Active; 'I' for Inactive)
REMARK    1  A    between atoms: O_1  and  C_2 
ROOT
HETATM    1  C   LIG     1      17.202  38.106  23.678  1.00  0.00     0.066 A 
HETATM    2  C   LIG     1      17.780  38.951  22.725  1.00  0.00     0.036 A 
HETATM    3  C   LIG     1      17.997  38.494  21.423  1.00  0.00     0.003 A 
HETATM    4  C   LIG     1      17.631  37.193  21.065  1.00  0.00     0.007 A 
HETATM    5  C   LIG     1      17.032  36.344  22.008  1.00  0.00    -0.059 A 
HETATM    6  C   LIG     1      16.675  34.934  21.638  1.00  0.00     0.048 C 
HETATM    7  C   LIG     1      16.833  36.801  23.321  1.00  0.00     0.043 A 
ENDROOT
BRANCH   1   8
HETATM    8  O   LIG     1      17.000  38.572  24.975  1.00  0.00    -0.361 OA
HETATM    9  H   LIG     1      16.446  38.051  25.644  1.00  0.00     0.217 HD
ENDBRANCH   1   8
TORSDOF 1
ENDMDL
MODEL 11
REMARK VINA RESULT:      -5.2      8.318      9.557
REMARK  1 active torsions:
REMARK  status: ('A' for Active; 'I' for Inactive)
REMARK    1  A    between atoms: O_1  and  C_2 
ROOT
HETATM    1  C   LIG     1      14.100  31.670  16.697  1.00  0.00     0.066 A 
HETATM    2  C   LIG     1      13.657  30.659  15.837  1.00  0.00     0.036 A 
HETATM    3  C   LIG     1      14.361  30.379  14.663  1.00  0.00     0.003 A 
HETATM    4  C   LIG     1      15.514  31.105  14.345  1.00  0.00     0.007 A 
HETATM    5  C   LIG     1      15.977  32.108  15.211  1.00  0.00    -0.059 A 
HETATM    6  C   LIG     1      17.190  32.915  14.852  1.00  0.00     0.048 C 
HETATM    7  C   LIG     1      15.256  32.398  16.380  1.00  0.00     0.043 A 
ENDROOT
BRANCH   1   8
HETATM    8  O   LIG     1      13.383  31.944  17.860  1.00  0.00    -0.361 OA
HETATM    9  H   LIG     1      13.832  31.951  18.768  1.00  0.00     0.217 HD
ENDBRANCH   1   8
TORSDOF 1
ENDMDL
MODEL 12
REMARK VINA RESULT:      -5.2      8.597     10.054
REMARK  1 active torsions:
REMARK  status: ('A' for Active; 'I' for Inactive)
REMARK    1  A    between atoms: O_1  and  C_2 
ROOT
HETATM    1  C   LIG     1      14.207  31.737  17.008  1.00  0.00     0.066 A 
HETATM    2  C   LIG     1      15.298  32.420  16.460  1.00  0.00     0.036 A 
HETATM    3  C   LIG     1      15.781  32.071  15.197  1.00  0.00     0.003 A 
HETATM    4  C   LIG     1      15.173  31.042  14.471  1.00  0.00     0.007 A 
HETATM    5  C   LIG     1      14.065  30.364  15.004  1.00  0.00    -0.059 A 
HETATM    6  C   LIG     1      13.435  29.233  14.245  1.00  0.00     0.048 C 
HETATM    7  C   LIG     1      13.594  30.705  16.282  1.00  0.00     0.043 A 
ENDROOT
BRANCH   1   8
HETATM    8  O   LIG     1      13.741  32.089  18.273  1.00  0.00    -0.361 OA
HETATM    9  H   LIG     1      13.048  32.817  18.397  1.00  0.00     0.217 HD
ENDBRANCH   1   8
TORSDOF 1
ENDMDL
MODEL 13
REMARK VINA RESULT:      -5.2      9.741     10.919
REMARK  1 active torsions:
REMARK  status: ('A' for Active; 'I' for Inactive)
REMARK    1  A    between atoms: O_1  and  C_2 
ROOT
HETATM    1  C   LIG     1      13.505  29.538  14.403  1.00  0.00     0.066 A 
HETATM    2  C   LIG     1      14.731  29.744  13.761  1.00  0.00     0.036 A 
HETATM    3  C   LIG     1      15.612  30.721  14.230  1.00  0.00     0.003 A 
HETATM    4  C   LIG     1      15.276  31.493  15.345  1.00  0.00     0.007 A 
HETATM    5  C   LIG     1      14.056  31.282  16.008  1.00  0.00    -0.059 A 
HETATM    6  C   LIG     1      13.676  32.137  17.181  1.00  0.00     0.048 C 
HETATM    7  C   LIG     1      13.166  30.311  15.523  1.00  0.00     0.043 A 
ENDROOT
BRANCH   1   8
HETATM    8  O   LIG     1      12.632  28.566  13.919  1.00  0.00    -0.361 OA
HETATM    9  H   LIG     1      11.908  28.792  13.247  1.00  0.00     0.217 HD
ENDBRANCH   1   8
TORSDOF 1
ENDMDL
MODEL 14
REMARK VINA RESULT:      -5.1      8.234      9.702
REMARK  1 active torsions:
REMARK  status: ('A' for Active; 'I' for Inactive)
REMARK    1  A    between atoms: O_1  and  C_2 
ROOT
HETATM    1  C   LIG     1      14.991  32.538  16.409  1.00  0.00     0.066 A 
HETATM    2  C   LIG     1      13.766  32.161  16.968  1.00  0.00     0.036 A 
HETATM    3  C   LIG     1      13.050  31.089  16.430  1.00  0.00     0.003 A 
HETATM    4  C   LIG     1      13.558  30.384  15.334  1.00  0.00     0.007 A 
HETATM    5  C   LIG     1      14.796  30.742  14.778  1.00  0.00    -0.059 A 
HETATM    6  C   LIG     1      15.325  30.014  13.577  1.00  0.00     0.048 C 
HETATM    7  C   LIG     1      15.503  31.832  15.310  1.00  0.00     0.043 A 
ENDROOT
BRANCH   1   8
HETATM    8  O   LIG     1      15.690  33.615  16.950  1.00  0.00    -0.361 OA
HETATM    9  H   LIG     1      15.217  34.468  17.226  1.00  0.00     0.217 HD
ENDBRANCH   1   8
TORSDOF 1
ENDMDL
MODEL 15
REMARK VINA RESULT:      -5.1      8.466      9.587
REMARK  1 active torsions:
REMARK  status: ('A' for Active; 'I' for Inactive)
REMARK    1  A    between atoms: O_1  and  C_2 
ROOT
HETATM    1  C   LIG     1      15.956  31.710  13.859  1.00  0.00     0.066 A 
HETATM    2  C   LIG     1      15.219  30.566  13.535  1.00  0.00     0.036 A 
HETATM    3  C   LIG     1      14.298  30.043  14.446  1.00  0.00     0.003 A 
HETATM    4  C   LIG     1      14.104  30.665  15.683  1.00  0.00     0.007 A 
HETATM    5  C   LIG     1      14.824  31.825  16.010  1.00  0.00    -0.059 A 
HETATM    6  C   LIG     1      14.646  32.471  17.353  1.00  0.00     0.048 C 
HETATM    7  C   LIG     1      15.762  32.336  15.099  1.00  0.00     0.043 A 
ENDROOT
BRANCH   1   8
HETATM    8  O   LIG     1      16.877  32.215  12.945  1.00  0.00    -0.361 OA
HETATM    9  H   LIG     1      17.790  31.792  12.825  1.00  0.00     0.217 HD
ENDBRANCH   1   8
TORSDOF 1
ENDMDL
MODEL 16
REMARK VINA RESULT:      -5.1      9.024     10.298
REMARK  1 active torsions:
REMARK  status: ('A' for Active; 'I' for Inactive)
REMARK    1  A    between atoms: O_1  and  C_2 
ROOT
HETATM    1  C   LIG     1      13.918  30.143  14.765  1.00  0.00     0.066 A 
HETATM    2  C   LIG     1      13.129  30.508  15.861  1.00  0.00     0.036 A 
HETATM    3  C   LIG     1      13.546  31.533  16.714  1.00  0.00     0.003 A 
HETATM    4  C   LIG     1      14.750  32.203  16.472  1.00  0.00     0.007 A 
HETATM    5  C   LIG     1      15.539  31.856  15.364  1.00  0.00    -0.059 A 
HETATM    6  C   LIG     1      16.850  32.546  15.125  1.00  0.00     0.048 C 
HETATM    7  C   LIG     1      15.125  30.813  14.520  1.00  0.00     0.043 A 
ENDROOT
BRANCH   1   8
HETATM    8  O   LIG     1      13.494  29.113  13.928  1.00  0.00    -0.361 OA
HETATM    9  H   LIG     1      13.355  28.171  14.277  1.00  0.00     0.217 HD
ENDBRANCH   1   8
TORSDOF 1
ENDMDL
MODEL 17
REMARK VINA RESULT:      -5.0      8.865     10.231
REMARK  1 active torsions:
REMARK  status: ('A' for Active; 'I' for Inactive)
REMARK    1  A    between atoms: O_1  and  C_2 
ROOT
HETATM    1  C   LIG     1      16.029  31.817  13.883  1.00  0.00     0.066 A 
HETATM    2  C   LIG     1      15.931  32.482  15.110  1.00  0.00     0.036 A 
HETATM    3  C   LIG     1      15.012  32.051  16.069  1.00  0.00     0.003 A 
HETATM    4  C   LIG     1      14.190  30.949  15.810  1.00  0.00     0.007 A 
HETATM    5  C   LIG     1      14.295  30.263  14.590  1.00  0.00    -0.059 A 
HETATM    6  C   LIG     1      13.387  29.106  14.293  1.00  0.00     0.048 C 
HETATM    7  C   LIG     1      15.207  30.711  13.621  1.00  0.00     0.043 A 
ENDROOT
BRANCH   1   8
HETATM    8  O   LIG     1      16.944  32.263  12.932  1.00  0.00    -0.361 OA
HETATM    9  H   LIG     1      16.702  32.318  11.949  1.00  0.00     0.217 HD
ENDBRANCH   1   8
TORSDOF 1
ENDMDL
MODEL 18
REMARK VINA RESULT:      -5.0      8.768     10.266
REMARK  1 active torsions:
REMARK  status: ('A' for Active; 'I' for Inactive)
REMARK    1  A    between atoms: O_1  and  C_2 
ROOT
HETATM    1  C   LIG     1      13.339  30.814  16.357  1.00  0.00     0.066 A 
HETATM    2  C   LIG     1      13.898  31.794  17.184  1.00  0.00     0.036 A 
HETATM    3  C   LIG     1      15.043  32.484  16.778  1.00  0.00     0.003 A 
HETATM    4  C   LIG     1      15.631  32.202  15.541  1.00  0.00     0.007 A 
HETATM    5  C   LIG     1      15.067  31.234  14.696  1.00  0.00    -0.059 A 
HETATM    6  C   LIG     1      15.719  30.902  13.386  1.00  0.00     0.048 C 
HETATM    7  C   LIG     1      13.927  30.530  15.115  1.00  0.00     0.043 A 
ENDROOT
BRANCH   1   8
HETATM    8  O   LIG     1      12.202  30.127  16.778  1.00  0.00    -0.361 OA
HETATM    9  H   LIG     1      12.269  29.283  17.334  1.00  0.00     0.217 HD
ENDBRANCH   1   8
TORSDOF 1
ENDMDL
MODEL 19
REMARK VINA RESULT:      -4.5      1.589      2.962
REMARK  1 active torsions:
REMARK  status: ('A' for Active; 'I' for Inactive)
REMARK    1  A    between atoms: O_1  and  C_2 
ROOT
HETATM    1  C   LIG     1      18.288  38.964  21.865  1.00  0.00     0.066 A 
HETATM    2  C   LIG     1      17.435  38.230  22.696  1.00  0.00     0.036 A 
HETATM    3  C   LIG     1      16.988  36.967  22.301  1.00  0.00     0.003 A 
HETATM    4  C   LIG     1      17.396  36.428  21.077  1.00  0.00     0.007 A 
HETATM    5  C   LIG     1      18.268  37.148  20.245  1.00  0.00    -0.059 A 
HETATM    6  C   LIG     1      18.675  36.590  18.913  1.00  0.00     0.048 C 
HETATM    7  C   LIG     1      18.700  38.425  20.637  1.00  0.00     0.043 A 
ENDROOT
BRANCH   1   8
HETATM    8  O   LIG     1      18.719  40.227  22.267  1.00  0.00    -0.361 OA
HETATM    9  H   LIG     1      19.435  40.341  22.975  1.00  0.00     0.217 HD
ENDBRANCH   1   8
TORSDOF 1
ENDMDL
MODEL 20
REMARK VINA RESULT:      -4.3      5.180      6.123
REMARK  1 active torsions:
REMARK  status: ('A' for Active; 'I' for Inactive)
REMARK    1  A    between atoms: O_1  and  C_2 
ROOT
HETATM    1  C   LIG     1      15.257  34.000  17.691  1.00  0.00     0.066 A 
HETATM    2  C   LIG     1      14.910  32.645  17.748  1.00  0.00     0.036 A 
HETATM    3  C   LIG     1      14.909  31.974  18.973  1.00  0.00     0.003 A 
HETATM    4  C   LIG     1      15.249  32.653  20.147  1.00  0.00     0.007 A 
HETATM    5  C   LIG     1      15.580  34.016  20.103  1.00  0.00    -0.059 A 
HETATM    6  C   LIG     1      15.984  34.738  21.355  1.00  0.00     0.048 C 
HETATM    7  C   LIG     1      15.597  34.683  18.867  1.00  0.00     0.043 A 
ENDROOT
BRANCH   1   8
HETATM    8  O   LIG     1      15.261  34.655  16.461  1.00  0.00    -0.361 OA
HETATM    9  H   LIG     1      15.016  35.635  16.383  1.00  0.00     0.217 HD
ENDBRANCH   1   8
TORSDOF 1
ENDMDL
