REMARK  0 active torsions:
REMARK  status: ('A' for Active; 'I' for Inactive)
ROOT
HETATM    1  C   LIG     1       2.446  -1.059  -0.056  1.00  0.00     0.048 C 
HETATM    2  C   LIG     1       1.206  -0.214  -0.073  1.00  0.00    -0.061 A 
HETATM    3  C   LIG     1      -0.050  -0.819   0.093  1.00  0.00     0.013 A 
HETATM    4  C   LIG     1      -1.220  -0.044   0.071  1.00  0.00    -0.061 A 
HETATM    5  C   LIG     1      -2.557  -0.690   0.288  1.00  0.00     0.048 C 
HETATM    6  C   LIG     1      -1.125   1.347  -0.089  1.00  0.00     0.007 A 
HETATM    7  C   LIG     1       0.123   1.952  -0.255  1.00  0.00     0.001 A 
HETATM    8  C   LIG     1       1.286   1.176  -0.250  1.00  0.00     0.007 A 
ENDROOT
TORSDOF 0
