REMARK  1 active torsions:
REMARK  status: ('A' for Active; 'I' for Inactive)
REMARK    1  A    between atoms: C_4  and  N_5 
ROOT
HETATM    1  C   LIG     1      -2.329  -0.560  -0.831  1.00  0.00     0.048 C 
HETATM    2  C   LIG     1      -1.035  -0.030  -0.287  1.00  0.00    -0.060 A 
HETATM    3  C   LIG     1       0.107  -0.846  -0.289  1.00  0.00     0.035 A 
HETATM    4  C   LIG     1       1.324  -0.364   0.217  1.00  0.00     0.026 A 
HETATM    5  C   LIG     1       1.395   0.940   0.725  1.00  0.00     0.029 A 
HETATM    6  C   LIG     1       0.261   1.756   0.728  1.00  0.00     0.003 A 
HETATM    7  C   LIG     1      -0.951   1.275   0.225  1.00  0.00     0.007 A 
ENDROOT
BRANCH   4   8
HETATM    8  N   LIG     1       2.485  -1.199   0.213  1.00  0.00    -0.399 N 
HETATM    9  H   LIG     1       2.443  -2.172  -0.163  1.00  0.00     0.156 HD
HETATM   10  H   LIG     1       3.396  -0.850   0.587  1.00  0.00     0.156 HD
ENDBRANCH   4   8
TORSDOF 1
