MODEL 1
REMARK VINA RESULT:      -6.1      0.000      0.000
REMARK  0 active torsions:
REMARK  status: ('A' for Active; 'I' for Inactive)
ROOT
HETATM    1  C   LIG     1      18.290  36.261  26.836  1.00  0.00     0.048 C 
HETATM    2  C   LIG     1      17.766  36.276  25.430  1.00  0.00    -0.061 A 
HETATM    3  C   LIG     1      17.593  37.500  24.765  1.00  0.00     0.013 A 
HETATM    4  C   LIG     1      17.095  37.531  23.453  1.00  0.00    -0.061 A 
HETATM    5  C   LIG     1      16.949  38.839  22.732  1.00  0.00     0.048 C 
HETATM    6  C   LIG     1      16.798  36.326  22.798  1.00  0.00     0.007 A 
HETATM    7  C   LIG     1      16.968  35.106  23.457  1.00  0.00     0.001 A 
HETATM    8  C   LIG     1      17.448  35.079  24.770  1.00  0.00     0.007 A 
ENDROOT
TORSDOF 0
ENDMDL
MODEL 2
REMARK VINA RESULT:      -6.1      1.034      2.308
REMARK  0 active torsions:
REMARK  status: ('A' for Active; 'I' for Inactive)
ROOT
HETATM    1  C   LIG     1      17.941  34.854  26.342  1.00  0.00     0.048 C 
HETATM    2  C   LIG     1      17.508  35.641  25.140  1.00  0.00    -0.061 A 
HETATM    3  C   LIG     1      17.221  34.974  23.939  1.00  0.00     0.013 A 
HETATM    4  C   LIG     1      16.823  35.696  22.803  1.00  0.00    -0.061 A 
HETATM    5  C   LIG     1      16.479  34.975  21.532  1.00  0.00     0.048 C 
HETATM    6  C   LIG     1      16.686  37.091  22.883  1.00  0.00     0.007 A 
HETATM    7  C   LIG     1      16.972  37.757  24.077  1.00  0.00     0.001 A 
HETATM    8  C   LIG     1      17.384  37.038  25.202  1.00  0.00     0.007 A 
ENDROOT
TORSDOF 0
ENDMDL
MODEL 3
REMARK VINA RESULT:      -6.1      0.917      3.659
REMARK  0 active torsions:
REMARK  status: ('A' for Active; 'I' for Inactive)
ROOT
HETATM    1  C   LIG     1      16.412  35.429  21.687  1.00  0.00     0.048 C 
HETATM    2  C   LIG     1      16.818  36.025  23.003  1.00  0.00    -0.061 A 
HETATM    3  C   LIG     1      17.238  35.185  24.047  1.00  0.00     0.013 A 
HETATM    4  C   LIG     1      17.613  35.726  25.286  1.00  0.00    -0.061 A 
HETATM    5  C   LIG     1      18.098  34.828  26.386  1.00  0.00     0.048 C 
HETATM    6  C   LIG     1      17.594  37.118  25.467  1.00  0.00     0.007 A 
HETATM    7  C   LIG     1      17.176  37.956  24.431  1.00  0.00     0.001 A 
HETATM    8  C   LIG     1      16.787  37.414  23.202  1.00  0.00     0.007 A 
ENDROOT
TORSDOF 0
ENDMDL
MODEL 4
REMARK VINA RESULT:      -6.0      2.889      4.313
REMARK  0 active torsions:
REMARK  status: ('A' for Active; 'I' for Inactive)
ROOT
HETATM    1  C   LIG     1      16.782  35.297  21.233  1.00  0.00     0.048 C 
HETATM    2  C   LIG     1      17.367  36.678  21.279  1.00  0.00    -0.061 A 
HETATM    3  C   LIG     1      18.369  37.040  20.365  1.00  0.00     0.013 A 
HETATM    4  C   LIG     1      18.932  38.325  20.400  1.00  0.00    -0.061 A 
HETATM    5  C   LIG     1      19.976  38.719  19.396  1.00  0.00     0.048 C 
HETATM    6  C   LIG     1      18.466  39.259  21.339  1.00  0.00     0.007 A 
HETATM    7  C   LIG     1      17.469  38.902  22.250  1.00  0.00     0.001 A 
HETATM    8  C   LIG     1      16.922  37.616  22.224  1.00  0.00     0.007 A 
ENDROOT
TORSDOF 0
ENDMDL
MODEL 5
REMARK VINA RESULT:      -5.9      2.775      4.665
REMARK  0 active torsions:
REMARK  status: ('A' for Active; 'I' for Inactive)
ROOT
HETATM    1  C   LIG     1      19.867  38.928  19.660  1.00  0.00     0.048 C 
HETATM    2  C   LIG     1      18.806  38.456  20.611  1.00  0.00    -0.061 A 
HETATM    3  C   LIG     1      18.307  37.148  20.503  1.00  0.00     0.013 A 
HETATM    4  C   LIG     1      17.309  36.695  21.379  1.00  0.00    -0.061 A 
HETATM    5  C   LIG     1      16.806  35.284  21.284  1.00  0.00     0.048 C 
HETATM    6  C   LIG     1      16.832  37.548  22.385  1.00  0.00     0.007 A 
HETATM    7  C   LIG     1      17.326  38.850  22.496  1.00  0.00     0.001 A 
HETATM    8  C   LIG     1      18.308  39.306  21.611  1.00  0.00     0.007 A 
ENDROOT
TORSDOF 0
ENDMDL
MODEL 6
REMARK VINA RESULT:      -5.6      1.509      3.448
REMARK  0 active torsions:
REMARK  status: ('A' for Active; 'I' for Inactive)
ROOT
HETATM    1  C   LIG     1      16.511  34.748  21.552  1.00  0.00     0.048 C 
HETATM    2  C   LIG     1      16.976  36.101  22.006  1.00  0.00    -0.061 A 
HETATM    3  C   LIG     1      16.896  36.444  23.365  1.00  0.00     0.013 A 
HETATM    4  C   LIG     1      17.318  37.708  23.805  1.00  0.00    -0.061 A 
HETATM    5  C   LIG     1      17.267  38.055  25.264  1.00  0.00     0.048 C 
HETATM    6  C   LIG     1      17.850  38.620  22.880  1.00  0.00     0.007 A 
HETATM    7  C   LIG     1      17.930  38.282  21.527  1.00  0.00     0.001 A 
HETATM    8  C   LIG     1      17.493  37.028  21.089  1.00  0.00     0.007 A 
ENDROOT
TORSDOF 0
ENDMDL
MODEL 7
REMARK VINA RESULT:      -5.6      1.578      3.052
REMARK  0 active torsions:
REMARK  status: ('A' for Active; 'I' for Inactive)
ROOT
HETATM    1  C   LIG     1      17.346  38.159  25.188  1.00  0.00     0.048 C 
HETATM    2  C   LIG     1      17.423  37.788  23.736  1.00  0.00    -0.061 A 
HETATM    3  C   LIG     1      16.940  36.541  23.310  1.00  0.00     0.013 A 
HETATM    4  C   LIG     1      17.013  36.176  21.957  1.00  0.00    -0.061 A 
HETATM    5  C   LIG     1      16.459  34.858  21.501  1.00  0.00     0.048 C 
HETATM    6  C   LIG     1      17.546  37.079  21.024  1.00  0.00     0.007 A 
HETATM    7  C   LIG     1      18.029  38.320  21.445  1.00  0.00     0.001 A 
HETATM    8  C   LIG     1      17.971  38.675  22.796  1.00  0.00     0.007 A 
ENDROOT
TORSDOF 0
ENDMDL
MODEL 8
REMARK VINA RESULT:      -5.3      9.173     10.879
REMARK  0 active torsions:
REMARK  status: ('A' for Active; 'I' for Inactive)
ROOT
HETATM    1  C   LIG     1      13.426  29.288  14.326  1.00  0.00     0.048 C 
HETATM    2  C   LIG     1      13.988  30.424  15.129  1.00  0.00    -0.061 A 
HETATM    3  C   LIG     1      15.179  31.044  14.717  1.00  0.00     0.013 A 
HETATM    4  C   LIG     1      15.723  32.102  15.461  1.00  0.00    -0.061 A 
HETATM    5  C   LIG     1      16.975  32.787  14.996  1.00  0.00     0.048 C 
HETATM    6  C   LIG     1      15.052  32.559  16.606  1.00  0.00     0.007 A 
HETATM    7  C   LIG     1      13.867  31.945  17.018  1.00  0.00     0.001 A 
HETATM    8  C   LIG     1      13.336  30.879  16.285  1.00  0.00     0.007 A 
ENDROOT
TORSDOF 0
ENDMDL
MODEL 9
REMARK VINA RESULT:      -5.3      9.185     10.906
REMARK  0 active torsions:
REMARK  status: ('A' for Active; 'I' for Inactive)
ROOT
HETATM    1  C   LIG     1      17.065  32.882  14.934  1.00  0.00     0.048 C 
HETATM    2  C   LIG     1      15.806  32.201  15.384  1.00  0.00    -0.061 A 
HETATM    3  C   LIG     1      15.308  31.109  14.656  1.00  0.00     0.013 A 
HETATM    4  C   LIG     1      14.127  30.466  15.059  1.00  0.00    -0.061 A 
HETATM    5  C   LIG     1      13.619  29.276  14.299  1.00  0.00     0.048 C 
HETATM    6  C   LIG     1      13.461  30.903  16.214  1.00  0.00     0.007 A 
HETATM    7  C   LIG     1      13.955  31.989  16.941  1.00  0.00     0.001 A 
HETATM    8  C   LIG     1      15.122  32.639  16.528  1.00  0.00     0.007 A 
ENDROOT
TORSDOF 0
ENDMDL
MODEL 10
REMARK VINA RESULT:      -5.3      1.108      2.905
REMARK  0 active torsions:
REMARK  status: ('A' for Active; 'I' for Inactive)
ROOT
HETATM    1  C   LIG     1      16.343  34.499  21.158  1.00  0.00     0.048 C 
HETATM    2  C   LIG     1      16.697  35.461  22.253  1.00  0.00    -0.061 A 
HETATM    3  C   LIG     1      16.730  36.839  21.985  1.00  0.00     0.013 A 
HETATM    4  C   LIG     1      17.068  37.752  22.996  1.00  0.00    -0.061 A 
HETATM    5  C   LIG     1      17.064  39.226  22.714  1.00  0.00     0.048 C 
HETATM    6  C   LIG     1      17.346  37.280  24.288  1.00  0.00     0.007 A 
HETATM    7  C   LIG     1      17.315  35.910  24.559  1.00  0.00     0.001 A 
HETATM    8  C   LIG     1      16.994  35.001  23.545  1.00  0.00     0.007 A 
ENDROOT
TORSDOF 0
ENDMDL
MODEL 11
REMARK VINA RESULT:      -5.1      9.366     11.103
REMARK  0 active torsions:
REMARK  status: ('A' for Active; 'I' for Inactive)
ROOT
HETATM    1  C   LIG     1      13.348  29.220  14.338  1.00  0.00     0.048 C 
HETATM    2  C   LIG     1      14.246  30.360  14.720  1.00  0.00    -0.061 A 
HETATM    3  C   LIG     1      14.094  30.976  15.972  1.00  0.00     0.013 A 
HETATM    4  C   LIG     1      14.920  32.049  16.341  1.00  0.00    -0.061 A 
HETATM    5  C   LIG     1      14.779  32.679  17.696  1.00  0.00     0.048 C 
HETATM    6  C   LIG     1      15.922  32.485  15.460  1.00  0.00     0.007 A 
HETATM    7  C   LIG     1      16.076  31.874  14.214  1.00  0.00     0.001 A 
HETATM    8  C   LIG     1      15.241  30.817  13.841  1.00  0.00     0.007 A 
ENDROOT
TORSDOF 0
ENDMDL
MODEL 12
REMARK VINA RESULT:      -5.1      0.985      2.595
REMARK  0 active torsions:
REMARK  status: ('A' for Active; 'I' for Inactive)
ROOT
HETATM    1  C   LIG     1      17.512  39.092  24.549  1.00  0.00     0.048 C 
HETATM    2  C   LIG     1      17.426  37.594  24.509  1.00  0.00    -0.061 A 
HETATM    3  C   LIG     1      17.060  36.951  23.316  1.00  0.00     0.013 A 
HETATM    4  C   LIG     1      16.966  35.551  23.264  1.00  0.00    -0.061 A 
HETATM    5  C   LIG     1      16.613  34.866  21.976  1.00  0.00     0.048 C 
HETATM    6  C   LIG     1      17.270  34.795  24.406  1.00  0.00     0.007 A 
HETATM    7  C   LIG     1      17.634  35.432  25.595  1.00  0.00     0.001 A 
HETATM    8  C   LIG     1      17.710  36.827  25.649  1.00  0.00     0.007 A 
ENDROOT
TORSDOF 0
ENDMDL
MODEL 13
REMARK VINA RESULT:      -5.1      9.419     10.858
REMARK  0 active torsions:
REMARK  status: ('A' for Active; 'I' for Inactive)
ROOT
HETATM    1  C   LIG     1      14.206  32.118  17.530  1.00  0.00     0.048 C 
HETATM    2  C   LIG     1      14.621  31.681  16.156  1.00  0.00    -0.061 A 
HETATM    3  C   LIG     1      15.579  32.425  15.449  1.00  0.00     0.013 A 
HETATM    4  C   LIG     1      15.971  32.035  14.159  1.00  0.00    -0.061 A 
HETATM    5  C   LIG     1      17.023  32.811  13.423  1.00  0.00     0.048 C 
HETATM    6  C   LIG     1      15.420  30.876  13.590  1.00  0.00     0.007 A 
HETATM    7  C   LIG     1      14.466  30.134  14.290  1.00  0.00     0.001 A 
HETATM    8  C   LIG     1      14.064  30.535  15.568  1.00  0.00     0.007 A 
ENDROOT
TORSDOF 0
ENDMDL
MODEL 14
REMARK VINA RESULT:      -4.7      8.713     10.439
REMARK  0 active torsions:
REMARK  status: ('A' for Active; 'I' for Inactive)
ROOT
HETATM    1  C   LIG     1      16.375  32.215  13.553  1.00  0.00     0.048 C 
HETATM    2  C   LIG     1      15.511  31.816  14.713  1.00  0.00    -0.061 A 
HETATM    3  C   LIG     1      15.653  32.474  15.945  1.00  0.00     0.013 A 
HETATM    4  C   LIG     1      14.858  32.107  17.042  1.00  0.00    -0.061 A 
HETATM    5  C   LIG     1      14.986  32.840  18.345  1.00  0.00     0.048 C 
HETATM    6  C   LIG     1      13.897  31.095  16.891  1.00  0.00     0.007 A 
HETATM    7  C   LIG     1      13.753  30.438  15.667  1.00  0.00     0.001 A 
HETATM    8  C   LIG     1      14.558  30.794  14.581  1.00  0.00     0.007 A 
ENDROOT
TORSDOF 0
ENDMDL
MODEL 15
REMARK VINA RESULT:      -4.7     10.008     11.677
REMARK  0 active torsions:
REMARK  status: ('A' for Active; 'I' for Inactive)
ROOT
HETATM    1  C   LIG     1      15.143  28.340  13.488  1.00  0.00     0.048 C 
HETATM    2  C   LIG     1      14.749  29.509  14.343  1.00  0.00    -0.061 A 
HETATM    3  C   LIG     1      15.643  30.578  14.513  1.00  0.00     0.013 A 
HETATM    4  C   LIG     1      15.292  31.675  15.316  1.00  0.00    -0.061 A 
HETATM    5  C   LIG     1      16.235  32.833  15.464  1.00  0.00     0.048 C 
HETATM    6  C   LIG     1      14.028  31.711  15.925  1.00  0.00     0.007 A 
HETATM    7  C   LIG     1      13.137  30.648  15.757  1.00  0.00     0.001 A 
HETATM    8  C   LIG     1      13.495  29.549  14.971  1.00  0.00     0.007 A 
ENDROOT
TORSDOF 0
ENDMDL
MODEL 16
REMARK VINA RESULT:      -4.7     10.295     11.985
REMARK  0 active torsions:
REMARK  status: ('A' for Active; 'I' for Inactive)
ROOT
HETATM    1  C   LIG     1      16.367  32.535  15.308  1.00  0.00     0.048 C 
HETATM    2  C   LIG     1      15.366  31.435  15.106  1.00  0.00    -0.061 A 
HETATM    3  C   LIG     1      15.688  30.344  14.282  1.00  0.00     0.013 A 
HETATM    4  C   LIG     1      14.760  29.312  14.076  1.00  0.00    -0.061 A 
HETATM    5  C   LIG     1      15.123  28.129  13.226  1.00  0.00     0.048 C 
HETATM    6  C   LIG     1      13.515  29.361  14.724  1.00  0.00     0.007 A 
HETATM    7  C   LIG     1      13.192  30.445  15.543  1.00  0.00     0.001 A 
HETATM    8  C   LIG     1      14.111  31.481  15.734  1.00  0.00     0.007 A 
ENDROOT
TORSDOF 0
ENDMDL
MODEL 17
REMARK VINA RESULT:      -4.7      1.539      2.268
REMARK  0 active torsions:
REMARK  status: ('A' for Active; 'I' for Inactive)
ROOT
HETATM    1  C   LIG     1      16.668  34.994  24.448  1.00  0.00     0.048 C 
HETATM    2  C   LIG     1      17.038  35.823  23.253  1.00  0.00    -0.061 A 
HETATM    3  C   LIG     1      17.217  37.209  23.397  1.00  0.00     0.013 A 
HETATM    4  C   LIG     1      17.554  38.000  22.288  1.00  0.00    -0.061 A 
HETATM    5  C   LIG     1      17.783  39.474  22.454  1.00  0.00     0.048 C 
HETATM    6  C   LIG     1      17.741  37.393  21.037  1.00  0.00     0.007 A 
HETATM    7  C   LIG     1      17.563  36.015  20.890  1.00  0.00     0.001 A 
HETATM    8  C   LIG     1      17.210  35.231  21.993  1.00  0.00     0.007 A 
ENDROOT
TORSDOF 0
ENDMDL
MODEL 18
REMARK VINA RESULT:      -4.2     12.633     13.202
REMARK  0 active torsions:
REMARK  status: ('A' for Active; 'I' for Inactive)
ROOT
HETATM    1  C   LIG     1      26.676  37.961  18.269  1.00  0.00     0.048 C 
HETATM    2  C   LIG     1      28.030  38.420  18.726  1.00  0.00    -0.061 A 
HETATM    3  C   LIG     1      28.260  38.654  20.091  1.00  0.00     0.013 A 
HETATM    4  C   LIG     1      29.518  39.092  20.533  1.00  0.00    -0.061 A 
HETATM    5  C   LIG     1      29.771  39.303  21.998  1.00  0.00     0.048 C 
HETATM    6  C   LIG     1      30.556  39.266  19.605  1.00  0.00     0.007 A 
HETATM    7  C   LIG     1      30.330  39.035  18.246  1.00  0.00     0.001 A 
HETATM    8  C   LIG     1      29.071  38.615  17.805  1.00  0.00     0.007 A 
ENDROOT
TORSDOF 0
ENDMDL
