REMARK  0 active torsions:
REMARK  status: ('A' for Active; 'I' for Inactive)
ROOT
HETATM    1 BR   LIG     1       2.255   0.506  -1.499  1.00  0.00    -0.091 Br
HETATM    2  C   LIG     1       1.406   0.377   0.250  1.00  0.00     0.058 C 
HETATM    3  C   LIG     1       0.906  -1.053   0.518  1.00  0.00     0.016 C 
HETATM    4  C   LIG     1      -0.318  -1.406  -0.338  1.00  0.00     0.001 C 
HETATM    5  C   LIG     1      -1.440  -0.380  -0.145  1.00  0.00     0.000 C 
HETATM    6  C   LIG     1      -0.950   1.036  -0.464  1.00  0.00     0.001 C 
HETATM    7  C   LIG     1       0.270   1.404   0.392  1.00  0.00     0.016 C 
ENDROOT
TORSDOF 0
