REMARK  1 active torsions:
REMARK  status: ('A' for Active; 'I' for Inactive)
REMARK    1  A    between atoms: O_1  and  C_2 
ROOT
HETATM    1  C   LIG     1       1.560  -0.398  -0.132  1.00  0.00     0.066 A 
HETATM    2  C   LIG     1       1.721   0.988  -0.030  1.00  0.00     0.036 A 
HETATM    3  C   LIG     1       0.604   1.815   0.111  1.00  0.00     0.003 A 
HETATM    4  C   LIG     1      -0.679   1.261   0.157  1.00  0.00     0.007 A 
HETATM    5  C   LIG     1      -0.850  -0.130   0.075  1.00  0.00    -0.059 A 
HETATM    6  C   LIG     1      -2.228  -0.724   0.084  1.00  0.00     0.048 C 
HETATM    7  C   LIG     1       0.274  -0.956  -0.085  1.00  0.00     0.043 A 
ENDROOT
BRANCH   1   8
HETATM    8  O   LIG     1       2.682  -1.210  -0.281  1.00  0.00    -0.361 OA
HETATM    9  H   LIG     1       2.600  -2.217  -0.357  1.00  0.00     0.217 HD
ENDBRANCH   1   8
TORSDOF 1
