MODEL 1
REMARK VINA RESULT:      -5.7      0.000      0.000
REMARK  0 active torsions:
REMARK  status: ('A' for Active; 'I' for Inactive)
ROOT
HETATM    1  C   LIG     1      17.991  34.860  26.338  1.00  0.00     0.048 C 
HETATM    2  C   LIG     1      17.530  35.671  25.163  1.00  0.00    -0.059 A 
HETATM    3  C   LIG     1      17.240  35.036  23.947  1.00  0.00     0.033 A 
HETATM    4  C   LIG     1      16.811  35.799  22.854  1.00  0.00     0.030 A 
HETATM    5  C   LIG     1      16.498  35.139  21.549  1.00  0.00     0.070 C 
HETATM    6  N   LIG     1      16.679  37.148  22.981  1.00  0.00    -0.266 NA
HETATM    7  C   LIG     1      16.953  37.787  24.148  1.00  0.00     0.117 A 
HETATM    8  C   LIG     1      17.384  37.062  25.261  1.00  0.00     0.026 A 
ENDROOT
TORSDOF 0
ENDMDL
MODEL 2
REMARK VINA RESULT:      -5.6      0.981      3.036
REMARK  0 active torsions:
REMARK  status: ('A' for Active; 'I' for Inactive)
ROOT
HETATM    1  C   LIG     1      16.486  35.386  21.414  1.00  0.00     0.048 C 
HETATM    2  C   LIG     1      16.769  35.977  22.764  1.00  0.00    -0.059 A 
HETATM    3  C   LIG     1      17.186  35.148  23.814  1.00  0.00     0.033 A 
HETATM    4  C   LIG     1      17.448  35.706  25.072  1.00  0.00     0.030 A 
HETATM    5  C   LIG     1      17.893  34.837  26.205  1.00  0.00     0.070 C 
HETATM    6  N   LIG     1      17.296  37.045  25.264  1.00  0.00    -0.266 NA
HETATM    7  C   LIG     1      16.893  37.869  24.261  1.00  0.00     0.117 A 
HETATM    8  C   LIG     1      16.622  37.352  22.993  1.00  0.00     0.026 A 
ENDROOT
TORSDOF 0
ENDMDL
MODEL 3
REMARK VINA RESULT:      -5.5      1.098      2.268
REMARK  0 active torsions:
REMARK  status: ('A' for Active; 'I' for Inactive)
ROOT
HETATM    1  C   LIG     1      18.311  36.308  26.879  1.00  0.00     0.048 C 
HETATM    2  C   LIG     1      17.783  36.330  25.475  1.00  0.00    -0.059 A 
HETATM    3  C   LIG     1      17.619  37.554  24.811  1.00  0.00     0.033 A 
HETATM    4  C   LIG     1      17.125  37.568  23.500  1.00  0.00     0.030 A 
HETATM    5  C   LIG     1      16.943  38.864  22.776  1.00  0.00     0.070 C 
HETATM    6  N   LIG     1      16.809  36.397  22.883  1.00  0.00    -0.266 NA
HETATM    7  C   LIG     1      16.959  35.198  23.505  1.00  0.00     0.117 A 
HETATM    8  C   LIG     1      17.448  35.141  24.812  1.00  0.00     0.026 A 
ENDROOT
TORSDOF 0
ENDMDL
MODEL 4
REMARK VINA RESULT:      -5.5      3.460      5.123
REMARK  0 active torsions:
REMARK  status: ('A' for Active; 'I' for Inactive)
ROOT
HETATM    1  C   LIG     1      20.344  38.919  19.263  1.00  0.00     0.048 C 
HETATM    2  C   LIG     1      19.247  38.249  20.036  1.00  0.00    -0.059 A 
HETATM    3  C   LIG     1      18.595  38.943  21.065  1.00  0.00     0.033 A 
HETATM    4  C   LIG     1      17.572  38.311  21.784  1.00  0.00     0.030 A 
HETATM    5  C   LIG     1      16.866  39.035  22.886  1.00  0.00     0.070 C 
HETATM    6  N   LIG     1      17.221  37.032  21.478  1.00  0.00    -0.266 NA
HETATM    7  C   LIG     1      17.837  36.338  20.485  1.00  0.00     0.117 A 
HETATM    8  C   LIG     1      18.862  36.933  19.746  1.00  0.00     0.026 A 
ENDROOT
TORSDOF 0
ENDMDL
MODEL 5
REMARK VINA RESULT:      -5.4      1.385      3.626
REMARK  0 active torsions:
REMARK  status: ('A' for Active; 'I' for Inactive)
ROOT
HETATM    1  C   LIG     1      16.817  38.892  22.655  1.00  0.00     0.048 C 
HETATM    2  C   LIG     1      17.022  37.573  23.341  1.00  0.00    -0.059 A 
HETATM    3  C   LIG     1      17.491  37.539  24.661  1.00  0.00     0.033 A 
HETATM    4  C   LIG     1      17.681  36.305  25.295  1.00  0.00     0.030 A 
HETATM    5  C   LIG     1      18.182  36.248  26.703  1.00  0.00     0.070 C 
HETATM    6  N   LIG     1      17.409  35.151  24.626  1.00  0.00    -0.266 NA
HETATM    7  C   LIG     1      16.953  35.158  23.345  1.00  0.00     0.117 A 
HETATM    8  C   LIG     1      16.751  36.368  22.678  1.00  0.00     0.026 A 
ENDROOT
TORSDOF 0
ENDMDL
MODEL 6
REMARK VINA RESULT:      -5.3      3.001      4.170
REMARK  0 active torsions:
REMARK  status: ('A' for Active; 'I' for Inactive)
ROOT
HETATM    1  C   LIG     1      19.861  38.933  19.662  1.00  0.00     0.048 C 
HETATM    2  C   LIG     1      18.808  38.452  20.615  1.00  0.00    -0.059 A 
HETATM    3  C   LIG     1      18.309  37.146  20.504  1.00  0.00     0.033 A 
HETATM    4  C   LIG     1      17.325  36.704  21.397  1.00  0.00     0.030 A 
HETATM    5  C   LIG     1      16.781  35.315  21.293  1.00  0.00     0.070 C 
HETATM    6  N   LIG     1      16.862  37.543  22.363  1.00  0.00    -0.266 NA
HETATM    7  C   LIG     1      17.329  38.813  22.492  1.00  0.00     0.117 A 
HETATM    8  C   LIG     1      18.310  39.292  21.621  1.00  0.00     0.026 A 
ENDROOT
TORSDOF 0
ENDMDL
MODEL 7
REMARK VINA RESULT:      -5.3      3.333      4.316
REMARK  0 active torsions:
REMARK  status: ('A' for Active; 'I' for Inactive)
ROOT
HETATM    1  C   LIG     1      16.867  35.497  20.986  1.00  0.00     0.048 C 
HETATM    2  C   LIG     1      17.518  36.844  21.091  1.00  0.00    -0.059 A 
HETATM    3  C   LIG     1      18.538  37.197  20.196  1.00  0.00     0.033 A 
HETATM    4  C   LIG     1      19.143  38.456  20.300  1.00  0.00     0.030 A 
HETATM    5  C   LIG     1      20.234  38.850  19.356  1.00  0.00     0.070 C 
HETATM    6  N   LIG     1      18.736  39.325  21.266  1.00  0.00    -0.266 NA
HETATM    7  C   LIG     1      17.749  39.006  22.145  1.00  0.00     0.117 A 
HETATM    8  C   LIG     1      17.122  37.761  22.075  1.00  0.00     0.026 A 
ENDROOT
TORSDOF 0
ENDMDL
MODEL 8
REMARK VINA RESULT:      -5.3      2.092      4.153
REMARK  0 active torsions:
REMARK  status: ('A' for Active; 'I' for Inactive)
ROOT
HETATM    1  C   LIG     1      18.680  39.345  20.754  1.00  0.00     0.048 C 
HETATM    2  C   LIG     1      18.041  38.361  21.688  1.00  0.00    -0.059 A 
HETATM    3  C   LIG     1      17.966  38.647  23.058  1.00  0.00     0.033 A 
HETATM    4  C   LIG     1      17.369  37.724  23.926  1.00  0.00     0.030 A 
HETATM    5  C   LIG     1      17.281  38.012  25.391  1.00  0.00     0.070 C 
HETATM    6  N   LIG     1      16.865  36.559  23.432  1.00  0.00    -0.266 NA
HETATM    7  C   LIG     1      16.925  36.259  22.108  1.00  0.00     0.117 A 
HETATM    8  C   LIG     1      17.513  37.152  21.211  1.00  0.00     0.026 A 
ENDROOT
TORSDOF 0
ENDMDL
MODEL 9
REMARK VINA RESULT:      -5.2      3.507      4.642
REMARK  0 active torsions:
REMARK  status: ('A' for Active; 'I' for Inactive)
ROOT
HETATM    1  C   LIG     1      16.901  39.058  22.955  1.00  0.00     0.048 C 
HETATM    2  C   LIG     1      17.580  38.318  21.840  1.00  0.00    -0.059 A 
HETATM    3  C   LIG     1      18.602  38.942  21.111  1.00  0.00     0.033 A 
HETATM    4  C   LIG     1      19.231  38.246  20.070  1.00  0.00     0.030 A 
HETATM    5  C   LIG     1      20.323  38.895  19.280  1.00  0.00     0.070 C 
HETATM    6  N   LIG     1      18.846  36.974  19.777  1.00  0.00    -0.266 NA
HETATM    7  C   LIG     1      17.859  36.348  20.470  1.00  0.00     0.117 A 
HETATM    8  C   LIG     1      17.207  37.007  21.514  1.00  0.00     0.026 A 
ENDROOT
TORSDOF 0
ENDMDL
MODEL 10
REMARK VINA RESULT:      -5.1      2.267      3.323
REMARK  0 active torsions:
REMARK  status: ('A' for Active; 'I' for Inactive)
ROOT
HETATM    1  C   LIG     1      17.219  38.004  25.097  1.00  0.00     0.048 C 
HETATM    2  C   LIG     1      17.380  37.740  23.629  1.00  0.00    -0.059 A 
HETATM    3  C   LIG     1      18.030  38.680  22.819  1.00  0.00     0.033 A 
HETATM    4  C   LIG     1      18.177  38.428  21.449  1.00  0.00     0.030 A 
HETATM    5  C   LIG     1      18.867  39.420  20.568  1.00  0.00     0.070 C 
HETATM    6  N   LIG     1      17.688  37.275  20.917  1.00  0.00    -0.266 NA
HETATM    7  C   LIG     1      17.053  36.347  21.681  1.00  0.00     0.117 A 
HETATM    8  C   LIG     1      16.887  36.561  23.051  1.00  0.00     0.026 A 
ENDROOT
TORSDOF 0
ENDMDL
MODEL 11
REMARK VINA RESULT:      -5.0      2.058      3.406
REMARK  0 active torsions:
REMARK  status: ('A' for Active; 'I' for Inactive)
ROOT
HETATM    1  C   LIG     1      18.854  39.507  21.000  1.00  0.00     0.048 C 
HETATM    2  C   LIG     1      18.060  38.501  21.780  1.00  0.00    -0.059 A 
HETATM    3  C   LIG     1      17.707  37.281  21.188  1.00  0.00     0.033 A 
HETATM    4  C   LIG     1      16.964  36.346  21.921  1.00  0.00     0.030 A 
HETATM    5  C   LIG     1      16.577  35.039  21.306  1.00  0.00     0.070 C 
HETATM    6  N   LIG     1      16.593  36.630  23.200  1.00  0.00    -0.266 NA
HETATM    7  C   LIG     1      16.923  37.806  23.796  1.00  0.00     0.117 A 
HETATM    8  C   LIG     1      17.662  38.764  23.098  1.00  0.00     0.026 A 
ENDROOT
TORSDOF 0
ENDMDL
MODEL 12
REMARK VINA RESULT:      -5.0      1.685      3.392
REMARK  0 active torsions:
REMARK  status: ('A' for Active; 'I' for Inactive)
ROOT
HETATM    1  C   LIG     1      16.450  34.825  21.654  1.00  0.00     0.048 C 
HETATM    2  C   LIG     1      16.942  36.154  22.144  1.00  0.00    -0.059 A 
HETATM    3  C   LIG     1      16.904  36.450  23.514  1.00  0.00     0.033 A 
HETATM    4  C   LIG     1      17.364  37.694  23.965  1.00  0.00     0.030 A 
HETATM    5  C   LIG     1      17.332  38.027  25.423  1.00  0.00     0.070 C 
HETATM    6  N   LIG     1      17.843  38.603  23.073  1.00  0.00    -0.266 NA
HETATM    7  C   LIG     1      17.890  38.340  21.740  1.00  0.00     0.117 A 
HETATM    8  C   LIG     1      17.441  37.112  21.250  1.00  0.00     0.026 A 
ENDROOT
TORSDOF 0
ENDMDL
MODEL 13
REMARK VINA RESULT:      -5.0      1.768      2.293
REMARK  0 active torsions:
REMARK  status: ('A' for Active; 'I' for Inactive)
ROOT
HETATM    1  C   LIG     1      17.313  38.079  25.288  1.00  0.00     0.048 C 
HETATM    2  C   LIG     1      17.376  37.746  23.827  1.00  0.00    -0.059 A 
HETATM    3  C   LIG     1      16.914  36.503  23.374  1.00  0.00     0.033 A 
HETATM    4  C   LIG     1      16.977  36.198  22.008  1.00  0.00     0.030 A 
HETATM    5  C   LIG     1      16.488  34.876  21.507  1.00  0.00     0.070 C 
HETATM    6  N   LIG     1      17.485  37.109  21.134  1.00  0.00    -0.266 NA
HETATM    7  C   LIG     1      17.939  38.321  21.548  1.00  0.00     0.117 A 
HETATM    8  C   LIG     1      17.894  38.663  22.901  1.00  0.00     0.026 A 
ENDROOT
TORSDOF 0
ENDMDL
MODEL 14
REMARK VINA RESULT:      -5.0      9.967     10.904
REMARK  0 active torsions:
REMARK  status: ('A' for Active; 'I' for Inactive)
ROOT
HETATM    1  C   LIG     1      13.058  30.735  16.508  1.00  0.00     0.048 C 
HETATM    2  C   LIG     1      14.170  30.880  15.511  1.00  0.00    -0.059 A 
HETATM    3  C   LIG     1      15.111  31.908  15.661  1.00  0.00     0.033 A 
HETATM    4  C   LIG     1      16.147  32.038  14.727  1.00  0.00     0.030 A 
HETATM    5  C   LIG     1      17.160  33.129  14.870  1.00  0.00     0.070 C 
HETATM    6  N   LIG     1      16.230  31.168  13.684  1.00  0.00    -0.266 NA
HETATM    7  C   LIG     1      15.330  30.163  13.517  1.00  0.00     0.117 A 
HETATM    8  C   LIG     1      14.283  30.000  14.426  1.00  0.00     0.026 A 
ENDROOT
TORSDOF 0
ENDMDL
MODEL 15
REMARK VINA RESULT:      -4.7      1.307      3.538
REMARK  0 active torsions:
REMARK  status: ('A' for Active; 'I' for Inactive)
ROOT
HETATM    1  C   LIG     1      16.679  35.960  21.023  1.00  0.00     0.048 C 
HETATM    2  C   LIG     1      16.910  36.012  22.505  1.00  0.00    -0.059 A 
HETATM    3  C   LIG     1      17.003  37.251  23.153  1.00  0.00     0.033 A 
HETATM    4  C   LIG     1      17.220  37.293  24.536  1.00  0.00     0.030 A 
HETATM    5  C   LIG     1      17.323  38.606  25.245  1.00  0.00     0.070 C 
HETATM    6  N   LIG     1      17.337  36.133  25.238  1.00  0.00    -0.266 NA
HETATM    7  C   LIG     1      17.250  34.919  24.633  1.00  0.00     0.117 A 
HETATM    8  C   LIG     1      17.035  34.835  23.256  1.00  0.00     0.026 A 
ENDROOT
TORSDOF 0
ENDMDL
MODEL 16
REMARK VINA RESULT:      -4.7      1.169      2.228
REMARK  0 active torsions:
REMARK  status: ('A' for Active; 'I' for Inactive)
ROOT
HETATM    1  C   LIG     1      17.419  38.592  25.471  1.00  0.00     0.048 C 
HETATM    2  C   LIG     1      17.297  37.293  24.732  1.00  0.00    -0.059 A 
HETATM    3  C   LIG     1      17.045  37.296  23.353  1.00  0.00     0.033 A 
HETATM    4  C   LIG     1      16.932  36.079  22.669  1.00  0.00     0.030 A 
HETATM    5  C   LIG     1      16.662  36.062  21.198  1.00  0.00     0.070 C 
HETATM    6  N   LIG     1      17.067  34.906  23.347  1.00  0.00    -0.266 NA
HETATM    7  C   LIG     1      17.312  34.877  24.684  1.00  0.00     0.117 A 
HETATM    8  C   LIG     1      17.431  36.068  25.402  1.00  0.00     0.026 A 
ENDROOT
TORSDOF 0
ENDMDL
MODEL 17
REMARK VINA RESULT:      -4.7      8.195     10.776
REMARK  0 active torsions:
REMARK  status: ('A' for Active; 'I' for Inactive)
ROOT
HETATM    1  C   LIG     1      13.849  29.195  14.195  1.00  0.00     0.048 C 
HETATM    2  C   LIG     1      14.609  30.461  14.458  1.00  0.00    -0.059 A 
HETATM    3  C   LIG     1      14.465  31.118  15.688  1.00  0.00     0.033 A 
HETATM    4  C   LIG     1      15.177  32.300  15.927  1.00  0.00     0.030 A 
HETATM    5  C   LIG     1      15.036  33.015  17.233  1.00  0.00     0.070 C 
HETATM    6  N   LIG     1      16.001  32.800  14.965  1.00  0.00    -0.266 NA
HETATM    7  C   LIG     1      16.157  32.182  13.765  1.00  0.00     0.117 A 
HETATM    8  C   LIG     1      15.465  31.002  13.488  1.00  0.00     0.026 A 
ENDROOT
TORSDOF 0
ENDMDL
MODEL 18
REMARK VINA RESULT:      -4.6      9.494     10.553
REMARK  0 active torsions:
REMARK  status: ('A' for Active; 'I' for Inactive)
ROOT
HETATM    1  C   LIG     1      13.030  31.833  16.929  1.00  0.00     0.048 C 
HETATM    2  C   LIG     1      14.193  31.536  16.029  1.00  0.00    -0.059 A 
HETATM    3  C   LIG     1      14.188  30.376  15.242  1.00  0.00     0.033 A 
HETATM    4  C   LIG     1      15.277  30.105  14.405  1.00  0.00     0.030 A 
HETATM    5  C   LIG     1      15.290  28.872  13.558  1.00  0.00     0.070 C 
HETATM    6  N   LIG     1      16.329  30.968  14.361  1.00  0.00    -0.266 NA
HETATM    7  C   LIG     1      16.357  32.099  15.114  1.00  0.00     0.117 A 
HETATM    8  C   LIG     1      15.291  32.405  15.962  1.00  0.00     0.026 A 
ENDROOT
TORSDOF 0
ENDMDL
MODEL 19
REMARK VINA RESULT:      -4.6      6.681      9.295
REMARK  0 active torsions:
REMARK  status: ('A' for Active; 'I' for Inactive)
ROOT
HETATM    1  C   LIG     1      13.092  30.244  15.288  1.00  0.00     0.048 C 
HETATM    2  C   LIG     1      14.088  31.158  15.939  1.00  0.00    -0.059 A 
HETATM    3  C   LIG     1      14.063  31.340  17.328  1.00  0.00     0.033 A 
HETATM    4  C   LIG     1      14.995  32.194  17.930  1.00  0.00     0.030 A 
HETATM    5  C   LIG     1      14.984  32.401  19.411  1.00  0.00     0.070 C 
HETATM    6  N   LIG     1      15.916  32.840  17.163  1.00  0.00    -0.266 NA
HETATM    7  C   LIG     1      15.961  32.680  15.814  1.00  0.00     0.117 A 
HETATM    8  C   LIG     1      15.049  31.837  15.176  1.00  0.00     0.026 A 
ENDROOT
TORSDOF 0
ENDMDL
MODEL 20
REMARK VINA RESULT:      -4.6      8.776     10.107
REMARK  0 active torsions:
REMARK  status: ('A' for Active; 'I' for Inactive)
ROOT
HETATM    1  C   LIG     1      17.127  32.950  14.917  1.00  0.00     0.048 C 
HETATM    2  C   LIG     1      15.902  32.246  15.422  1.00  0.00    -0.059 A 
HETATM    3  C   LIG     1      15.347  31.194  14.680  1.00  0.00     0.033 A 
HETATM    4  C   LIG     1      14.203  30.541  15.157  1.00  0.00     0.030 A 
HETATM    5  C   LIG     1      13.595  29.418  14.379  1.00  0.00     0.070 C 
HETATM    6  N   LIG     1      13.641  30.932  16.333  1.00  0.00    -0.266 NA
HETATM    7  C   LIG     1      14.160  31.949  17.071  1.00  0.00     0.117 A 
HETATM    8  C   LIG     1      15.300  32.625  16.630  1.00  0.00     0.026 A 
ENDROOT
TORSDOF 0
ENDMDL
