MODEL 1
REMARK VINA RESULT:      -5.9      0.000      0.000
REMARK  1 active torsions:
REMARK  status: ('A' for Active; 'I' for Inactive)
REMARK    1  A    between atoms: C_4  and  N_5 
ROOT
HETATM    1 CL   LIG     1      16.598  35.020  22.442  1.00  0.00    -0.084 Cl
HETATM    2  C   LIG     1      17.110  35.674  23.987  1.00  0.00     0.036 A 
HETATM    3  C   LIG     1      17.026  37.051  24.227  1.00  0.00     0.052 A 
HETATM    4  C   LIG     1      17.435  37.577  25.462  1.00  0.00     0.027 A 
HETATM    5  C   LIG     1      17.927  36.716  26.454  1.00  0.00     0.029 A 
HETATM    6  C   LIG     1      18.010  35.341  26.212  1.00  0.00     0.004 A 
HETATM    7  C   LIG     1      17.602  34.820  24.981  1.00  0.00     0.024 A 
ENDROOT
BRANCH   4   8
HETATM    8  N   LIG     1      17.351  38.983  25.707  1.00  0.00    -0.399 N 
HETATM    9  H   LIG     1      16.454  39.419  26.019  1.00  0.00     0.156 HD
HETATM   10  H   LIG     1      18.184  39.600  25.581  1.00  0.00     0.156 HD
ENDBRANCH   4   8
TORSDOF 1
ENDMDL
MODEL 2
REMARK VINA RESULT:      -5.7      4.813      5.639
REMARK  1 active torsions:
REMARK  status: ('A' for Active; 'I' for Inactive)
REMARK    1  A    between atoms: C_4  and  N_5 
ROOT
HETATM    1 CL   LIG     1      17.004  39.262  22.885  1.00  0.00    -0.084 Cl
HETATM    2  C   LIG     1      17.860  38.507  21.552  1.00  0.00     0.036 A 
HETATM    3  C   LIG     1      18.797  39.242  20.817  1.00  0.00     0.052 A 
HETATM    4  C   LIG     1      19.483  38.641  19.750  1.00  0.00     0.027 A 
HETATM    5  C   LIG     1      19.224  37.301  19.426  1.00  0.00     0.029 A 
HETATM    6  C   LIG     1      18.288  36.569  20.162  1.00  0.00     0.004 A 
HETATM    7  C   LIG     1      17.606  37.170  21.224  1.00  0.00     0.024 A 
ENDROOT
BRANCH   4   8
HETATM    8  N   LIG     1      20.440  39.390  18.997  1.00  0.00    -0.399 N 
HETATM    9  H   LIG     1      21.237  38.913  18.518  1.00  0.00     0.156 HD
HETATM   10  H   LIG     1      20.360  40.428  18.911  1.00  0.00     0.156 HD
ENDBRANCH   4   8
TORSDOF 1
ENDMDL
MODEL 3
REMARK VINA RESULT:      -5.5      2.219      2.886
REMARK  1 active torsions:
REMARK  status: ('A' for Active; 'I' for Inactive)
REMARK    1  A    between atoms: C_4  and  N_5 
ROOT
HETATM    1 CL   LIG     1      18.153  36.048  26.871  1.00  0.00    -0.084 Cl
HETATM    2  C   LIG     1      17.539  36.229  25.238  1.00  0.00     0.036 A 
HETATM    3  C   LIG     1      17.183  37.496  24.760  1.00  0.00     0.052 A 
HETATM    4  C   LIG     1      16.692  37.644  23.454  1.00  0.00     0.027 A 
HETATM    5  C   LIG     1      16.560  36.516  22.630  1.00  0.00     0.029 A 
HETATM    6  C   LIG     1      16.916  35.252  23.110  1.00  0.00     0.004 A 
HETATM    7  C   LIG     1      17.405  35.108  24.411  1.00  0.00     0.024 A 
ENDROOT
BRANCH   4   8
HETATM    8  N   LIG     1      16.327  38.938  22.965  1.00  0.00    -0.399 N 
HETATM    9  H   LIG     1      16.788  39.339  22.118  1.00  0.00     0.156 HD
HETATM   10  H   LIG     1      15.592  39.504  23.445  1.00  0.00     0.156 HD
ENDBRANCH   4   8
TORSDOF 1
ENDMDL
MODEL 4
REMARK VINA RESULT:      -5.5      1.982      2.622
REMARK  1 active torsions:
REMARK  status: ('A' for Active; 'I' for Inactive)
REMARK    1  A    between atoms: C_4  and  N_5 
ROOT
HETATM    1 CL   LIG     1      16.794  39.051  22.634  1.00  0.00    -0.084 Cl
HETATM    2  C   LIG     1      17.006  37.506  23.438  1.00  0.00     0.036 A 
HETATM    3  C   LIG     1      17.309  37.462  24.804  1.00  0.00     0.052 A 
HETATM    4  C   LIG     1      17.480  36.228  25.449  1.00  0.00     0.027 A 
HETATM    5  C   LIG     1      17.344  35.038  24.717  1.00  0.00     0.029 A 
HETATM    6  C   LIG     1      17.041  35.085  23.353  1.00  0.00     0.004 A 
HETATM    7  C   LIG     1      16.872  36.316  22.713  1.00  0.00     0.024 A 
ENDROOT
BRANCH   4   8
HETATM    8  N   LIG     1      17.791  36.182  26.844  1.00  0.00    -0.399 N 
HETATM    9  H   LIG     1      17.061  35.926  27.546  1.00  0.00     0.156 HD
HETATM   10  H   LIG     1      18.753  36.403  27.186  1.00  0.00     0.156 HD
ENDBRANCH   4   8
TORSDOF 1
ENDMDL
MODEL 5
REMARK VINA RESULT:      -5.4      4.064      4.735
REMARK  1 active torsions:
REMARK  status: ('A' for Active; 'I' for Inactive)
REMARK    1  A    between atoms: C_4  and  N_5 
ROOT
HETATM    1 CL   LIG     1      20.263  38.939  19.334  1.00  0.00    -0.084 Cl
HETATM    2  C   LIG     1      18.983  38.189  20.272  1.00  0.00     0.036 A 
HETATM    3  C   LIG     1      18.352  38.909  21.294  1.00  0.00     0.052 A 
HETATM    4  C   LIG     1      17.328  38.312  22.046  1.00  0.00     0.027 A 
HETATM    5  C   LIG     1      16.942  36.992  21.769  1.00  0.00     0.029 A 
HETATM    6  C   LIG     1      17.574  36.277  20.747  1.00  0.00     0.004 A 
HETATM    7  C   LIG     1      18.593  36.873  20.000  1.00  0.00     0.024 A 
ENDROOT
BRANCH   4   8
HETATM    8  N   LIG     1      16.683  39.045  23.091  1.00  0.00    -0.399 N 
HETATM    9  H   LIG     1      16.820  38.781  24.093  1.00  0.00     0.156 HD
HETATM   10  H   LIG     1      16.064  39.857  22.872  1.00  0.00     0.156 HD
ENDBRANCH   4   8
TORSDOF 1
ENDMDL
MODEL 6
REMARK VINA RESULT:      -5.2      4.536      5.311
REMARK  1 active torsions:
REMARK  status: ('A' for Active; 'I' for Inactive)
REMARK    1  A    between atoms: C_4  and  N_5 
ROOT
HETATM    1 CL   LIG     1      20.395  38.897  19.329  1.00  0.00    -0.084 Cl
HETATM    2  C   LIG     1      19.082  38.305  20.331  1.00  0.00     0.036 A 
HETATM    3  C   LIG     1      18.515  37.051  20.074  1.00  0.00     0.052 A 
HETATM    4  C   LIG     1      17.465  36.575  20.873  1.00  0.00     0.027 A 
HETATM    5  C   LIG     1      16.987  37.362  21.931  1.00  0.00     0.029 A 
HETATM    6  C   LIG     1      17.555  38.614  22.186  1.00  0.00     0.004 A 
HETATM    7  C   LIG     1      18.601  39.086  21.388  1.00  0.00     0.024 A 
ENDROOT
BRANCH   4   8
HETATM    8  N   LIG     1      16.884  35.295  20.611  1.00  0.00    -0.399 N 
HETATM    9  H   LIG     1      16.025  34.984  21.117  1.00  0.00     0.156 HD
HETATM   10  H   LIG     1      17.307  34.649  19.908  1.00  0.00     0.156 HD
ENDBRANCH   4   8
TORSDOF 1
ENDMDL
MODEL 7
REMARK VINA RESULT:      -5.2      3.855      4.707
REMARK  1 active torsions:
REMARK  status: ('A' for Active; 'I' for Inactive)
REMARK    1  A    between atoms: C_4  and  N_5 
ROOT
HETATM    1 CL   LIG     1      16.194  37.784  23.790  1.00  0.00    -0.084 Cl
HETATM    2  C   LIG     1      17.129  37.608  22.316  1.00  0.00     0.036 A 
HETATM    3  C   LIG     1      17.934  38.661  21.867  1.00  0.00     0.052 A 
HETATM    4  C   LIG     1      18.683  38.523  20.689  1.00  0.00     0.027 A 
HETATM    5  C   LIG     1      18.620  37.324  19.963  1.00  0.00     0.029 A 
HETATM    6  C   LIG     1      17.815  36.273  20.414  1.00  0.00     0.004 A 
HETATM    7  C   LIG     1      17.071  36.413  21.588  1.00  0.00     0.024 A 
ENDROOT
BRANCH   4   8
HETATM    8  N   LIG     1      19.505  39.599  20.228  1.00  0.00    -0.399 N 
HETATM    9  H   LIG     1      19.798  40.364  20.877  1.00  0.00     0.156 HD
HETATM   10  H   LIG     1      19.827  39.640  19.236  1.00  0.00     0.156 HD
ENDBRANCH   4   8
TORSDOF 1
ENDMDL
MODEL 8
REMARK VINA RESULT:      -5.1      1.487      2.405
REMARK  1 active torsions:
REMARK  status: ('A' for Active; 'I' for Inactive)
REMARK    1  A    between atoms: C_4  and  N_5 
ROOT
HETATM    1 CL   LIG     1      16.647  34.872  21.671  1.00  0.00    -0.084 Cl
HETATM    2  C   LIG     1      16.973  36.011  22.965  1.00  0.00     0.036 A 
HETATM    3  C   LIG     1      17.168  35.549  24.272  1.00  0.00     0.052 A 
HETATM    4  C   LIG     1      17.429  36.457  25.309  1.00  0.00     0.027 A 
HETATM    5  C   LIG     1      17.493  37.831  25.029  1.00  0.00     0.029 A 
HETATM    6  C   LIG     1      17.298  38.290  23.723  1.00  0.00     0.004 A 
HETATM    7  C   LIG     1      17.039  37.382  22.692  1.00  0.00     0.024 A 
ENDROOT
BRANCH   4   8
HETATM    8  N   LIG     1      17.627  35.987  26.645  1.00  0.00    -0.399 N 
HETATM    9  H   LIG     1      18.586  35.938  27.058  1.00  0.00     0.156 HD
HETATM   10  H   LIG     1      16.818  35.684  27.232  1.00  0.00     0.156 HD
ENDBRANCH   4   8
TORSDOF 1
ENDMDL
MODEL 9
REMARK VINA RESULT:      -5.0      1.961      3.055
REMARK  1 active torsions:
REMARK  status: ('A' for Active; 'I' for Inactive)
REMARK    1  A    between atoms: C_4  and  N_5 
ROOT
HETATM    1 CL   LIG     1      16.277  34.798  21.777  1.00  0.00    -0.084 Cl
HETATM    2  C   LIG     1      16.921  36.365  22.233  1.00  0.00     0.036 A 
HETATM    3  C   LIG     1      16.864  36.783  23.568  1.00  0.00     0.052 A 
HETATM    4  C   LIG     1      17.378  38.036  23.936  1.00  0.00     0.027 A 
HETATM    5  C   LIG     1      17.950  38.865  22.960  1.00  0.00     0.029 A 
HETATM    6  C   LIG     1      18.006  38.445  21.628  1.00  0.00     0.004 A 
HETATM    7  C   LIG     1      17.492  37.197  21.264  1.00  0.00     0.024 A 
ENDROOT
BRANCH   4   8
HETATM    8  N   LIG     1      17.320  38.465  25.299  1.00  0.00    -0.399 N 
HETATM    9  H   LIG     1      18.090  39.037  25.713  1.00  0.00     0.156 HD
HETATM   10  H   LIG     1      16.506  38.216  25.905  1.00  0.00     0.156 HD
ENDBRANCH   4   8
TORSDOF 1
ENDMDL
MODEL 10
REMARK VINA RESULT:      -5.0      9.989     11.028
REMARK  1 active torsions:
REMARK  status: ('A' for Active; 'I' for Inactive)
REMARK    1  A    between atoms: C_4  and  N_5 
ROOT
HETATM    1 CL   LIG     1      17.380  33.219  14.764  1.00  0.00    -0.084 Cl
HETATM    2  C   LIG     1      15.986  32.215  15.123  1.00  0.00     0.036 A 
HETATM    3  C   LIG     1      15.248  32.434  16.292  1.00  0.00     0.052 A 
HETATM    4  C   LIG     1      14.133  31.633  16.581  1.00  0.00     0.027 A 
HETATM    5  C   LIG     1      13.762  30.613  15.692  1.00  0.00     0.029 A 
HETATM    6  C   LIG     1      14.501  30.397  14.525  1.00  0.00     0.004 A 
HETATM    7  C   LIG     1      15.611  31.196  14.239  1.00  0.00     0.024 A 
ENDROOT
BRANCH   4   8
HETATM    8  N   LIG     1      13.378  31.854  17.775  1.00  0.00    -0.399 N 
HETATM    9  H   LIG     1      13.459  31.202  18.587  1.00  0.00     0.156 HD
HETATM   10  H   LIG     1      12.733  32.671  17.858  1.00  0.00     0.156 HD
ENDBRANCH   4   8
TORSDOF 1
ENDMDL
MODEL 11
REMARK VINA RESULT:      -4.9      4.288      5.313
REMARK  1 active torsions:
REMARK  status: ('A' for Active; 'I' for Inactive)
REMARK    1  A    between atoms: C_4  and  N_5 
ROOT
HETATM    1 CL   LIG     1      16.488  37.575  23.672  1.00  0.00    -0.084 Cl
HETATM    2  C   LIG     1      17.466  37.987  22.275  1.00  0.00     0.036 A 
HETATM    3  C   LIG     1      17.611  37.070  21.227  1.00  0.00     0.052 A 
HETATM    4  C   LIG     1      18.393  37.397  20.108  1.00  0.00     0.027 A 
HETATM    5  C   LIG     1      19.026  38.647  20.046  1.00  0.00     0.029 A 
HETATM    6  C   LIG     1      18.879  39.561  21.094  1.00  0.00     0.004 A 
HETATM    7  C   LIG     1      18.100  39.233  22.207  1.00  0.00     0.024 A 
ENDROOT
BRANCH   4   8
HETATM    8  N   LIG     1      18.543  36.461  19.038  1.00  0.00    -0.399 N 
HETATM    9  H   LIG     1      19.491  36.127  18.749  1.00  0.00     0.156 HD
HETATM   10  H   LIG     1      17.711  36.094  18.526  1.00  0.00     0.156 HD
ENDBRANCH   4   8
TORSDOF 1
ENDMDL
MODEL 12
REMARK VINA RESULT:      -4.9     10.110     10.927
REMARK  1 active torsions:
REMARK  status: ('A' for Active; 'I' for Inactive)
REMARK    1  A    between atoms: C_4  and  N_5 
ROOT
HETATM    1 CL   LIG     1      15.313  29.662  13.579  1.00  0.00    -0.084 Cl
HETATM    2  C   LIG     1      14.641  30.625  14.883  1.00  0.00     0.036 A 
HETATM    3  C   LIG     1      15.366  31.704  15.402  1.00  0.00     0.052 A 
HETATM    4  C   LIG     1      14.831  32.476  16.444  1.00  0.00     0.027 A 
HETATM    5  C   LIG     1      13.566  32.161  16.963  1.00  0.00     0.029 A 
HETATM    6  C   LIG     1      12.844  31.083  16.442  1.00  0.00     0.004 A 
HETATM    7  C   LIG     1      13.379  30.316  15.404  1.00  0.00     0.024 A 
ENDROOT
BRANCH   4   8
HETATM    8  N   LIG     1      15.572  33.578  16.977  1.00  0.00    -0.399 N 
HETATM    9  H   LIG     1      16.489  33.426  17.454  1.00  0.00     0.156 HD
HETATM   10  H   LIG     1      15.210  34.554  16.897  1.00  0.00     0.156 HD
ENDBRANCH   4   8
TORSDOF 1
ENDMDL
MODEL 13
REMARK VINA RESULT:      -4.8     11.158     12.226
REMARK  1 active torsions:
REMARK  status: ('A' for Active; 'I' for Inactive)
REMARK    1  A    between atoms: C_4  and  N_5 
ROOT
HETATM    1 CL   LIG     1      14.154  32.376  17.597  1.00  0.00    -0.084 Cl
HETATM    2  C   LIG     1      14.434  31.517  16.093  1.00  0.00     0.036 A 
HETATM    3  C   LIG     1      13.548  30.513  15.684  1.00  0.00     0.052 A 
HETATM    4  C   LIG     1      13.770  29.824  14.482  1.00  0.00     0.027 A 
HETATM    5  C   LIG     1      14.883  30.148  13.692  1.00  0.00     0.029 A 
HETATM    6  C   LIG     1      15.766  31.152  14.102  1.00  0.00     0.004 A 
HETATM    7  C   LIG     1      15.543  31.836  15.300  1.00  0.00     0.024 A 
ENDROOT
BRANCH   4   8
HETATM    8  N   LIG     1      12.867  28.798  14.064  1.00  0.00    -0.399 N 
HETATM    9  H   LIG     1      11.840  28.884  14.239  1.00  0.00     0.156 HD
HETATM   10  H   LIG     1      13.216  27.944  13.575  1.00  0.00     0.156 HD
ENDBRANCH   4   8
TORSDOF 1
ENDMDL
MODEL 14
REMARK VINA RESULT:      -4.8      2.872      3.753
REMARK  1 active torsions:
REMARK  status: ('A' for Active; 'I' for Inactive)
REMARK    1  A    between atoms: C_4  and  N_5 
ROOT
HETATM    1 CL   LIG     1      18.500  37.080  26.162  1.00  0.00    -0.084 Cl
HETATM    2  C   LIG     1      17.857  37.676  24.643  1.00  0.00     0.036 A 
HETATM    3  C   LIG     1      18.668  38.431  23.787  1.00  0.00     0.052 A 
HETATM    4  C   LIG     1      18.156  38.910  22.571  1.00  0.00     0.027 A 
HETATM    5  C   LIG     1      16.828  38.627  22.219  1.00  0.00     0.029 A 
HETATM    6  C   LIG     1      16.020  37.873  23.075  1.00  0.00     0.004 A 
HETATM    7  C   LIG     1      16.532  37.398  24.286  1.00  0.00     0.024 A 
ENDROOT
BRANCH   4   8
HETATM    8  N   LIG     1      18.983  39.682  21.697  1.00  0.00    -0.399 N 
HETATM    9  H   LIG     1      20.024  39.599  21.734  1.00  0.00     0.156 HD
HETATM   10  H   LIG     1      18.562  40.341  21.005  1.00  0.00     0.156 HD
ENDBRANCH   4   8
TORSDOF 1
ENDMDL
MODEL 15
REMARK VINA RESULT:      -4.8      9.772     10.769
REMARK  1 active torsions:
REMARK  status: ('A' for Active; 'I' for Inactive)
REMARK    1  A    between atoms: C_4  and  N_5 
ROOT
HETATM    1 CL   LIG     1      15.290  34.386  17.583  1.00  0.00    -0.084 Cl
HETATM    2  C   LIG     1      14.904  32.932  16.680  1.00  0.00     0.036 A 
HETATM    3  C   LIG     1      13.781  32.171  17.026  1.00  0.00     0.052 A 
HETATM    4  C   LIG     1      13.469  31.008  16.306  1.00  0.00     0.027 A 
HETATM    5  C   LIG     1      14.289  30.613  15.237  1.00  0.00     0.029 A 
HETATM    6  C   LIG     1      15.409  31.376  14.893  1.00  0.00     0.004 A 
HETATM    7  C   LIG     1      15.717  32.534  15.612  1.00  0.00     0.024 A 
ENDROOT
BRANCH   4   8
HETATM    8  N   LIG     1      12.324  30.228  16.659  1.00  0.00    -0.399 N 
HETATM    9  H   LIG     1      11.462  30.246  16.068  1.00  0.00     0.156 HD
HETATM   10  H   LIG     1      12.328  29.626  17.512  1.00  0.00     0.156 HD
ENDBRANCH   4   8
TORSDOF 1
ENDMDL
MODEL 16
REMARK VINA RESULT:      -4.7      2.719      3.282
REMARK  1 active torsions:
REMARK  status: ('A' for Active; 'I' for Inactive)
REMARK    1  A    between atoms: C_4  and  N_5 
ROOT
HETATM    1 CL   LIG     1      17.296  38.739  25.796  1.00  0.00    -0.084 Cl
HETATM    2  C   LIG     1      17.201  37.289  24.811  1.00  0.00     0.036 A 
HETATM    3  C   LIG     1      16.896  37.388  23.448  1.00  0.00     0.052 A 
HETATM    4  C   LIG     1      16.819  36.231  22.658  1.00  0.00     0.027 A 
HETATM    5  C   LIG     1      17.049  34.976  23.241  1.00  0.00     0.029 A 
HETATM    6  C   LIG     1      17.353  34.880  24.602  1.00  0.00     0.004 A 
HETATM    7  C   LIG     1      17.430  36.035  25.387  1.00  0.00     0.024 A 
ENDROOT
BRANCH   4   8
HETATM    8  N   LIG     1      16.507  36.330  21.266  1.00  0.00    -0.399 N 
HETATM    9  H   LIG     1      17.158  35.949  20.543  1.00  0.00     0.156 HD
HETATM   10  H   LIG     1      15.623  36.784  20.946  1.00  0.00     0.156 HD
ENDBRANCH   4   8
TORSDOF 1
ENDMDL
MODEL 17
REMARK VINA RESULT:      -4.7      3.888      4.563
REMARK  1 active torsions:
REMARK  status: ('A' for Active; 'I' for Inactive)
REMARK    1  A    between atoms: C_4  and  N_5 
ROOT
HETATM    1 CL   LIG     1      19.456  36.669  19.359  1.00  0.00    -0.084 Cl
HETATM    2  C   LIG     1      18.603  37.600  20.578  1.00  0.00     0.036 A 
HETATM    3  C   LIG     1      17.465  37.069  21.195  1.00  0.00     0.052 A 
HETATM    4  C   LIG     1      16.781  37.811  22.170  1.00  0.00     0.027 A 
HETATM    5  C   LIG     1      17.244  39.088  22.521  1.00  0.00     0.029 A 
HETATM    6  C   LIG     1      18.381  39.616  21.903  1.00  0.00     0.004 A 
HETATM    7  C   LIG     1      19.061  38.874  20.933  1.00  0.00     0.024 A 
ENDROOT
BRANCH   4   8
HETATM    8  N   LIG     1      15.617  37.270  22.801  1.00  0.00    -0.399 N 
HETATM    9  H   LIG     1      15.674  36.393  23.366  1.00  0.00     0.156 HD
HETATM   10  H   LIG     1      14.690  37.742  22.709  1.00  0.00     0.156 HD
ENDBRANCH   4   8
TORSDOF 1
ENDMDL
MODEL 18
REMARK VINA RESULT:      -4.6     10.633     11.578
REMARK  1 active torsions:
REMARK  status: ('A' for Active; 'I' for Inactive)
REMARK    1  A    between atoms: C_4  and  N_5 
ROOT
HETATM    1 CL   LIG     1      15.392  33.737  16.972  1.00  0.00    -0.084 Cl
HETATM    2  C   LIG     1      14.668  32.315  16.242  1.00  0.00     0.036 A 
HETATM    3  C   LIG     1      15.266  31.720  15.126  1.00  0.00     0.052 A 
HETATM    4  C   LIG     1      14.689  30.583  14.540  1.00  0.00     0.027 A 
HETATM    5  C   LIG     1      13.510  30.047  15.079  1.00  0.00     0.029 A 
HETATM    6  C   LIG     1      12.915  30.644  16.195  1.00  0.00     0.004 A 
HETATM    7  C   LIG     1      13.492  31.776  16.776  1.00  0.00     0.024 A 
ENDROOT
BRANCH   4   8
HETATM    8  N   LIG     1      15.298  29.974  13.398  1.00  0.00    -0.399 N 
HETATM    9  H   LIG     1      16.057  29.264  13.511  1.00  0.00     0.156 HD
HETATM   10  H   LIG     1      14.996  30.226  12.431  1.00  0.00     0.156 HD
ENDBRANCH   4   8
TORSDOF 1
ENDMDL
MODEL 19
REMARK VINA RESULT:      -4.4      9.495     10.383
REMARK  1 active torsions:
REMARK  status: ('A' for Active; 'I' for Inactive)
REMARK    1  A    between atoms: C_4  and  N_5 
ROOT
HETATM    1 CL   LIG     1      12.693  30.313  16.238  1.00  0.00    -0.084 Cl
HETATM    2  C   LIG     1      14.092  31.327  15.932  1.00  0.00     0.036 A 
HETATM    3  C   LIG     1      14.297  32.483  16.693  1.00  0.00     0.052 A 
HETATM    4  C   LIG     1      15.415  33.296  16.451  1.00  0.00     0.027 A 
HETATM    5  C   LIG     1      16.325  32.943  15.443  1.00  0.00     0.029 A 
HETATM    6  C   LIG     1      16.117  31.786  14.685  1.00  0.00     0.004 A 
HETATM    7  C   LIG     1      15.003  30.979  14.928  1.00  0.00     0.024 A 
ENDROOT
BRANCH   4   8
HETATM    8  N   LIG     1      15.626  34.479  17.226  1.00  0.00    -0.399 N 
HETATM    9  H   LIG     1      15.743  34.425  18.263  1.00  0.00     0.156 HD
HETATM   10  H   LIG     1      15.668  35.418  16.770  1.00  0.00     0.156 HD
ENDBRANCH   4   8
TORSDOF 1
ENDMDL
MODEL 20
REMARK VINA RESULT:      -4.4      3.157      3.863
REMARK  1 active torsions:
REMARK  status: ('A' for Active; 'I' for Inactive)
REMARK    1  A    between atoms: C_4  and  N_5 
ROOT
HETATM    1 CL   LIG     1      17.972  39.409  21.905  1.00  0.00    -0.084 Cl
HETATM    2  C   LIG     1      17.544  37.812  22.491  1.00  0.00     0.036 A 
HETATM    3  C   LIG     1      17.158  36.815  21.588  1.00  0.00     0.052 A 
HETATM    4  C   LIG     1      16.814  35.536  22.053  1.00  0.00     0.027 A 
HETATM    5  C   LIG     1      16.860  35.264  23.429  1.00  0.00     0.029 A 
HETATM    6  C   LIG     1      17.247  36.261  24.329  1.00  0.00     0.004 A 
HETATM    7  C   LIG     1      17.588  37.534  23.862  1.00  0.00     0.024 A 
ENDROOT
BRANCH   4   8
HETATM    8  N   LIG     1      16.419  34.517  21.132  1.00  0.00    -0.399 N 
HETATM    9  H   LIG     1      15.639  34.681  20.455  1.00  0.00     0.156 HD
HETATM   10  H   LIG     1      16.902  33.591  21.117  1.00  0.00     0.156 HD
ENDBRANCH   4   8
TORSDOF 1
ENDMDL
