REMARK  0 active torsions:
REMARK  status: ('A' for Active; 'I' for Inactive)
ROOT
HETATM    1  C   LIG     1      -2.342  -1.194  -0.457  1.00  0.00     0.070 C 
HETATM    2  C   LIG     1      -1.161  -0.319  -0.175  1.00  0.00     0.031 A 
HETATM    3  N   LIG     1       0.085  -0.868  -0.157  1.00  0.00    -0.259 NA
HETATM    4  C   LIG     1       1.199  -0.127   0.093  1.00  0.00     0.031 A 
HETATM    5  C   LIG     1       2.544  -0.780   0.101  1.00  0.00     0.070 C 
HETATM    6  C   LIG     1       1.077   1.246   0.343  1.00  0.00     0.027 A 
HETATM    7  C   LIG     1      -0.189   1.834   0.331  1.00  0.00     0.004 A 
HETATM    8  C   LIG     1      -1.317   1.053   0.072  1.00  0.00     0.027 A 
ENDROOT
TORSDOF 0
