MODEL 1
REMARK VINA RESULT:      -4.8      0.000      0.000
REMARK  2 active torsions:
REMARK  status: ('A' for Active; 'I' for Inactive)
REMARK    1  A    between atoms: C_2  and  C_4 
REMARK    2  A    between atoms: C_4  and  C_5 
ROOT
HETATM    1  C   LIG     1      17.172  37.439  24.833  1.00  0.00     0.008 C 
ENDROOT
BRANCH   1   2
HETATM    2  C   LIG     1      17.023  37.531  23.289  1.00  0.00    -0.022 C 
HETATM    3  C   LIG     1      17.893  38.680  22.759  1.00  0.00     0.009 C 
HETATM    4  C   LIG     1      15.568  37.740  22.841  1.00  0.00     0.009 C 
ENDBRANCH   1   2
BRANCH   1   5
HETATM    5  C   LIG     1      17.979  36.243  25.409  1.00  0.00    -0.022 C 
HETATM    6  C   LIG     1      18.407  36.448  26.871  1.00  0.00     0.009 C 
HETATM    7  C   LIG     1      17.291  34.885  25.214  1.00  0.00     0.009 C 
ENDBRANCH   1   5
TORSDOF 2
ENDMDL
MODEL 2
REMARK VINA RESULT:      -4.8      0.043      3.917
REMARK  2 active torsions:
REMARK  status: ('A' for Active; 'I' for Inactive)
REMARK    1  A    between atoms: C_2  and  C_4 
REMARK    2  A    between atoms: C_4  and  C_5 
ROOT
HETATM    1  C   LIG     1      17.150  37.420  24.868  1.00  0.00     0.008 C 
ENDROOT
BRANCH   1   2
HETATM    2  C   LIG     1      18.029  36.256  25.404  1.00  0.00    -0.022 C 
HETATM    3  C   LIG     1      17.296  34.923  25.197  1.00  0.00     0.009 C 
HETATM    4  C   LIG     1      18.391  36.416  26.889  1.00  0.00     0.009 C 
ENDBRANCH   1   2
BRANCH   1   5
HETATM    5  C   LIG     1      17.027  37.579  23.328  1.00  0.00    -0.022 C 
HETATM    6  C   LIG     1      15.574  37.725  22.847  1.00  0.00     0.009 C 
HETATM    7  C   LIG     1      17.920  38.685  22.750  1.00  0.00     0.009 C 
ENDBRANCH   1   5
TORSDOF 2
ENDMDL
MODEL 3
REMARK VINA RESULT:      -4.6      2.945      4.188
REMARK  2 active torsions:
REMARK  status: ('A' for Active; 'I' for Inactive)
REMARK    1  A    between atoms: C_2  and  C_4 
REMARK    2  A    between atoms: C_4  and  C_5 
ROOT
HETATM    1  C   LIG     1      17.574  37.299  21.385  1.00  0.00     0.008 C 
ENDROOT
BRANCH   1   2
HETATM    2  C   LIG     1      18.388  37.895  20.203  1.00  0.00    -0.022 C 
HETATM    3  C   LIG     1      19.307  36.813  19.618  1.00  0.00     0.009 C 
HETATM    4  C   LIG     1      19.229  39.114  20.612  1.00  0.00     0.009 C 
ENDBRANCH   1   2
BRANCH   1   5
HETATM    5  C   LIG     1      17.217  35.788  21.324  1.00  0.00    -0.022 C 
HETATM    6  C   LIG     1      17.017  35.155  22.710  1.00  0.00     0.009 C 
HETATM    7  C   LIG     1      16.042  35.470  20.390  1.00  0.00     0.009 C 
ENDBRANCH   1   5
TORSDOF 2
ENDMDL
MODEL 4
REMARK VINA RESULT:      -4.6      2.619      3.749
REMARK  2 active torsions:
REMARK  status: ('A' for Active; 'I' for Inactive)
REMARK    1  A    between atoms: C_2  and  C_4 
REMARK    2  A    between atoms: C_4  and  C_5 
ROOT
HETATM    1  C   LIG     1      17.525  36.989  21.195  1.00  0.00     0.008 C 
ENDROOT
BRANCH   1   2
HETATM    2  C   LIG     1      18.014  38.317  21.835  1.00  0.00    -0.022 C 
HETATM    3  C   LIG     1      16.838  39.009  22.539  1.00  0.00     0.009 C 
HETATM    4  C   LIG     1      18.636  39.279  20.812  1.00  0.00     0.009 C 
ENDBRANCH   1   2
BRANCH   1   5
HETATM    5  C   LIG     1      16.431  36.184  21.952  1.00  0.00    -0.022 C 
HETATM    6  C   LIG     1      15.377  35.569  21.019  1.00  0.00     0.009 C 
HETATM    7  C   LIG     1      16.997  35.139  22.922  1.00  0.00     0.009 C 
ENDBRANCH   1   5
TORSDOF 2
ENDMDL
MODEL 5
REMARK VINA RESULT:      -4.6      2.717      4.311
REMARK  2 active torsions:
REMARK  status: ('A' for Active; 'I' for Inactive)
REMARK    1  A    between atoms: C_2  and  C_4 
REMARK    2  A    between atoms: C_4  and  C_5 
ROOT
HETATM    1  C   LIG     1      17.689  36.958  21.036  1.00  0.00     0.008 C 
ENDROOT
BRANCH   1   2
HETATM    2  C   LIG     1      16.505  36.071  21.515  1.00  0.00    -0.022 C 
HETATM    3  C   LIG     1      16.973  35.173  22.669  1.00  0.00     0.009 C 
HETATM    4  C   LIG     1      15.920  35.201  20.392  1.00  0.00     0.009 C 
ENDBRANCH   1   2
BRANCH   1   5
HETATM    5  C   LIG     1      17.960  38.277  21.811  1.00  0.00    -0.022 C 
HETATM    6  C   LIG     1      18.687  39.336  20.969  1.00  0.00     0.009 C 
HETATM    7  C   LIG     1      16.713  38.861  22.487  1.00  0.00     0.009 C 
ENDBRANCH   1   5
TORSDOF 2
ENDMDL
MODEL 6
REMARK VINA RESULT:      -4.4      2.166      3.620
REMARK  2 active torsions:
REMARK  status: ('A' for Active; 'I' for Inactive)
REMARK    1  A    between atoms: C_2  and  C_4 
REMARK    2  A    between atoms: C_4  and  C_5 
ROOT
HETATM    1  C   LIG     1      17.748  38.794  21.573  1.00  0.00     0.008 C 
ENDROOT
BRANCH   1   2
HETATM    2  C   LIG     1      18.806  38.205  20.600  1.00  0.00    -0.022 C 
HETATM    3  C   LIG     1      19.005  39.166  19.419  1.00  0.00     0.009 C 
HETATM    4  C   LIG     1      18.421  36.815  20.070  1.00  0.00     0.009 C 
ENDBRANCH   1   2
BRANCH   1   5
HETATM    5  C   LIG     1      17.214  37.870  22.702  1.00  0.00    -0.022 C 
HETATM    6  C   LIG     1      17.818  38.183  24.080  1.00  0.00     0.009 C 
HETATM    7  C   LIG     1      15.682  37.800  22.766  1.00  0.00     0.009 C 
ENDBRANCH   1   5
TORSDOF 2
ENDMDL
MODEL 7
REMARK VINA RESULT:      -4.2      2.378      4.098
REMARK  2 active torsions:
REMARK  status: ('A' for Active; 'I' for Inactive)
REMARK    1  A    between atoms: C_2  and  C_4 
REMARK    2  A    between atoms: C_4  and  C_5 
ROOT
HETATM    1  C   LIG     1      17.812  36.665  21.231  1.00  0.00     0.008 C 
ENDROOT
BRANCH   1   2
HETATM    2  C   LIG     1      16.774  35.588  21.651  1.00  0.00    -0.022 C 
HETATM    3  C   LIG     1      15.358  36.175  21.547  1.00  0.00     0.009 C 
HETATM    4  C   LIG     1      17.006  35.058  23.074  1.00  0.00     0.009 C 
ENDBRANCH   1   2
BRANCH   1   5
HETATM    5  C   LIG     1      17.553  38.130  21.679  1.00  0.00    -0.022 C 
HETATM    6  C   LIG     1      17.731  38.343  23.190  1.00  0.00     0.009 C 
HETATM    7  C   LIG     1      18.341  39.169  20.871  1.00  0.00     0.009 C 
ENDBRANCH   1   5
TORSDOF 2
ENDMDL
MODEL 8
REMARK VINA RESULT:      -4.1      9.029     10.468
REMARK  2 active torsions:
REMARK  status: ('A' for Active; 'I' for Inactive)
REMARK    1  A    between atoms: C_2  and  C_4 
REMARK    2  A    between atoms: C_4  and  C_5 
ROOT
HETATM    1  C   LIG     1      13.980  31.719  16.690  1.00  0.00     0.008 C 
ENDROOT
BRANCH   1   2
HETATM    2  C   LIG     1      15.130  32.566  17.302  1.00  0.00    -0.022 C 
HETATM    3  C   LIG     1      15.151  32.375  18.825  1.00  0.00     0.009 C 
HETATM    4  C   LIG     1      15.008  34.062  16.975  1.00  0.00     0.009 C 
ENDBRANCH   1   2
BRANCH   1   5
HETATM    5  C   LIG     1      14.354  30.675  15.602  1.00  0.00    -0.022 C 
HETATM    6  C   LIG     1      13.130  30.031  14.932  1.00  0.00     0.009 C 
HETATM    7  C   LIG     1      15.349  31.201  14.560  1.00  0.00     0.009 C 
ENDBRANCH   1   5
TORSDOF 2
ENDMDL
MODEL 9
REMARK VINA RESULT:      -4.1      4.998      6.150
REMARK  2 active torsions:
REMARK  status: ('A' for Active; 'I' for Inactive)
REMARK    1  A    between atoms: C_2  and  C_4 
REMARK    2  A    between atoms: C_4  and  C_5 
ROOT
HETATM    1  C   LIG     1      15.019  33.532  20.901  1.00  0.00     0.008 C 
ENDROOT
BRANCH   1   2
HETATM    2  C   LIG     1      15.688  34.933  20.843  1.00  0.00    -0.022 C 
HETATM    3  C   LIG     1      16.977  34.919  21.677  1.00  0.00     0.009 C 
HETATM    4  C   LIG     1      14.766  36.056  21.343  1.00  0.00     0.009 C 
ENDBRANCH   1   2
BRANCH   1   5
HETATM    5  C   LIG     1      15.455  32.481  19.843  1.00  0.00    -0.022 C 
HETATM    6  C   LIG     1      14.905  31.074  20.124  1.00  0.00     0.009 C 
HETATM    7  C   LIG     1      15.177  32.911  18.397  1.00  0.00     0.009 C 
ENDBRANCH   1   5
TORSDOF 2
ENDMDL
MODEL 10
REMARK VINA RESULT:      -4.0     10.379     11.574
REMARK  2 active torsions:
REMARK  status: ('A' for Active; 'I' for Inactive)
REMARK    1  A    between atoms: C_2  and  C_4 
REMARK    2  A    between atoms: C_4  and  C_5 
ROOT
HETATM    1  C   LIG     1      15.544  31.491  14.342  1.00  0.00     0.008 C 
ENDROOT
BRANCH   1   2
HETATM    2  C   LIG     1      16.401  32.268  15.379  1.00  0.00    -0.022 C 
HETATM    3  C   LIG     1      15.481  33.117  16.268  1.00  0.00     0.009 C 
HETATM    4  C   LIG     1      17.457  33.172  14.724  1.00  0.00     0.009 C 
ENDBRANCH   1   2
BRANCH   1   5
HETATM    5  C   LIG     1      14.917  30.142  14.791  1.00  0.00    -0.022 C 
HETATM    6  C   LIG     1      13.418  30.248  15.114  1.00  0.00     0.009 C 
HETATM    7  C   LIG     1      15.200  28.981  13.829  1.00  0.00     0.009 C 
ENDBRANCH   1   5
TORSDOF 2
ENDMDL
MODEL 11
REMARK VINA RESULT:      -4.0     10.351     11.599
REMARK  2 active torsions:
REMARK  status: ('A' for Active; 'I' for Inactive)
REMARK    1  A    between atoms: C_2  and  C_4 
REMARK    2  A    between atoms: C_4  and  C_5 
ROOT
HETATM    1  C   LIG     1      15.530  31.477  14.360  1.00  0.00     0.008 C 
ENDROOT
BRANCH   1   2
HETATM    2  C   LIG     1      14.906  30.141  14.850  1.00  0.00    -0.022 C 
HETATM    3  C   LIG     1      15.182  29.039  13.817  1.00  0.00     0.009 C 
HETATM    4  C   LIG     1      13.394  30.244  15.099  1.00  0.00     0.009 C 
ENDBRANCH   1   2
BRANCH   1   5
HETATM    5  C   LIG     1      16.327  32.322  15.392  1.00  0.00    -0.022 C 
HETATM    6  C   LIG     1      17.423  33.186  14.750  1.00  0.00     0.009 C 
HETATM    7  C   LIG     1      15.436  33.152  16.326  1.00  0.00     0.009 C 
ENDBRANCH   1   5
TORSDOF 2
ENDMDL
MODEL 12
REMARK VINA RESULT:      -3.9      9.548     10.672
REMARK  2 active torsions:
REMARK  status: ('A' for Active; 'I' for Inactive)
REMARK    1  A    between atoms: C_2  and  C_4 
REMARK    2  A    between atoms: C_4  and  C_5 
ROOT
HETATM    1  C   LIG     1      15.153  32.283  15.851  1.00  0.00     0.008 C 
ENDROOT
BRANCH   1   2
HETATM    2  C   LIG     1      15.758  31.326  14.786  1.00  0.00    -0.022 C 
HETATM    3  C   LIG     1      16.106  32.124  13.521  1.00  0.00     0.009 C 
HETATM    4  C   LIG     1      14.817  30.169  14.420  1.00  0.00     0.009 C 
ENDBRANCH   1   2
BRANCH   1   5
HETATM    5  C   LIG     1      14.247  31.659  16.949  1.00  0.00    -0.022 C 
HETATM    6  C   LIG     1      14.691  32.016  18.376  1.00  0.00     0.009 C 
HETATM    7  C   LIG     1      12.752  31.936  16.743  1.00  0.00     0.009 C 
ENDBRANCH   1   5
TORSDOF 2
ENDMDL
MODEL 13
REMARK VINA RESULT:      -3.9     10.056     11.406
REMARK  2 active torsions:
REMARK  status: ('A' for Active; 'I' for Inactive)
REMARK    1  A    between atoms: C_2  and  C_4 
REMARK    2  A    between atoms: C_4  and  C_5 
ROOT
HETATM    1  C   LIG     1      15.293  31.611  15.752  1.00  0.00     0.008 C 
ENDROOT
BRANCH   1   2
HETATM    2  C   LIG     1      13.981  31.830  16.555  1.00  0.00    -0.022 C 
HETATM    3  C   LIG     1      14.298  31.844  18.057  1.00  0.00     0.009 C 
HETATM    4  C   LIG     1      12.918  30.760  16.265  1.00  0.00     0.009 C 
ENDBRANCH   1   2
BRANCH   1   5
HETATM    5  C   LIG     1      15.166  31.114  14.285  1.00  0.00    -0.022 C 
HETATM    6  C   LIG     1      16.028  31.914  13.297  1.00  0.00     0.009 C 
HETATM    7  C   LIG     1      15.389  29.604  14.126  1.00  0.00     0.009 C 
ENDBRANCH   1   5
TORSDOF 2
ENDMDL
MODEL 14
REMARK VINA RESULT:      -3.9     10.099     11.325
REMARK  2 active torsions:
REMARK  status: ('A' for Active; 'I' for Inactive)
REMARK    1  A    between atoms: C_2  and  C_4 
REMARK    2  A    between atoms: C_4  and  C_5 
ROOT
HETATM    1  C   LIG     1      15.314  31.435  15.741  1.00  0.00     0.008 C 
ENDROOT
BRANCH   1   2
HETATM    2  C   LIG     1      15.090  30.998  14.267  1.00  0.00    -0.022 C 
HETATM    3  C   LIG     1      15.387  29.497  14.129  1.00  0.00     0.009 C 
HETATM    4  C   LIG     1      15.957  31.785  13.273  1.00  0.00     0.009 C 
ENDBRANCH   1   2
BRANCH   1   5
HETATM    5  C   LIG     1      14.057  31.765  16.594  1.00  0.00    -0.022 C 
HETATM    6  C   LIG     1      12.864  30.843  16.297  1.00  0.00     0.009 C 
HETATM    7  C   LIG     1      14.339  31.847  18.100  1.00  0.00     0.009 C 
ENDBRANCH   1   5
TORSDOF 2
ENDMDL
MODEL 15
REMARK VINA RESULT:      -3.7     11.189     12.453
REMARK  2 active torsions:
REMARK  status: ('A' for Active; 'I' for Inactive)
REMARK    1  A    between atoms: C_2  and  C_4 
REMARK    2  A    between atoms: C_4  and  C_5 
ROOT
HETATM    1  C   LIG     1      15.656  30.421  14.778  1.00  0.00     0.008 C 
ENDROOT
BRANCH   1   2
HETATM    2  C   LIG     1      14.731  29.554  13.879  1.00  0.00    -0.022 C 
HETATM    3  C   LIG     1      13.316  29.528  14.477  1.00  0.00     0.009 C 
HETATM    4  C   LIG     1      15.241  28.115  13.709  1.00  0.00     0.009 C 
ENDBRANCH   1   2
BRANCH   1   5
HETATM    5  C   LIG     1      15.600  31.963  14.595  1.00  0.00    -0.022 C 
HETATM    6  C   LIG     1      15.837  32.737  15.901  1.00  0.00     0.009 C 
HETATM    7  C   LIG     1      16.500  32.481  13.466  1.00  0.00     0.009 C 
ENDBRANCH   1   5
TORSDOF 2
ENDMDL
MODEL 16
REMARK VINA RESULT:      -3.7      7.075      8.102
REMARK  2 active torsions:
REMARK  status: ('A' for Active; 'I' for Inactive)
REMARK    1  A    between atoms: C_2  and  C_4 
REMARK    2  A    between atoms: C_4  and  C_5 
ROOT
HETATM    1  C   LIG     1      15.559  32.124  18.067  1.00  0.00     0.008 C 
ENDROOT
BRANCH   1   2
HETATM    2  C   LIG     1      14.727  32.639  16.860  1.00  0.00    -0.022 C 
HETATM    3  C   LIG     1      14.742  34.175  16.848  1.00  0.00     0.009 C 
HETATM    4  C   LIG     1      13.274  32.141  16.881  1.00  0.00     0.009 C 
ENDBRANCH   1   2
BRANCH   1   5
HETATM    5  C   LIG     1      14.946  32.281  19.486  1.00  0.00    -0.022 C 
HETATM    6  C   LIG     1      14.897  30.964  20.275  1.00  0.00     0.009 C 
HETATM    7  C   LIG     1      15.587  33.404  20.312  1.00  0.00     0.009 C 
ENDBRANCH   1   5
TORSDOF 2
ENDMDL
MODEL 17
REMARK VINA RESULT:      -3.7     10.688     11.851
REMARK  2 active torsions:
REMARK  status: ('A' for Active; 'I' for Inactive)
REMARK    1  A    between atoms: C_2  and  C_4 
REMARK    2  A    between atoms: C_4  and  C_5 
ROOT
HETATM    1  C   LIG     1      15.892  30.727  14.785  1.00  0.00     0.008 C 
ENDROOT
BRANCH   1   2
HETATM    2  C   LIG     1      15.763  32.267  14.948  1.00  0.00    -0.022 C 
HETATM    3  C   LIG     1      17.058  32.942  14.474  1.00  0.00     0.009 C 
HETATM    4  C   LIG     1      15.464  32.690  16.394  1.00  0.00     0.009 C 
ENDBRANCH   1   2
BRANCH   1   5
HETATM    5  C   LIG     1      14.703  29.969  14.133  1.00  0.00    -0.022 C 
HETATM    6  C   LIG     1      15.037  28.513  13.771  1.00  0.00     0.009 C 
HETATM    7  C   LIG     1      13.400  30.060  14.937  1.00  0.00     0.009 C 
ENDBRANCH   1   5
TORSDOF 2
ENDMDL
MODEL 18
REMARK VINA RESULT:      -3.4      8.964     10.288
REMARK  2 active torsions:
REMARK  status: ('A' for Active; 'I' for Inactive)
REMARK    1  A    between atoms: C_2  and  C_4 
REMARK    2  A    between atoms: C_4  and  C_5 
ROOT
HETATM    1  C   LIG     1      14.835  31.687  16.936  1.00  0.00     0.008 C 
ENDROOT
BRANCH   1   2
HETATM    2  C   LIG     1      15.189  32.959  16.117  1.00  0.00    -0.022 C 
HETATM    3  C   LIG     1      16.554  32.767  15.439  1.00  0.00     0.009 C 
HETATM    4  C   LIG     1      15.217  34.233  16.974  1.00  0.00     0.009 C 
ENDBRANCH   1   2
BRANCH   1   5
HETATM    5  C   LIG     1      13.564  30.894  16.523  1.00  0.00    -0.022 C 
HETATM    6  C   LIG     1      12.265  31.694  16.704  1.00  0.00     0.009 C 
HETATM    7  C   LIG     1      13.651  30.280  15.120  1.00  0.00     0.009 C 
ENDBRANCH   1   5
TORSDOF 2
ENDMDL
MODEL 19
REMARK VINA RESULT:      -3.4     16.772     17.485
REMARK  2 active torsions:
REMARK  status: ('A' for Active; 'I' for Inactive)
REMARK    1  A    between atoms: C_2  and  C_4 
REMARK    2  A    between atoms: C_4  and  C_5 
ROOT
HETATM    1  C   LIG     1       3.307  41.763  33.984  1.00  0.00     0.008 C 
ENDROOT
BRANCH   1   2
HETATM    2  C   LIG     1       3.989  40.461  33.481  1.00  0.00    -0.022 C 
HETATM    3  C   LIG     1       3.294  39.983  32.197  1.00  0.00     0.009 C 
HETATM    4  C   LIG     1       3.968  39.334  34.525  1.00  0.00     0.009 C 
ENDBRANCH   1   2
BRANCH   1   5
HETATM    5  C   LIG     1       4.226  42.910  34.486  1.00  0.00    -0.022 C 
HETATM    6  C   LIG     1       4.165  44.167  33.604  1.00  0.00     0.009 C 
HETATM    7  C   LIG     1       4.023  43.258  35.967  1.00  0.00     0.009 C 
ENDBRANCH   1   5
TORSDOF 2
ENDMDL
MODEL 20
REMARK VINA RESULT:      -3.4     15.415     16.261
REMARK  2 active torsions:
REMARK  status: ('A' for Active; 'I' for Inactive)
REMARK    1  A    between atoms: C_2  and  C_4 
REMARK    2  A    between atoms: C_4  and  C_5 
ROOT
HETATM    1  C   LIG     1      25.982  31.232  35.732  1.00  0.00     0.008 C 
ENDROOT
BRANCH   1   2
HETATM    2  C   LIG     1      27.091  30.369  35.069  1.00  0.00    -0.022 C 
HETATM    3  C   LIG     1      27.829  31.207  34.015  1.00  0.00     0.009 C 
HETATM    4  C   LIG     1      26.542  29.091  34.416  1.00  0.00     0.009 C 
ENDBRANCH   1   2
BRANCH   1   5
HETATM    5  C   LIG     1      26.034  31.412  37.274  1.00  0.00    -0.022 C 
HETATM    6  C   LIG     1      25.867  30.094  38.046  1.00  0.00     0.009 C 
HETATM    7  C   LIG     1      27.262  32.192  37.761  1.00  0.00     0.009 C 
ENDBRANCH   1   5
TORSDOF 2
ENDMDL
