MODEL 1
REMARK VINA RESULT:      -5.6      0.000      0.000
REMARK  0 active torsions:
REMARK  status: ('A' for Active; 'I' for Inactive)
ROOT
HETATM    1 BR   LIG     1      20.102  38.754  19.440  1.00  0.00    -0.051 Br
HETATM    2  C   LIG     1      18.705  38.270  20.647  1.00  0.00     0.012 A 
HETATM    3  C   LIG     1      18.119  37.000  20.567  1.00  0.00     0.038 A 
HETATM    4  C   LIG     1      17.094  36.644  21.452  1.00  0.00     0.012 A 
HETATM    5 BR   LIG     1      16.295  34.913  21.342  1.00  0.00    -0.051 Br
HETATM    6  C   LIG     1      16.656  37.559  22.417  1.00  0.00     0.019 A 
HETATM    7  C   LIG     1      17.242  38.826  22.498  1.00  0.00     0.003 A 
HETATM    8  C   LIG     1      18.266  39.181  21.614  1.00  0.00     0.019 A 
ENDROOT
TORSDOF 0
ENDMDL
MODEL 2
REMARK VINA RESULT:      -5.6      2.600      3.623
REMARK  0 active torsions:
REMARK  status: ('A' for Active; 'I' for Inactive)
ROOT
HETATM    1 BR   LIG     1      16.144  35.323  20.760  1.00  0.00    -0.051 Br
HETATM    2  C   LIG     1      16.622  36.173  22.401  1.00  0.00     0.012 A 
HETATM    3  C   LIG     1      17.022  35.402  23.500  1.00  0.00     0.038 A 
HETATM    4  C   LIG     1      17.373  36.026  24.702  1.00  0.00     0.012 A 
HETATM    5 BR   LIG     1      17.917  34.974  26.201  1.00  0.00    -0.051 Br
HETATM    6  C   LIG     1      17.324  37.422  24.806  1.00  0.00     0.019 A 
HETATM    7  C   LIG     1      16.925  38.192  23.709  1.00  0.00     0.003 A 
HETATM    8  C   LIG     1      16.575  37.568  22.507  1.00  0.00     0.019 A 
ENDROOT
TORSDOF 0
ENDMDL
MODEL 3
REMARK VINA RESULT:      -5.6      0.092      3.341
REMARK  0 active torsions:
REMARK  status: ('A' for Active; 'I' for Inactive)
ROOT
HETATM    1 BR   LIG     1      16.378  34.927  21.286  1.00  0.00    -0.051 Br
HETATM    2  C   LIG     1      17.156  36.667  21.391  1.00  0.00     0.012 A 
HETATM    3  C   LIG     1      18.198  37.023  20.525  1.00  0.00     0.038 A 
HETATM    4  C   LIG     1      18.768  38.299  20.602  1.00  0.00     0.012 A 
HETATM    5 BR   LIG     1      20.190  38.783  19.422  1.00  0.00    -0.051 Br
HETATM    6  C   LIG     1      18.296  39.220  21.546  1.00  0.00     0.019 A 
HETATM    7  C   LIG     1      17.255  38.865  22.409  1.00  0.00     0.003 A 
HETATM    8  C   LIG     1      16.685  37.590  22.332  1.00  0.00     0.019 A 
ENDROOT
TORSDOF 0
ENDMDL
MODEL 4
REMARK VINA RESULT:      -5.5      2.719      3.841
REMARK  0 active torsions:
REMARK  status: ('A' for Active; 'I' for Inactive)
ROOT
HETATM    1 BR   LIG     1      18.023  35.163  26.290  1.00  0.00    -0.051 Br
HETATM    2  C   LIG     1      17.395  36.007  24.697  1.00  0.00     0.012 A 
HETATM    3  C   LIG     1      17.055  35.232  23.580  1.00  0.00     0.038 A 
HETATM    4  C   LIG     1      16.595  35.851  22.412  1.00  0.00     0.012 A 
HETATM    5 BR   LIG     1      16.132  34.794  20.890  1.00  0.00    -0.051 Br
HETATM    6  C   LIG     1      16.475  37.245  22.361  1.00  0.00     0.019 A 
HETATM    7  C   LIG     1      16.813  38.018  23.476  1.00  0.00     0.003 A 
HETATM    8  C   LIG     1      17.273  37.400  24.643  1.00  0.00     0.019 A 
ENDROOT
TORSDOF 0
ENDMDL
MODEL 5
REMARK VINA RESULT:      -5.2      1.936      2.574
REMARK  0 active torsions:
REMARK  status: ('A' for Active; 'I' for Inactive)
ROOT
HETATM    1 BR   LIG     1      19.247  39.045  19.696  1.00  0.00    -0.051 Br
HETATM    2  C   LIG     1      18.311  37.925  20.926  1.00  0.00     0.012 A 
HETATM    3  C   LIG     1      18.124  38.341  22.251  1.00  0.00     0.038 A 
HETATM    4  C   LIG     1      17.438  37.520  23.153  1.00  0.00     0.012 A 
HETATM    5 BR   LIG     1      17.184  38.087  24.959  1.00  0.00    -0.051 Br
HETATM    6  C   LIG     1      16.938  36.282  22.730  1.00  0.00     0.019 A 
HETATM    7  C   LIG     1      17.123  35.867  21.407  1.00  0.00     0.003 A 
HETATM    8  C   LIG     1      17.809  36.688  20.506  1.00  0.00     0.019 A 
ENDROOT
TORSDOF 0
ENDMDL
MODEL 6
REMARK VINA RESULT:      -5.0      2.213      3.420
REMARK  0 active torsions:
REMARK  status: ('A' for Active; 'I' for Inactive)
ROOT
HETATM    1 BR   LIG     1      16.107  34.703  20.861  1.00  0.00    -0.051 Br
HETATM    2  C   LIG     1      16.918  36.263  21.607  1.00  0.00     0.012 A 
HETATM    3  C   LIG     1      16.838  36.503  22.984  1.00  0.00     0.038 A 
HETATM    4  C   LIG     1      17.432  37.646  23.531  1.00  0.00     0.012 A 
HETATM    5 BR   LIG     1      17.323  37.975  25.409  1.00  0.00    -0.051 Br
HETATM    6  C   LIG     1      18.107  38.549  22.700  1.00  0.00     0.019 A 
HETATM    7  C   LIG     1      18.187  38.308  21.324  1.00  0.00     0.003 A 
HETATM    8  C   LIG     1      17.593  37.166  20.778  1.00  0.00     0.019 A 
ENDROOT
TORSDOF 0
ENDMDL
MODEL 7
REMARK VINA RESULT:      -5.0      2.207      2.940
REMARK  0 active torsions:
REMARK  status: ('A' for Active; 'I' for Inactive)
ROOT
HETATM    1 BR   LIG     1      17.307  38.147  25.354  1.00  0.00    -0.051 Br
HETATM    2  C   LIG     1      17.432  37.738  23.493  1.00  0.00     0.012 A 
HETATM    3  C   LIG     1      16.857  36.563  22.994  1.00  0.00     0.038 A 
HETATM    4  C   LIG     1      16.948  36.264  21.630  1.00  0.00     0.012 A 
HETATM    5 BR   LIG     1      16.165  34.660  20.949  1.00  0.00    -0.051 Br
HETATM    6  C   LIG     1      17.615  37.140  20.765  1.00  0.00     0.019 A 
HETATM    7  C   LIG     1      18.188  38.314  21.263  1.00  0.00     0.003 A 
HETATM    8  C   LIG     1      18.097  38.613  22.627  1.00  0.00     0.019 A 
ENDROOT
TORSDOF 0
ENDMDL
MODEL 8
REMARK VINA RESULT:      -4.7      8.118      9.543
REMARK  0 active torsions:
REMARK  status: ('A' for Active; 'I' for Inactive)
ROOT
HETATM    1 BR   LIG     1      13.434  28.980  14.195  1.00  0.00    -0.051 Br
HETATM    2  C   LIG     1      14.113  30.492  15.142  1.00  0.00     0.012 A 
HETATM    3  C   LIG     1      15.265  31.145  14.686  1.00  0.00     0.038 A 
HETATM    4  C   LIG     1      15.763  32.254  15.379  1.00  0.00     0.012 A 
HETATM    5 BR   LIG     1      17.335  33.144  14.757  1.00  0.00    -0.051 Br
HETATM    6  C   LIG     1      15.109  32.710  16.530  1.00  0.00     0.019 A 
HETATM    7  C   LIG     1      13.958  32.059  16.985  1.00  0.00     0.003 A 
HETATM    8  C   LIG     1      13.460  30.951  16.292  1.00  0.00     0.019 A 
ENDROOT
TORSDOF 0
ENDMDL
MODEL 9
REMARK VINA RESULT:      -4.6      8.289      9.305
REMARK  0 active torsions:
REMARK  status: ('A' for Active; 'I' for Inactive)
ROOT
HETATM    1 BR   LIG     1      17.522  33.447  13.277  1.00  0.00    -0.051 Br
HETATM    2  C   LIG     1      16.237  32.278  14.069  1.00  0.00     0.012 A 
HETATM    3  C   LIG     1      15.800  32.502  15.381  1.00  0.00     0.038 A 
HETATM    4  C   LIG     1      14.858  31.645  15.961  1.00  0.00     0.012 A 
HETATM    5 BR   LIG     1      14.264  31.950  17.751  1.00  0.00    -0.051 Br
HETATM    6  C   LIG     1      14.351  30.565  15.228  1.00  0.00     0.019 A 
HETATM    7  C   LIG     1      14.785  30.342  13.918  1.00  0.00     0.003 A 
HETATM    8  C   LIG     1      15.727  31.198  13.339  1.00  0.00     0.019 A 
ENDROOT
TORSDOF 0
ENDMDL
MODEL 10
REMARK VINA RESULT:      -4.5      7.985      9.448
REMARK  0 active torsions:
REMARK  status: ('A' for Active; 'I' for Inactive)
ROOT
HETATM    1 BR   LIG     1      14.702  32.335  17.983  1.00  0.00    -0.051 Br
HETATM    2  C   LIG     1      15.142  31.959  16.163  1.00  0.00     0.012 A 
HETATM    3  C   LIG     1      16.100  32.735  15.499  1.00  0.00     0.038 A 
HETATM    4  C   LIG     1      16.423  32.460  14.165  1.00  0.00     0.012 A 
HETATM    5 BR   LIG     1      17.729  33.519  13.260  1.00  0.00    -0.051 Br
HETATM    6  C   LIG     1      15.786  31.407  13.495  1.00  0.00     0.019 A 
HETATM    7  C   LIG     1      14.830  30.632  14.159  1.00  0.00     0.003 A 
HETATM    8  C   LIG     1      14.508  30.908  15.492  1.00  0.00     0.019 A 
ENDROOT
TORSDOF 0
ENDMDL
MODEL 11
REMARK VINA RESULT:      -4.2      8.216      9.501
REMARK  0 active torsions:
REMARK  status: ('A' for Active; 'I' for Inactive)
ROOT
HETATM    1 BR   LIG     1      14.995  32.688  18.121  1.00  0.00    -0.051 Br
HETATM    2  C   LIG     1      15.108  31.993  16.347  1.00  0.00     0.012 A 
HETATM    3  C   LIG     1      14.327  30.891  15.974  1.00  0.00     0.038 A 
HETATM    4  C   LIG     1      14.409  30.382  14.673  1.00  0.00     0.012 A 
HETATM    5 BR   LIG     1      13.345  28.879  14.166  1.00  0.00    -0.051 Br
HETATM    6  C   LIG     1      15.273  30.975  13.744  1.00  0.00     0.019 A 
HETATM    7  C   LIG     1      16.052  32.075  14.116  1.00  0.00     0.003 A 
HETATM    8  C   LIG     1      15.970  32.584  15.416  1.00  0.00     0.019 A 
ENDROOT
TORSDOF 0
ENDMDL
MODEL 12
REMARK VINA RESULT:      -4.0      8.059      9.553
REMARK  0 active torsions:
REMARK  status: ('A' for Active; 'I' for Inactive)
ROOT
HETATM    1 BR   LIG     1      13.848  29.014  14.002  1.00  0.00    -0.051 Br
HETATM    2  C   LIG     1      14.785  30.586  14.545  1.00  0.00     0.012 A 
HETATM    3  C   LIG     1      14.644  31.071  15.851  1.00  0.00     0.038 A 
HETATM    4  C   LIG     1      15.331  32.223  16.249  1.00  0.00     0.012 A 
HETATM    5 BR   LIG     1      15.137  32.884  18.031  1.00  0.00    -0.051 Br
HETATM    6  C   LIG     1      16.160  32.892  15.340  1.00  0.00     0.019 A 
HETATM    7  C   LIG     1      16.302  32.407  14.036  1.00  0.00     0.003 A 
HETATM    8  C   LIG     1      15.615  31.256  13.638  1.00  0.00     0.019 A 
ENDROOT
TORSDOF 0
ENDMDL
MODEL 13
REMARK VINA RESULT:      -3.3     19.342     19.546
REMARK  0 active torsions:
REMARK  status: ('A' for Active; 'I' for Inactive)
ROOT
HETATM    1 BR   LIG     1      30.385  32.503  37.679  1.00  0.00    -0.051 Br
HETATM    2  C   LIG     1      28.626  31.859  37.312  1.00  0.00     0.012 A 
HETATM    3  C   LIG     1      28.405  31.005  36.224  1.00  0.00     0.038 A 
HETATM    4  C   LIG     1      27.115  30.533  35.954  1.00  0.00     0.012 A 
HETATM    5 BR   LIG     1      26.814  29.369  34.470  1.00  0.00    -0.051 Br
HETATM    6  C   LIG     1      26.046  30.915  36.773  1.00  0.00     0.019 A 
HETATM    7  C   LIG     1      26.266  31.767  37.860  1.00  0.00     0.003 A 
HETATM    8  C   LIG     1      27.555  32.239  38.129  1.00  0.00     0.019 A 
ENDROOT
TORSDOF 0
ENDMDL
MODEL 14
REMARK VINA RESULT:      -3.0     16.038     16.894
REMARK  0 active torsions:
REMARK  status: ('A' for Active; 'I' for Inactive)
ROOT
HETATM    1 BR   LIG     1      23.123  21.587  22.314  1.00  0.00    -0.051 Br
HETATM    2  C   LIG     1      24.000  22.187  20.727  1.00  0.00     0.012 A 
HETATM    3  C   LIG     1      24.928  23.234  20.793  1.00  0.00     0.038 A 
HETATM    4  C   LIG     1      25.571  23.674  19.630  1.00  0.00     0.012 A 
HETATM    5 BR   LIG     1      26.835  25.103  19.720  1.00  0.00    -0.051 Br
HETATM    6  C   LIG     1      25.287  23.066  18.401  1.00  0.00     0.019 A 
HETATM    7  C   LIG     1      24.361  22.019  18.336  1.00  0.00     0.003 A 
HETATM    8  C   LIG     1      23.718  21.580  19.498  1.00  0.00     0.019 A 
ENDROOT
TORSDOF 0
ENDMDL
MODEL 15
REMARK VINA RESULT:      -3.0     18.614     19.070
REMARK  0 active torsions:
REMARK  status: ('A' for Active; 'I' for Inactive)
ROOT
HETATM    1 BR   LIG     1      26.652  26.938  32.084  1.00  0.00    -0.051 Br
HETATM    2  C   LIG     1      26.832  27.581  33.872  1.00  0.00     0.012 A 
HETATM    3  C   LIG     1      26.453  28.892  34.187  1.00  0.00     0.038 A 
HETATM    4  C   LIG     1      26.585  29.363  35.498  1.00  0.00     0.012 A 
HETATM    5 BR   LIG     1      26.070  31.152  35.927  1.00  0.00    -0.051 Br
HETATM    6  C   LIG     1      27.095  28.523  36.495  1.00  0.00     0.019 A 
HETATM    7  C   LIG     1      27.472  27.213  36.181  1.00  0.00     0.003 A 
HETATM    8  C   LIG     1      27.340  26.742  34.871  1.00  0.00     0.019 A 
ENDROOT
TORSDOF 0
ENDMDL
MODEL 16
REMARK VINA RESULT:      -2.9     16.585     17.802
REMARK  0 active torsions:
REMARK  status: ('A' for Active; 'I' for Inactive)
ROOT
HETATM    1 BR   LIG     1      23.197  18.973  17.004  1.00  0.00    -0.051 Br
HETATM    2  C   LIG     1      23.816  20.450  18.043  1.00  0.00     0.012 A 
HETATM    3  C   LIG     1      23.037  20.940  19.099  1.00  0.00     0.038 A 
HETATM    4  C   LIG     1      23.491  22.023  19.861  1.00  0.00     0.012 A 
HETATM    5 BR   LIG     1      22.428  22.692  21.299  1.00  0.00    -0.051 Br
HETATM    6  C   LIG     1      24.726  22.615  19.567  1.00  0.00     0.019 A 
HETATM    7  C   LIG     1      25.505  22.125  18.514  1.00  0.00     0.003 A 
HETATM    8  C   LIG     1      25.050  21.043  17.753  1.00  0.00     0.019 A 
ENDROOT
TORSDOF 0
ENDMDL
MODEL 17
REMARK VINA RESULT:      -2.9     20.327     21.400
REMARK  0 active torsions:
REMARK  status: ('A' for Active; 'I' for Inactive)
ROOT
HETATM    1 BR   LIG     1      19.634  23.178  32.614  1.00  0.00    -0.051 Br
HETATM    2  C   LIG     1      20.224  22.327  34.218  1.00  0.00     0.012 A 
HETATM    3  C   LIG     1      21.111  22.989  35.077  1.00  0.00     0.038 A 
HETATM    4  C   LIG     1      21.544  22.366  36.253  1.00  0.00     0.012 A 
HETATM    5 BR   LIG     1      22.753  23.268  37.424  1.00  0.00    -0.051 Br
HETATM    6  C   LIG     1      21.090  21.079  36.570  1.00  0.00     0.019 A 
HETATM    7  C   LIG     1      20.204  20.419  35.712  1.00  0.00     0.003 A 
HETATM    8  C   LIG     1      19.772  21.042  34.537  1.00  0.00     0.019 A 
ENDROOT
TORSDOF 0
ENDMDL
MODEL 18
REMARK VINA RESULT:      -2.9     16.747     17.934
REMARK  0 active torsions:
REMARK  status: ('A' for Active; 'I' for Inactive)
ROOT
HETATM    1 BR   LIG     1      23.218  19.142  23.468  1.00  0.00    -0.051 Br
HETATM    2  C   LIG     1      23.071  20.302  21.958  1.00  0.00     0.012 A 
HETATM    3  C   LIG     1      23.275  19.800  20.666  1.00  0.00     0.038 A 
HETATM    4  C   LIG     1      23.167  20.650  19.560  1.00  0.00     0.012 A 
HETATM    5 BR   LIG     1      23.445  19.966  17.799  1.00  0.00    -0.051 Br
HETATM    6  C   LIG     1      22.855  22.003  19.746  1.00  0.00     0.019 A 
HETATM    7  C   LIG     1      22.651  22.504  21.035  1.00  0.00     0.003 A 
HETATM    8  C   LIG     1      22.759  21.654  22.141  1.00  0.00     0.019 A 
ENDROOT
TORSDOF 0
ENDMDL
MODEL 19
REMARK VINA RESULT:      -2.7     18.976     20.180
REMARK  0 active torsions:
REMARK  status: ('A' for Active; 'I' for Inactive)
ROOT
HETATM    1 BR   LIG     1      20.270  18.517  31.999  1.00  0.00    -0.051 Br
HETATM    2  C   LIG     1      19.990  20.387  32.262  1.00  0.00     0.012 A 
HETATM    3  C   LIG     1      20.205  20.957  33.523  1.00  0.00     0.038 A 
HETATM    4  C   LIG     1      20.000  22.328  33.717  1.00  0.00     0.012 A 
HETATM    5 BR   LIG     1      20.292  23.105  35.437  1.00  0.00    -0.051 Br
HETATM    6  C   LIG     1      19.580  23.130  32.647  1.00  0.00     0.019 A 
HETATM    7  C   LIG     1      19.367  22.561  31.388  1.00  0.00     0.003 A 
HETATM    8  C   LIG     1      19.572  21.190  31.195  1.00  0.00     0.019 A 
ENDROOT
TORSDOF 0
ENDMDL
MODEL 20
REMARK VINA RESULT:      -2.7     16.302     17.101
REMARK  0 active torsions:
REMARK  status: ('A' for Active; 'I' for Inactive)
ROOT
HETATM    1 BR   LIG     1      27.035  21.762  22.015  1.00  0.00    -0.051 Br
HETATM    2  C   LIG     1      25.243  21.979  21.395  1.00  0.00     0.012 A 
HETATM    3  C   LIG     1      24.823  21.335  20.225  1.00  0.00     0.038 A 
HETATM    4  C   LIG     1      23.509  21.493  19.771  1.00  0.00     0.012 A 
HETATM    5 BR   LIG     1      22.936  20.615  18.174  1.00  0.00    -0.051 Br
HETATM    6  C   LIG     1      22.614  22.298  20.487  1.00  0.00     0.019 A 
HETATM    7  C   LIG     1      23.033  22.941  21.657  1.00  0.00     0.003 A 
HETATM    8  C   LIG     1      24.346  22.782  22.110  1.00  0.00     0.019 A 
ENDROOT
TORSDOF 0
ENDMDL
