REMARK  0 active torsions:
REMARK  status: ('A' for Active; 'I' for Inactive)
ROOT
HETATM    1 BR   LIG     1       3.240  -0.439  -0.014  1.00  0.00    -0.051 Br
HETATM    2  C   LIG     1       1.344  -0.210  -0.007  1.00  0.00     0.012 A 
HETATM    3  C   LIG     1       0.793   1.076   0.038  1.00  0.00     0.043 A 
HETATM    4  C   LIG     1      -0.596   1.244   0.044  1.00  0.00     0.035 A 
HETATM    5 CL   LIG     1      -1.286   2.856   0.101  1.00  0.00    -0.084 Cl
HETATM    6  C   LIG     1      -1.435   0.124   0.004  1.00  0.00     0.024 A 
HETATM    7  C   LIG     1      -0.885  -1.161  -0.042  1.00  0.00     0.003 A 
HETATM    8  C   LIG     1       0.503  -1.329  -0.047  1.00  0.00     0.019 A 
ENDROOT
TORSDOF 0
