REMARK  1 active torsions:
REMARK  status: ('A' for Active; 'I' for Inactive)
REMARK    1  A    between atoms: S_1  and  C_2 
ROOT
HETATM    1  C   LIG     1       1.081  -0.051  -0.212  1.00  0.00    -0.003 A 
HETATM    2  C   LIG     1       0.348  -1.231  -0.033  1.00  0.00     0.018 A 
HETATM    3  C   LIG     1      -1.044  -1.177   0.100  1.00  0.00     0.001 A 
HETATM    4  C   LIG     1      -1.704   0.055   0.055  1.00  0.00     0.000 A 
HETATM    5  C   LIG     1      -0.973   1.234  -0.123  1.00  0.00     0.001 A 
HETATM    6  C   LIG     1       0.418   1.182  -0.257  1.00  0.00     0.018 A 
ENDROOT
BRANCH   1   7
HETATM    7  S   LIG     1       2.861  -0.119  -0.383  1.00  0.00    -0.143 SA
HETATM    8  H   LIG     1       3.053   0.004   1.006  1.00  0.00     0.107 HD
ENDBRANCH   1   7
TORSDOF 1
