MODEL 1
REMARK VINA RESULT:      -6.4      0.000      0.000
REMARK  0 active torsions:
REMARK  status: ('A' for Active; 'I' for Inactive)
ROOT
HETATM    1  C   LIG     1      18.697  39.313  20.687  1.00  0.00     0.048 C 
HETATM    2  C   LIG     1      18.052  38.327  21.616  1.00  0.00    -0.061 A 
HETATM    3  C   LIG     1      17.554  37.106  21.134  1.00  0.00     0.013 A 
HETATM    4  C   LIG     1      16.952  36.190  22.009  1.00  0.00    -0.061 A 
HETATM    5  C   LIG     1      16.466  34.865  21.499  1.00  0.00     0.048 C 
HETATM    6  C   LIG     1      16.874  36.489  23.378  1.00  0.00     0.013 A 
HETATM    7  C   LIG     1      17.351  37.714  23.866  1.00  0.00    -0.061 A 
HETATM    8  C   LIG     1      17.292  38.017  25.334  1.00  0.00     0.048 C 
HETATM    9  C   LIG     1      17.951  38.625  22.982  1.00  0.00     0.013 A 
ENDROOT
TORSDOF 0
ENDMDL
MODEL 2
REMARK VINA RESULT:      -6.4      0.150      3.512
REMARK  0 active torsions:
REMARK  status: ('A' for Active; 'I' for Inactive)
ROOT
HETATM    1  C   LIG     1      17.287  38.136  25.212  1.00  0.00     0.048 C 
HETATM    2  C   LIG     1      17.403  37.808  23.752  1.00  0.00    -0.061 A 
HETATM    3  C   LIG     1      18.006  38.709  22.859  1.00  0.00     0.013 A 
HETATM    4  C   LIG     1      18.110  38.394  21.496  1.00  0.00    -0.061 A 
HETATM    5  C   LIG     1      18.799  39.337  20.555  1.00  0.00     0.048 C 
HETATM    6  C   LIG     1      17.632  37.159  21.032  1.00  0.00     0.013 A 
HETATM    7  C   LIG     1      17.011  36.261  21.913  1.00  0.00    -0.061 A 
HETATM    8  C   LIG     1      16.528  34.930  21.417  1.00  0.00     0.048 C 
HETATM    9  C   LIG     1      16.911  36.585  23.275  1.00  0.00     0.013 A 
ENDROOT
TORSDOF 0
ENDMDL
MODEL 3
REMARK VINA RESULT:      -6.4      0.129      3.535
REMARK  0 active torsions:
REMARK  status: ('A' for Active; 'I' for Inactive)
ROOT
HETATM    1  C   LIG     1      16.505  34.901  21.421  1.00  0.00     0.048 C 
HETATM    2  C   LIG     1      17.011  36.219  21.930  1.00  0.00    -0.061 A 
HETATM    3  C   LIG     1      16.897  36.557  23.288  1.00  0.00     0.013 A 
HETATM    4  C   LIG     1      17.372  37.791  23.755  1.00  0.00    -0.061 A 
HETATM    5  C   LIG     1      17.293  38.126  25.215  1.00  0.00     0.048 C 
HETATM    6  C   LIG     1      17.988  38.679  22.861  1.00  0.00     0.013 A 
HETATM    7  C   LIG     1      18.090  38.359  21.499  1.00  0.00    -0.061 A 
HETATM    8  C   LIG     1      18.776  39.299  20.552  1.00  0.00     0.048 C 
HETATM    9  C   LIG     1      17.611  37.123  21.041  1.00  0.00     0.013 A 
ENDROOT
TORSDOF 0
ENDMDL
MODEL 4
REMARK VINA RESULT:      -6.4      0.082      2.874
REMARK  0 active torsions:
REMARK  status: ('A' for Active; 'I' for Inactive)
ROOT
HETATM    1  C   LIG     1      18.680  39.390  20.650  1.00  0.00     0.048 C 
HETATM    2  C   LIG     1      18.075  38.388  21.590  1.00  0.00    -0.061 A 
HETATM    3  C   LIG     1      17.983  38.657  22.964  1.00  0.00     0.013 A 
HETATM    4  C   LIG     1      17.416  37.715  23.836  1.00  0.00    -0.061 A 
HETATM    5  C   LIG     1      17.275  38.027  25.296  1.00  0.00     0.048 C 
HETATM    6  C   LIG     1      16.916  36.509  23.321  1.00  0.00     0.013 A 
HETATM    7  C   LIG     1      17.021  36.223  21.952  1.00  0.00    -0.061 A 
HETATM    8  C   LIG     1      16.458  34.945  21.402  1.00  0.00     0.048 C 
HETATM    9  C   LIG     1      17.590  37.171  21.088  1.00  0.00     0.013 A 
ENDROOT
TORSDOF 0
ENDMDL
MODEL 5
REMARK VINA RESULT:      -6.4      0.136      2.873
REMARK  0 active torsions:
REMARK  status: ('A' for Active; 'I' for Inactive)
ROOT
HETATM    1  C   LIG     1      17.249  38.012  25.207  1.00  0.00     0.048 C 
HETATM    2  C   LIG     1      17.381  37.686  23.748  1.00  0.00    -0.061 A 
HETATM    3  C   LIG     1      16.902  36.469  23.238  1.00  0.00     0.013 A 
HETATM    4  C   LIG     1      17.030  36.173  21.872  1.00  0.00    -0.061 A 
HETATM    5  C   LIG     1      16.473  34.893  21.323  1.00  0.00     0.048 C 
HETATM    6  C   LIG     1      17.616  37.114  21.011  1.00  0.00     0.013 A 
HETATM    7  C   LIG     1      18.114  38.324  21.515  1.00  0.00    -0.061 A 
HETATM    8  C   LIG     1      18.713  39.339  20.587  1.00  0.00     0.048 C 
HETATM    9  C   LIG     1      17.983  38.611  22.883  1.00  0.00     0.013 A 
ENDROOT
TORSDOF 0
ENDMDL
MODEL 6
REMARK VINA RESULT:      -6.4      0.150      2.880
REMARK  0 active torsions:
REMARK  status: ('A' for Active; 'I' for Inactive)
ROOT
HETATM    1  C   LIG     1      16.460  34.903  21.449  1.00  0.00     0.048 C 
HETATM    2  C   LIG     1      17.013  36.214  21.924  1.00  0.00    -0.061 A 
HETATM    3  C   LIG     1      17.621  37.105  21.026  1.00  0.00     0.013 A 
HETATM    4  C   LIG     1      18.136  38.329  21.479  1.00  0.00    -0.061 A 
HETATM    5  C   LIG     1      18.740  39.300  20.508  1.00  0.00     0.048 C 
HETATM    6  C   LIG     1      18.016  38.671  22.835  1.00  0.00     0.013 A 
HETATM    7  C   LIG     1      17.427  37.779  23.743  1.00  0.00    -0.061 A 
HETATM    8  C   LIG     1      17.275  38.162  25.186  1.00  0.00     0.048 C 
HETATM    9  C   LIG     1      16.916  36.557  23.281  1.00  0.00     0.013 A 
ENDROOT
TORSDOF 0
ENDMDL
MODEL 7
REMARK VINA RESULT:      -5.5      1.270      3.454
REMARK  0 active torsions:
REMARK  status: ('A' for Active; 'I' for Inactive)
ROOT
HETATM    1  C   LIG     1      16.972  38.843  23.548  1.00  0.00     0.048 C 
HETATM    2  C   LIG     1      17.216  37.990  22.338  1.00  0.00    -0.061 A 
HETATM    3  C   LIG     1      18.278  38.270  21.464  1.00  0.00     0.013 A 
HETATM    4  C   LIG     1      18.499  37.467  20.335  1.00  0.00    -0.061 A 
HETATM    5  C   LIG     1      19.665  37.741  19.431  1.00  0.00     0.048 C 
HETATM    6  C   LIG     1      17.666  36.363  20.096  1.00  0.00     0.013 A 
HETATM    7  C   LIG     1      16.591  36.087  20.953  1.00  0.00    -0.061 A 
HETATM    8  C   LIG     1      15.721  34.889  20.711  1.00  0.00     0.048 C 
HETATM    9  C   LIG     1      16.377  36.896  22.080  1.00  0.00     0.013 A 
ENDROOT
TORSDOF 0
ENDMDL
MODEL 8
REMARK VINA RESULT:      -5.5      7.734     10.394
REMARK  0 active torsions:
REMARK  status: ('A' for Active; 'I' for Inactive)
ROOT
HETATM    1  C   LIG     1      14.544  32.353  17.849  1.00  0.00     0.048 C 
HETATM    2  C   LIG     1      14.787  31.879  16.446  1.00  0.00    -0.061 A 
HETATM    3  C   LIG     1      15.716  32.529  15.618  1.00  0.00     0.013 A 
HETATM    4  C   LIG     1      15.937  32.078  14.308  1.00  0.00    -0.061 A 
HETATM    5  C   LIG     1      16.967  32.745  13.445  1.00  0.00     0.048 C 
HETATM    6  C   LIG     1      15.242  30.954  13.836  1.00  0.00     0.013 A 
HETATM    7  C   LIG     1      14.298  30.310  14.649  1.00  0.00    -0.061 A 
HETATM    8  C   LIG     1      13.578  29.092  14.150  1.00  0.00     0.048 C 
HETATM    9  C   LIG     1      14.083  30.769  15.958  1.00  0.00     0.013 A 
ENDROOT
TORSDOF 0
ENDMDL
MODEL 9
REMARK VINA RESULT:      -5.5      7.678     10.176
REMARK  0 active torsions:
REMARK  status: ('A' for Active; 'I' for Inactive)
ROOT
HETATM    1  C   LIG     1      13.621  29.136  14.177  1.00  0.00     0.048 C 
HETATM    2  C   LIG     1      14.377  30.338  14.662  1.00  0.00    -0.061 A 
HETATM    3  C   LIG     1      15.329  30.967  13.844  1.00  0.00     0.013 A 
HETATM    4  C   LIG     1      16.030  32.091  14.306  1.00  0.00    -0.061 A 
HETATM    5  C   LIG     1      17.010  32.789  13.410  1.00  0.00     0.048 C 
HETATM    6  C   LIG     1      15.757  32.601  15.584  1.00  0.00     0.013 A 
HETATM    7  C   LIG     1      14.822  31.968  16.416  1.00  0.00    -0.061 A 
HETATM    8  C   LIG     1      14.511  32.534  17.771  1.00  0.00     0.048 C 
HETATM    9  C   LIG     1      14.125  30.844  15.946  1.00  0.00     0.013 A 
ENDROOT
TORSDOF 0
ENDMDL
MODEL 10
REMARK VINA RESULT:      -5.4      7.513     10.233
REMARK  0 active torsions:
REMARK  status: ('A' for Active; 'I' for Inactive)
ROOT
HETATM    1  C   LIG     1      13.859  29.355  14.117  1.00  0.00     0.048 C 
HETATM    2  C   LIG     1      14.588  30.560  14.635  1.00  0.00    -0.061 A 
HETATM    3  C   LIG     1      14.351  31.041  15.932  1.00  0.00     0.013 A 
HETATM    4  C   LIG     1      15.037  32.168  16.408  1.00  0.00    -0.061 A 
HETATM    5  C   LIG     1      14.817  32.649  17.812  1.00  0.00     0.048 C 
HETATM    6  C   LIG     1      15.985  32.799  15.588  1.00  0.00     0.013 A 
HETATM    7  C   LIG     1      16.215  32.337  14.284  1.00  0.00    -0.061 A 
HETATM    8  C   LIG     1      17.251  32.996  13.421  1.00  0.00     0.048 C 
HETATM    9  C   LIG     1      15.523  31.209  13.816  1.00  0.00     0.013 A 
ENDROOT
TORSDOF 0
ENDMDL
MODEL 11
REMARK VINA RESULT:      -5.2      8.758     10.260
REMARK  0 active torsions:
REMARK  status: ('A' for Active; 'I' for Inactive)
ROOT
HETATM    1  C   LIG     1      12.778  31.789  16.907  1.00  0.00     0.048 C 
HETATM    2  C   LIG     1      13.945  31.478  16.017  1.00  0.00    -0.061 A 
HETATM    3  C   LIG     1      13.994  30.278  15.289  1.00  0.00     0.013 A 
HETATM    4  C   LIG     1      15.089  29.995  14.460  1.00  0.00    -0.061 A 
HETATM    5  C   LIG     1      15.114  28.735  13.646  1.00  0.00     0.048 C 
HETATM    6  C   LIG     1      16.127  30.932  14.339  1.00  0.00     0.013 A 
HETATM    7  C   LIG     1      16.096  32.125  15.076  1.00  0.00    -0.061 A 
HETATM    8  C   LIG     1      17.193  33.136  14.922  1.00  0.00     0.048 C 
HETATM    9  C   LIG     1      14.997  32.399  15.904  1.00  0.00     0.013 A 
ENDROOT
TORSDOF 0
ENDMDL
MODEL 12
REMARK VINA RESULT:      -4.4     10.419     12.010
REMARK  0 active torsions:
REMARK  status: ('A' for Active; 'I' for Inactive)
ROOT
HETATM    1  C   LIG     1      30.684  38.617  16.546  1.00  0.00     0.048 C 
HETATM    2  C   LIG     1      29.647  38.636  17.631  1.00  0.00    -0.061 A 
HETATM    3  C   LIG     1      28.308  38.323  17.351  1.00  0.00     0.013 A 
HETATM    4  C   LIG     1      27.346  38.344  18.372  1.00  0.00    -0.061 A 
HETATM    5  C   LIG     1      25.925  37.961  18.078  1.00  0.00     0.048 C 
HETATM    6  C   LIG     1      27.735  38.653  19.684  1.00  0.00     0.013 A 
HETATM    7  C   LIG     1      29.067  38.986  19.970  1.00  0.00    -0.061 A 
HETATM    8  C   LIG     1      29.484  39.287  21.379  1.00  0.00     0.048 C 
HETATM    9  C   LIG     1      30.022  38.963  18.942  1.00  0.00     0.013 A 
ENDROOT
TORSDOF 0
ENDMDL
MODEL 13
REMARK VINA RESULT:      -4.4      3.460      6.166
REMARK  0 active torsions:
REMARK  status: ('A' for Active; 'I' for Inactive)
ROOT
HETATM    1  C   LIG     1      15.319  34.043  16.422  1.00  0.00     0.048 C 
HETATM    2  C   LIG     1      15.349  33.797  17.902  1.00  0.00    -0.061 A 
HETATM    3  C   LIG     1      15.583  34.849  18.801  1.00  0.00     0.013 A 
HETATM    4  C   LIG     1      15.610  34.610  20.183  1.00  0.00    -0.061 A 
HETATM    5  C   LIG     1      15.811  35.746  21.142  1.00  0.00     0.048 C 
HETATM    6  C   LIG     1      15.375  33.313  20.666  1.00  0.00     0.013 A 
HETATM    7  C   LIG     1      15.159  32.252  19.775  1.00  0.00    -0.061 A 
HETATM    8  C   LIG     1      14.879  30.873  20.296  1.00  0.00     0.048 C 
HETATM    9  C   LIG     1      15.135  32.501  18.394  1.00  0.00     0.013 A 
ENDROOT
TORSDOF 0
ENDMDL
MODEL 14
REMARK VINA RESULT:      -4.4      3.458      6.134
REMARK  0 active torsions:
REMARK  status: ('A' for Active; 'I' for Inactive)
ROOT
HETATM    1  C   LIG     1      14.878  30.880  20.312  1.00  0.00     0.048 C 
HETATM    2  C   LIG     1      15.134  32.258  19.775  1.00  0.00    -0.061 A 
HETATM    3  C   LIG     1      15.130  32.502  18.393  1.00  0.00     0.013 A 
HETATM    4  C   LIG     1      15.371  33.794  17.899  1.00  0.00    -0.061 A 
HETATM    5  C   LIG     1      15.317  34.060  16.424  1.00  0.00     0.048 C 
HETATM    6  C   LIG     1      15.589  34.849  18.798  1.00  0.00     0.013 A 
HETATM    7  C   LIG     1      15.614  34.611  20.181  1.00  0.00    -0.061 A 
HETATM    8  C   LIG     1      15.818  35.747  21.139  1.00  0.00     0.048 C 
HETATM    9  C   LIG     1      15.373  33.316  20.664  1.00  0.00     0.013 A 
ENDROOT
TORSDOF 0
ENDMDL
MODEL 15
REMARK VINA RESULT:      -4.3      3.513      6.041
REMARK  0 active torsions:
REMARK  status: ('A' for Active; 'I' for Inactive)
ROOT
HETATM    1  C   LIG     1      15.967  35.813  20.926  1.00  0.00     0.048 C 
HETATM    2  C   LIG     1      15.659  34.653  20.024  1.00  0.00    -0.061 A 
HETATM    3  C   LIG     1      15.624  34.817  18.630  1.00  0.00     0.013 A 
HETATM    4  C   LIG     1      15.335  33.727  17.795  1.00  0.00    -0.061 A 
HETATM    5  C   LIG     1      15.347  33.895  16.304  1.00  0.00     0.048 C 
HETATM    6  C   LIG     1      15.108  32.463  18.360  1.00  0.00     0.013 A 
HETATM    7  C   LIG     1      15.122  32.294  19.752  1.00  0.00    -0.061 A 
HETATM    8  C   LIG     1      14.907  30.935  20.350  1.00  0.00     0.048 C 
HETATM    9  C   LIG     1      15.411  33.390  20.580  1.00  0.00     0.013 A 
ENDROOT
TORSDOF 0
ENDMDL
MODEL 16
REMARK VINA RESULT:      -4.0     18.669     19.853
REMARK  0 active torsions:
REMARK  status: ('A' for Active; 'I' for Inactive)
ROOT
HETATM    1  C   LIG     1      23.496  23.492  35.553  1.00  0.00     0.048 C 
HETATM    2  C   LIG     1      22.135  22.960  35.209  1.00  0.00    -0.061 A 
HETATM    3  C   LIG     1      21.477  23.372  34.040  1.00  0.00     0.013 A 
HETATM    4  C   LIG     1      20.206  22.870  33.726  1.00  0.00    -0.061 A 
HETATM    5  C   LIG     1      19.528  23.275  32.450  1.00  0.00     0.048 C 
HETATM    6  C   LIG     1      19.604  21.929  34.576  1.00  0.00     0.013 A 
HETATM    7  C   LIG     1      20.245  21.526  35.756  1.00  0.00    -0.061 A 
HETATM    8  C   LIG     1      19.611  20.498  36.647  1.00  0.00     0.048 C 
HETATM    9  C   LIG     1      21.517  22.035  36.062  1.00  0.00     0.013 A 
ENDROOT
TORSDOF 0
ENDMDL
MODEL 17
REMARK VINA RESULT:      -4.0     18.714     20.141
REMARK  0 active torsions:
REMARK  status: ('A' for Active; 'I' for Inactive)
ROOT
HETATM    1  C   LIG     1      19.598  20.406  36.589  1.00  0.00     0.048 C 
HETATM    2  C   LIG     1      20.263  21.437  35.725  1.00  0.00    -0.061 A 
HETATM    3  C   LIG     1      21.529  21.944  36.056  1.00  0.00     0.013 A 
HETATM    4  C   LIG     1      22.143  22.908  35.242  1.00  0.00    -0.061 A 
HETATM    5  C   LIG     1      23.517  23.411  35.573  1.00  0.00     0.048 C 
HETATM    6  C   LIG     1      21.495  23.344  34.076  1.00  0.00     0.013 A 
HETATM    7  C   LIG     1      20.221  22.856  33.747  1.00  0.00    -0.061 A 
HETATM    8  C   LIG     1      19.546  23.303  32.484  1.00  0.00     0.048 C 
HETATM    9  C   LIG     1      19.615  21.893  34.568  1.00  0.00     0.013 A 
ENDROOT
TORSDOF 0
ENDMDL
MODEL 18
REMARK VINA RESULT:      -3.8     16.999     17.249
REMARK  0 active torsions:
REMARK  status: ('A' for Active; 'I' for Inactive)
ROOT
HETATM    1  C   LIG     1      29.688  31.143  32.856  1.00  0.00     0.048 C 
HETATM    2  C   LIG     1      28.500  30.494  33.503  1.00  0.00    -0.061 A 
HETATM    3  C   LIG     1      27.740  31.181  34.463  1.00  0.00     0.013 A 
HETATM    4  C   LIG     1      26.631  30.566  35.063  1.00  0.00    -0.061 A 
HETATM    5  C   LIG     1      25.792  31.321  36.052  1.00  0.00     0.048 C 
HETATM    6  C   LIG     1      26.267  29.266  34.679  1.00  0.00     0.013 A 
HETATM    7  C   LIG     1      27.032  28.565  33.735  1.00  0.00    -0.061 A 
HETATM    8  C   LIG     1      26.622  27.187  33.305  1.00  0.00     0.048 C 
HETATM    9  C   LIG     1      28.140  29.188  33.140  1.00  0.00     0.013 A 
ENDROOT
TORSDOF 0
ENDMDL
MODEL 19
REMARK VINA RESULT:      -3.8     17.020     17.069
REMARK  0 active torsions:
REMARK  status: ('A' for Active; 'I' for Inactive)
ROOT
HETATM    1  C   LIG     1      29.802  31.056  32.981  1.00  0.00     0.048 C 
HETATM    2  C   LIG     1      28.562  30.427  33.544  1.00  0.00    -0.061 A 
HETATM    3  C   LIG     1      28.171  29.135  33.155  1.00  0.00     0.013 A 
HETATM    4  C   LIG     1      27.010  28.554  33.687  1.00  0.00    -0.061 A 
HETATM    5  C   LIG     1      26.624  27.156  33.306  1.00  0.00     0.048 C 
HETATM    6  C   LIG     1      26.252  29.262  34.632  1.00  0.00     0.013 A 
HETATM    7  C   LIG     1      26.624  30.560  35.013  1.00  0.00    -0.061 A 
HETATM    8  C   LIG     1      25.827  31.301  36.046  1.00  0.00     0.048 C 
HETATM    9  C   LIG     1      27.786  31.133  34.475  1.00  0.00     0.013 A 
ENDROOT
TORSDOF 0
ENDMDL
MODEL 20
REMARK VINA RESULT:      -3.7     16.114     16.957
REMARK  0 active torsions:
REMARK  status: ('A' for Active; 'I' for Inactive)
ROOT
HETATM    1  C   LIG     1      23.956  22.751  22.432  1.00  0.00     0.048 C 
HETATM    2  C   LIG     1      24.175  22.600  20.955  1.00  0.00    -0.061 A 
HETATM    3  C   LIG     1      23.398  21.706  20.201  1.00  0.00     0.013 A 
HETATM    4  C   LIG     1      23.610  21.571  18.821  1.00  0.00    -0.061 A 
HETATM    5  C   LIG     1      22.745  20.652  18.011  1.00  0.00     0.048 C 
HETATM    6  C   LIG     1      24.588  22.356  18.191  1.00  0.00     0.013 A 
HETATM    7  C   LIG     1      25.383  23.237  18.939  1.00  0.00    -0.061 A 
HETATM    8  C   LIG     1      26.407  24.095  18.256  1.00  0.00     0.048 C 
HETATM    9  C   LIG     1      25.164  23.365  20.319  1.00  0.00     0.013 A 
ENDROOT
TORSDOF 0
ENDMDL
