REMARK  0 active torsions:
REMARK  status: ('A' for Active; 'I' for Inactive)
ROOT
HETATM    1 CL   LIG     1       3.073   0.304   0.257  1.00  0.00    -0.084 Cl
HETATM    2  C   LIG     1       1.334   0.132   0.112  1.00  0.00     0.034 A 
HETATM    3  C   LIG     1       0.759  -1.143   0.045  1.00  0.00     0.024 A 
HETATM    4  C   LIG     1      -0.628  -1.280  -0.071  1.00  0.00     0.002 A 
HETATM    5  C   LIG     1      -1.442  -0.143  -0.121  1.00  0.00     0.000 A 
HETATM    6  C   LIG     1      -0.869   1.131  -0.054  1.00  0.00     0.002 A 
HETATM    7  C   LIG     1       0.518   1.269   0.062  1.00  0.00     0.024 A 
ENDROOT
TORSDOF 0
