MODEL 1
REMARK VINA RESULT:      -5.6      0.000      0.000
REMARK  0 active torsions:
REMARK  status: ('A' for Active; 'I' for Inactive)
ROOT
HETATM    1 BR   LIG     1      16.255  35.097  21.089  1.00  0.00    -0.051 Br
HETATM    2  C   LIG     1      16.715  35.926  22.746  1.00  0.00     0.012 A 
HETATM    3  C   LIG     1      17.161  35.147  23.820  1.00  0.00     0.043 A 
HETATM    4  C   LIG     1      17.498  35.755  25.035  1.00  0.00     0.035 A 
HETATM    5 CL   LIG     1      18.057  34.778  26.381  1.00  0.00    -0.084 Cl
HETATM    6  C   LIG     1      17.390  37.143  25.175  1.00  0.00     0.024 A 
HETATM    7  C   LIG     1      16.945  37.922  24.102  1.00  0.00     0.003 A 
HETATM    8  C   LIG     1      16.608  37.315  22.889  1.00  0.00     0.019 A 
ENDROOT
TORSDOF 0
ENDMDL
MODEL 2
REMARK VINA RESULT:      -5.6      1.725      2.385
REMARK  0 active torsions:
REMARK  status: ('A' for Active; 'I' for Inactive)
ROOT
HETATM    1 BR   LIG     1      17.129  39.118  22.453  1.00  0.00    -0.051 Br
HETATM    2  C   LIG     1      17.232  37.454  23.385  1.00  0.00     0.012 A 
HETATM    3  C   LIG     1      17.665  37.421  24.716  1.00  0.00     0.043 A 
HETATM    4  C   LIG     1      17.742  36.202  25.399  1.00  0.00     0.035 A 
HETATM    5 CL   LIG     1      18.286  36.162  27.066  1.00  0.00    -0.084 Cl
HETATM    6  C   LIG     1      17.384  35.015  24.750  1.00  0.00     0.024 A 
HETATM    7  C   LIG     1      16.950  35.047  23.421  1.00  0.00     0.003 A 
HETATM    8  C   LIG     1      16.874  36.265  22.738  1.00  0.00     0.019 A 
ENDROOT
TORSDOF 0
ENDMDL
MODEL 3
REMARK VINA RESULT:      -5.5      3.095      3.857
REMARK  0 active torsions:
REMARK  status: ('A' for Active; 'I' for Inactive)
ROOT
HETATM    1 BR   LIG     1      18.209  36.091  26.751  1.00  0.00    -0.051 Br
HETATM    2  C   LIG     1      17.551  36.231  24.963  1.00  0.00     0.012 A 
HETATM    3  C   LIG     1      17.316  37.490  24.399  1.00  0.00     0.043 A 
HETATM    4  C   LIG     1      16.833  37.592  23.090  1.00  0.00     0.035 A 
HETATM    5 CL   LIG     1      16.538  39.171  22.383  1.00  0.00    -0.084 Cl
HETATM    6  C   LIG     1      16.587  36.434  22.343  1.00  0.00     0.024 A 
HETATM    7  C   LIG     1      16.824  35.175  22.906  1.00  0.00     0.003 A 
HETATM    8  C   LIG     1      17.305  35.073  24.215  1.00  0.00     0.019 A 
ENDROOT
TORSDOF 0
ENDMDL
MODEL 4
REMARK VINA RESULT:      -5.5      3.676      4.241
REMARK  0 active torsions:
REMARK  status: ('A' for Active; 'I' for Inactive)
ROOT
HETATM    1 BR   LIG     1      16.466  35.058  21.264  1.00  0.00    -0.051 Br
HETATM    2  C   LIG     1      17.291  36.779  21.336  1.00  0.00     0.012 A 
HETATM    3  C   LIG     1      18.315  37.103  20.438  1.00  0.00     0.043 A 
HETATM    4  C   LIG     1      18.920  38.364  20.491  1.00  0.00     0.035 A 
HETATM    5 CL   LIG     1      20.204  38.769  19.366  1.00  0.00    -0.084 Cl
HETATM    6  C   LIG     1      18.500  39.301  21.442  1.00  0.00     0.024 A 
HETATM    7  C   LIG     1      17.477  38.977  22.338  1.00  0.00     0.003 A 
HETATM    8  C   LIG     1      16.872  37.718  22.287  1.00  0.00     0.019 A 
ENDROOT
TORSDOF 0
ENDMDL
MODEL 5
REMARK VINA RESULT:      -5.5      3.394      3.907
REMARK  0 active torsions:
REMARK  status: ('A' for Active; 'I' for Inactive)
ROOT
HETATM    1 BR   LIG     1      20.030  38.781  19.387  1.00  0.00    -0.051 Br
HETATM    2  C   LIG     1      18.658  38.194  20.578  1.00  0.00     0.012 A 
HETATM    3  C   LIG     1      18.152  36.893  20.477  1.00  0.00     0.043 A 
HETATM    4  C   LIG     1      17.146  36.462  21.349  1.00  0.00     0.035 A 
HETATM    5 CL   LIG     1      16.511  34.831  21.221  1.00  0.00    -0.084 Cl
HETATM    6  C   LIG     1      16.646  37.334  22.324  1.00  0.00     0.024 A 
HETATM    7  C   LIG     1      17.153  38.634  22.426  1.00  0.00     0.003 A 
HETATM    8  C   LIG     1      18.157  39.064  21.554  1.00  0.00     0.019 A 
ENDROOT
TORSDOF 0
ENDMDL
MODEL 6
REMARK VINA RESULT:      -5.3      2.574      3.215
REMARK  0 active torsions:
REMARK  status: ('A' for Active; 'I' for Inactive)
ROOT
HETATM    1 BR   LIG     1      18.957  39.307  20.230  1.00  0.00    -0.051 Br
HETATM    2  C   LIG     1      18.086  38.158  21.482  1.00  0.00     0.012 A 
HETATM    3  C   LIG     1      17.968  38.543  22.823  1.00  0.00     0.043 A 
HETATM    4  C   LIG     1      17.331  37.700  23.741  1.00  0.00     0.035 A 
HETATM    5 CL   LIG     1      17.184  38.183  25.421  1.00  0.00    -0.084 Cl
HETATM    6  C   LIG     1      16.810  36.472  23.316  1.00  0.00     0.024 A 
HETATM    7  C   LIG     1      16.926  36.088  21.977  1.00  0.00     0.003 A 
HETATM    8  C   LIG     1      17.564  36.929  21.060  1.00  0.00     0.019 A 
ENDROOT
TORSDOF 0
ENDMDL
MODEL 7
REMARK VINA RESULT:      -5.1      3.645      4.481
REMARK  0 active torsions:
REMARK  status: ('A' for Active; 'I' for Inactive)
ROOT
HETATM    1 BR   LIG     1      17.124  37.918  24.983  1.00  0.00    -0.051 Br
HETATM    2  C   LIG     1      17.390  37.426  23.157  1.00  0.00     0.012 A 
HETATM    3  C   LIG     1      17.987  38.327  22.268  1.00  0.00     0.043 A 
HETATM    4  C   LIG     1      18.181  37.968  20.930  1.00  0.00     0.035 A 
HETATM    5 CL   LIG     1      18.929  39.098  19.816  1.00  0.00    -0.084 Cl
HETATM    6  C   LIG     1      17.778  36.705  20.480  1.00  0.00     0.024 A 
HETATM    7  C   LIG     1      17.182  35.804  21.368  1.00  0.00     0.003 A 
HETATM    8  C   LIG     1      16.987  36.163  22.705  1.00  0.00     0.019 A 
ENDROOT
TORSDOF 0
ENDMDL
MODEL 8
REMARK VINA RESULT:      -5.0      9.413     10.367
REMARK  0 active torsions:
REMARK  status: ('A' for Active; 'I' for Inactive)
ROOT
HETATM    1 BR   LIG     1      17.187  32.957  14.870  1.00  0.00    -0.051 Br
HETATM    2  C   LIG     1      15.579  32.099  15.441  1.00  0.00     0.012 A 
HETATM    3  C   LIG     1      15.065  31.018  14.715  1.00  0.00     0.043 A 
HETATM    4  C   LIG     1      13.887  30.390  15.133  1.00  0.00     0.035 A 
HETATM    5 CL   LIG     1      13.242  29.036  14.222  1.00  0.00    -0.084 Cl
HETATM    6  C   LIG     1      13.223  30.842  16.279  1.00  0.00     0.024 A 
HETATM    7  C   LIG     1      13.737  31.921  17.006  1.00  0.00     0.003 A 
HETATM    8  C   LIG     1      14.914  32.550  16.588  1.00  0.00     0.019 A 
ENDROOT
TORSDOF 0
ENDMDL
MODEL 9
REMARK VINA RESULT:      -4.8      1.625      2.367
REMARK  0 active torsions:
REMARK  status: ('A' for Active; 'I' for Inactive)
ROOT
HETATM    1 BR   LIG     1      16.435  35.794  21.208  1.00  0.00    -0.051 Br
HETATM    2  C   LIG     1      16.898  35.961  23.053  1.00  0.00     0.012 A 
HETATM    3  C   LIG     1      16.946  37.226  23.652  1.00  0.00     0.043 A 
HETATM    4  C   LIG     1      17.286  37.349  25.004  1.00  0.00     0.035 A 
HETATM    5 CL   LIG     1      17.346  38.933  25.754  1.00  0.00    -0.084 Cl
HETATM    6  C   LIG     1      17.577  36.205  25.757  1.00  0.00     0.024 A 
HETATM    7  C   LIG     1      17.529  34.942  25.159  1.00  0.00     0.003 A 
HETATM    8  C   LIG     1      17.190  34.819  23.808  1.00  0.00     0.019 A 
ENDROOT
TORSDOF 0
ENDMDL
MODEL 10
REMARK VINA RESULT:      -4.7      9.346     10.394
REMARK  0 active torsions:
REMARK  status: ('A' for Active; 'I' for Inactive)
ROOT
HETATM    1 BR   LIG     1      17.568  33.404  13.689  1.00  0.00    -0.051 Br
HETATM    2  C   LIG     1      16.199  32.248  14.351  1.00  0.00     0.012 A 
HETATM    3  C   LIG     1      15.676  32.443  15.634  1.00  0.00     0.043 A 
HETATM    4  C   LIG     1      14.674  31.596  16.120  1.00  0.00     0.035 A 
HETATM    5 CL   LIG     1      14.019  31.841  17.729  1.00  0.00    -0.084 Cl
HETATM    6  C   LIG     1      14.194  30.552  15.319  1.00  0.00     0.024 A 
HETATM    7  C   LIG     1      14.716  30.357  14.036  1.00  0.00     0.003 A 
HETATM    8  C   LIG     1      15.718  31.203  13.552  1.00  0.00     0.019 A 
ENDROOT
TORSDOF 0
ENDMDL
MODEL 11
REMARK VINA RESULT:      -4.5      9.866     10.943
REMARK  0 active torsions:
REMARK  status: ('A' for Active; 'I' for Inactive)
ROOT
HETATM    1 BR   LIG     1      14.843  32.565  17.803  1.00  0.00    -0.051 Br
HETATM    2  C   LIG     1      14.968  31.793  16.060  1.00  0.00     0.012 A 
HETATM    3  C   LIG     1      14.167  30.697  15.719  1.00  0.00     0.043 A 
HETATM    4  C   LIG     1      14.259  30.131  14.443  1.00  0.00     0.035 A 
HETATM    5 CL   LIG     1      13.256  28.757  14.017  1.00  0.00    -0.084 Cl
HETATM    6  C   LIG     1      15.153  30.663  13.506  1.00  0.00     0.024 A 
HETATM    7  C   LIG     1      15.953  31.759  13.846  1.00  0.00     0.003 A 
HETATM    8  C   LIG     1      15.862  32.324  15.122  1.00  0.00     0.019 A 
ENDROOT
TORSDOF 0
ENDMDL
MODEL 12
REMARK VINA RESULT:      -4.5      9.040      9.943
REMARK  0 active torsions:
REMARK  status: ('A' for Active; 'I' for Inactive)
ROOT
HETATM    1 BR   LIG     1      14.798  29.112  13.933  1.00  0.00    -0.051 Br
HETATM    2  C   LIG     1      14.923  30.694  14.996  1.00  0.00     0.012 A 
HETATM    3  C   LIG     1      15.926  31.636  14.737  1.00  0.00     0.043 A 
HETATM    4  C   LIG     1      16.018  32.794  15.516  1.00  0.00     0.035 A 
HETATM    5 CL   LIG     1      17.275  33.974  15.192  1.00  0.00    -0.084 Cl
HETATM    6  C   LIG     1      15.105  33.012  16.555  1.00  0.00     0.024 A 
HETATM    7  C   LIG     1      14.102  32.071  16.813  1.00  0.00     0.003 A 
HETATM    8  C   LIG     1      14.011  30.913  16.035  1.00  0.00     0.019 A 
ENDROOT
TORSDOF 0
ENDMDL
MODEL 13
REMARK VINA RESULT:      -4.3      8.467      9.662
REMARK  0 active torsions:
REMARK  status: ('A' for Active; 'I' for Inactive)
ROOT
HETATM    1 BR   LIG     1      15.276  32.964  19.285  1.00  0.00    -0.051 Br
HETATM    2  C   LIG     1      14.874  32.169  17.595  1.00  0.00     0.012 A 
HETATM    3  C   LIG     1      15.637  32.494  16.468  1.00  0.00     0.043 A 
HETATM    4  C   LIG     1      15.343  31.912  15.230  1.00  0.00     0.035 A 
HETATM    5 CL   LIG     1      16.299  32.321  13.817  1.00  0.00    -0.084 Cl
HETATM    6  C   LIG     1      14.284  31.003  15.120  1.00  0.00     0.024 A 
HETATM    7  C   LIG     1      13.522  30.677  16.247  1.00  0.00     0.003 A 
HETATM    8  C   LIG     1      13.816  31.259  17.483  1.00  0.00     0.019 A 
ENDROOT
TORSDOF 0
ENDMDL
MODEL 14
REMARK VINA RESULT:      -3.8      9.672     10.657
REMARK  0 active torsions:
REMARK  status: ('A' for Active; 'I' for Inactive)
ROOT
HETATM    1 BR   LIG     1      18.433  33.587  12.298  1.00  0.00    -0.051 Br
HETATM    2  C   LIG     1      17.220  32.977  13.641  1.00  0.00     0.012 A 
HETATM    3  C   LIG     1      16.414  31.858  13.402  1.00  0.00     0.043 A 
HETATM    4  C   LIG     1      15.524  31.411  14.385  1.00  0.00     0.035 A 
HETATM    5 CL   LIG     1      14.514  30.008  14.084  1.00  0.00    -0.084 Cl
HETATM    6  C   LIG     1      15.441  32.085  15.609  1.00  0.00     0.024 A 
HETATM    7  C   LIG     1      16.247  33.202  15.849  1.00  0.00     0.003 A 
HETATM    8  C   LIG     1      17.135  33.649  14.866  1.00  0.00     0.019 A 
ENDROOT
TORSDOF 0
ENDMDL
MODEL 15
REMARK VINA RESULT:      -3.5      5.803      6.963
REMARK  0 active torsions:
REMARK  status: ('A' for Active; 'I' for Inactive)
ROOT
HETATM    1 BR   LIG     1      15.843  35.574  21.173  1.00  0.00    -0.051 Br
HETATM    2  C   LIG     1      15.406  34.050  20.109  1.00  0.00     0.012 A 
HETATM    3  C   LIG     1      15.461  34.131  18.713  1.00  0.00     0.043 A 
HETATM    4  C   LIG     1      15.140  33.015  17.932  1.00  0.00     0.035 A 
HETATM    5 CL   LIG     1      15.208  33.117  16.182  1.00  0.00    -0.084 Cl
HETATM    6  C   LIG     1      14.765  31.816  18.550  1.00  0.00     0.024 A 
HETATM    7  C   LIG     1      14.712  31.734  19.945  1.00  0.00     0.003 A 
HETATM    8  C   LIG     1      15.031  32.850  20.725  1.00  0.00     0.019 A 
ENDROOT
TORSDOF 0
ENDMDL
MODEL 16
REMARK VINA RESULT:      -3.3     16.823     17.578
REMARK  0 active torsions:
REMARK  status: ('A' for Active; 'I' for Inactive)
ROOT
HETATM    1 BR   LIG     1      30.193  32.619  38.089  1.00  0.00    -0.051 Br
HETATM    2  C   LIG     1      28.546  31.967  37.375  1.00  0.00     0.012 A 
HETATM    3  C   LIG     1      28.531  31.296  36.146  1.00  0.00     0.043 A 
HETATM    4  C   LIG     1      27.325  30.819  35.622  1.00  0.00     0.035 A 
HETATM    5 CL   LIG     1      27.307  29.979  34.082  1.00  0.00    -0.084 Cl
HETATM    6  C   LIG     1      26.132  31.013  36.328  1.00  0.00     0.024 A 
HETATM    7  C   LIG     1      26.146  31.682  37.556  1.00  0.00     0.003 A 
HETATM    8  C   LIG     1      27.351  32.160  38.080  1.00  0.00     0.019 A 
ENDROOT
TORSDOF 0
ENDMDL
MODEL 17
REMARK VINA RESULT:      -3.2     15.757     15.950
REMARK  0 active torsions:
REMARK  status: ('A' for Active; 'I' for Inactive)
ROOT
HETATM    1 BR   LIG     1      26.727  26.730  32.824  1.00  0.00    -0.051 Br
HETATM    2  C   LIG     1      27.232  28.462  33.453  1.00  0.00     0.012 A 
HETATM    3  C   LIG     1      26.413  29.145  34.360  1.00  0.00     0.043 A 
HETATM    4  C   LIG     1      26.782  30.414  34.819  1.00  0.00     0.035 A 
HETATM    5 CL   LIG     1      25.756  31.270  35.956  1.00  0.00    -0.084 Cl
HETATM    6  C   LIG     1      27.973  30.999  34.372  1.00  0.00     0.024 A 
HETATM    7  C   LIG     1      28.791  30.317  33.467  1.00  0.00     0.003 A 
HETATM    8  C   LIG     1      28.422  29.049  33.007  1.00  0.00     0.019 A 
ENDROOT
TORSDOF 0
ENDMDL
MODEL 18
REMARK VINA RESULT:      -3.2     17.784     18.717
REMARK  0 active torsions:
REMARK  status: ('A' for Active; 'I' for Inactive)
ROOT
HETATM    1 BR   LIG     1      23.181  23.184  37.764  1.00  0.00    -0.051 Br
HETATM    2  C   LIG     1      22.001  22.862  36.297  1.00  0.00     0.012 A 
HETATM    3  C   LIG     1      20.966  21.928  36.422  1.00  0.00     0.043 A 
HETATM    4  C   LIG     1      20.102  21.691  35.347  1.00  0.00     0.035 A 
HETATM    5 CL   LIG     1      18.804  20.521  35.504  1.00  0.00    -0.084 Cl
HETATM    6  C   LIG     1      20.274  22.389  34.146  1.00  0.00     0.024 A 
HETATM    7  C   LIG     1      21.308  23.322  34.021  1.00  0.00     0.003 A 
HETATM    8  C   LIG     1      22.172  23.559  35.095  1.00  0.00     0.019 A 
ENDROOT
TORSDOF 0
ENDMDL
MODEL 19
REMARK VINA RESULT:      -3.2     17.742     18.641
REMARK  0 active torsions:
REMARK  status: ('A' for Active; 'I' for Inactive)
ROOT
HETATM    1 BR   LIG     1      19.063  19.950  35.485  1.00  0.00    -0.051 Br
HETATM    2  C   LIG     1      20.252  21.440  35.357  1.00  0.00     0.012 A 
HETATM    3  C   LIG     1      20.988  21.847  36.475  1.00  0.00     0.043 A 
HETATM    4  C   LIG     1      21.859  22.938  36.382  1.00  0.00     0.035 A 
HETATM    5 CL   LIG     1      22.781  23.449  37.785  1.00  0.00    -0.084 Cl
HETATM    6  C   LIG     1      21.993  23.623  35.169  1.00  0.00     0.024 A 
HETATM    7  C   LIG     1      21.258  23.216  34.051  1.00  0.00     0.003 A 
HETATM    8  C   LIG     1      20.388  22.125  34.144  1.00  0.00     0.019 A 
ENDROOT
TORSDOF 0
ENDMDL
MODEL 20
REMARK VINA RESULT:      -3.1     15.666     16.115
REMARK  0 active torsions:
REMARK  status: ('A' for Active; 'I' for Inactive)
ROOT
HETATM    1 BR   LIG     1      26.980  24.349  19.973  1.00  0.00    -0.051 Br
HETATM    2  C   LIG     1      25.414  23.283  19.731  1.00  0.00     0.012 A 
HETATM    3  C   LIG     1      24.622  22.941  20.833  1.00  0.00     0.043 A 
HETATM    4  C   LIG     1      23.475  22.159  20.656  1.00  0.00     0.035 A 
HETATM    5 CL   LIG     1      22.482  21.730  22.037  1.00  0.00    -0.084 Cl
HETATM    6  C   LIG     1      23.120  21.719  19.375  1.00  0.00     0.024 A 
HETATM    7  C   LIG     1      23.911  22.062  18.274  1.00  0.00     0.003 A 
HETATM    8  C   LIG     1      25.058  22.842  18.450  1.00  0.00     0.019 A 
ENDROOT
TORSDOF 0
ENDMDL
