MODEL 1
REMARK VINA RESULT:      -6.1      0.000      0.000
REMARK  1 active torsions:
REMARK  status: ('A' for Active; 'I' for Inactive)
REMARK    1  A    between atoms: C_4  and  N_5 
ROOT
HETATM    1  C   LIG     1      16.744  35.184  22.544  1.00  0.00     0.048 C 
HETATM    2  C   LIG     1      17.132  35.696  23.899  1.00  0.00    -0.060 A 
HETATM    3  C   LIG     1      17.060  37.071  24.171  1.00  0.00     0.035 A 
HETATM    4  C   LIG     1      17.421  37.564  25.434  1.00  0.00     0.026 A 
HETATM    5  C   LIG     1      17.853  36.675  26.427  1.00  0.00     0.029 A 
HETATM    6  C   LIG     1      17.925  35.306  26.162  1.00  0.00     0.003 A 
HETATM    7  C   LIG     1      17.567  34.815  24.903  1.00  0.00     0.007 A 
ENDROOT
BRANCH   4   8
HETATM    8  N   LIG     1      17.347  38.966  25.707  1.00  0.00    -0.399 N 
HETATM    9  H   LIG     1      16.792  39.326  26.515  1.00  0.00     0.156 HD
HETATM   10  H   LIG     1      17.845  39.656  25.101  1.00  0.00     0.156 HD
ENDBRANCH   4   8
TORSDOF 1
ENDMDL
MODEL 2
REMARK VINA RESULT:      -6.0      4.369      5.572
REMARK  1 active torsions:
REMARK  status: ('A' for Active; 'I' for Inactive)
REMARK    1  A    between atoms: C_4  and  N_5 
ROOT
HETATM    1  C   LIG     1      17.156  39.141  22.754  1.00  0.00     0.048 C 
HETATM    2  C   LIG     1      17.859  38.501  21.593  1.00  0.00    -0.060 A 
HETATM    3  C   LIG     1      18.782  39.245  20.842  1.00  0.00     0.035 A 
HETATM    4  C   LIG     1      19.447  38.660  19.754  1.00  0.00     0.026 A 
HETATM    5  C   LIG     1      19.185  37.325  19.419  1.00  0.00     0.029 A 
HETATM    6  C   LIG     1      18.268  36.580  20.164  1.00  0.00     0.003 A 
HETATM    7  C   LIG     1      17.605  37.164  21.247  1.00  0.00     0.007 A 
ENDROOT
BRANCH   4   8
HETATM    8  N   LIG     1      20.387  39.422  18.992  1.00  0.00    -0.399 N 
HETATM    9  H   LIG     1      20.067  40.195  18.366  1.00  0.00     0.156 HD
HETATM   10  H   LIG     1      21.410  39.220  19.047  1.00  0.00     0.156 HD
ENDBRANCH   4   8
TORSDOF 1
ENDMDL
MODEL 3
REMARK VINA RESULT:      -5.8      1.256      2.727
REMARK  1 active torsions:
REMARK  status: ('A' for Active; 'I' for Inactive)
REMARK    1  A    between atoms: C_4  and  N_5 
ROOT
HETATM    1  C   LIG     1      18.256  36.125  26.834  1.00  0.00     0.048 C 
HETATM    2  C   LIG     1      17.703  36.260  25.446  1.00  0.00    -0.060 A 
HETATM    3  C   LIG     1      17.431  37.535  24.926  1.00  0.00     0.035 A 
HETATM    4  C   LIG     1      16.913  37.676  23.629  1.00  0.00     0.026 A 
HETATM    5  C   LIG     1      16.669  36.536  22.853  1.00  0.00     0.029 A 
HETATM    6  C   LIG     1      16.940  35.265  23.366  1.00  0.00     0.003 A 
HETATM    7  C   LIG     1      17.455  35.125  24.658  1.00  0.00     0.007 A 
ENDROOT
BRANCH   4   8
HETATM    8  N   LIG     1      16.637  38.977  23.104  1.00  0.00    -0.399 N 
HETATM    9  H   LIG     1      17.084  39.303  22.219  1.00  0.00     0.156 HD
HETATM   10  H   LIG     1      15.982  39.625  23.597  1.00  0.00     0.156 HD
ENDBRANCH   4   8
TORSDOF 1
ENDMDL
MODEL 4
REMARK VINA RESULT:      -5.7      3.650      4.707
REMARK  1 active torsions:
REMARK  status: ('A' for Active; 'I' for Inactive)
REMARK    1  A    between atoms: C_4  and  N_5 
ROOT
HETATM    1  C   LIG     1      20.143  38.889  19.409  1.00  0.00     0.048 C 
HETATM    2  C   LIG     1      19.053  38.237  20.208  1.00  0.00    -0.060 A 
HETATM    3  C   LIG     1      18.410  38.959  21.226  1.00  0.00     0.035 A 
HETATM    4  C   LIG     1      17.390  38.362  21.982  1.00  0.00     0.026 A 
HETATM    5  C   LIG     1      17.013  37.039  21.714  1.00  0.00     0.029 A 
HETATM    6  C   LIG     1      17.649  36.318  20.701  1.00  0.00     0.003 A 
HETATM    7  C   LIG     1      18.666  36.912  19.949  1.00  0.00     0.007 A 
ENDROOT
BRANCH   4   8
HETATM    8  N   LIG     1      16.737  39.101  23.018  1.00  0.00    -0.399 N 
HETATM    9  H   LIG     1      15.855  38.750  23.451  1.00  0.00     0.156 HD
HETATM   10  H   LIG     1      17.133  40.005  23.360  1.00  0.00     0.156 HD
ENDBRANCH   4   8
TORSDOF 1
ENDMDL
MODEL 5
REMARK VINA RESULT:      -5.6      1.908      3.111
REMARK  1 active torsions:
REMARK  status: ('A' for Active; 'I' for Inactive)
REMARK    1  A    between atoms: C_4  and  N_5 
ROOT
HETATM    1  C   LIG     1      17.994  34.796  26.329  1.00  0.00     0.048 C 
HETATM    2  C   LIG     1      17.642  35.905  25.382  1.00  0.00    -0.060 A 
HETATM    3  C   LIG     1      17.177  35.599  24.093  1.00  0.00     0.035 A 
HETATM    4  C   LIG     1      16.844  36.626  23.197  1.00  0.00     0.026 A 
HETATM    5  C   LIG     1      16.978  37.963  23.594  1.00  0.00     0.029 A 
HETATM    6  C   LIG     1      17.441  38.272  24.876  1.00  0.00     0.003 A 
HETATM    7  C   LIG     1      17.773  37.249  25.768  1.00  0.00     0.007 A 
ENDROOT
BRANCH   4   8
HETATM    8  N   LIG     1      16.371  36.309  21.885  1.00  0.00    -0.399 N 
HETATM    9  H   LIG     1      16.777  36.774  21.043  1.00  0.00     0.156 HD
HETATM   10  H   LIG     1      15.609  35.608  21.747  1.00  0.00     0.156 HD
ENDBRANCH   4   8
TORSDOF 1
ENDMDL
MODEL 6
REMARK VINA RESULT:      -5.6      1.551      2.521
REMARK  1 active torsions:
REMARK  status: ('A' for Active; 'I' for Inactive)
REMARK    1  A    between atoms: C_4  and  N_5 
ROOT
HETATM    1  C   LIG     1      16.835  38.863  22.633  1.00  0.00     0.048 C 
HETATM    2  C   LIG     1      17.003  37.547  23.334  1.00  0.00    -0.060 A 
HETATM    3  C   LIG     1      17.302  37.523  24.705  1.00  0.00     0.035 A 
HETATM    4  C   LIG     1      17.463  36.300  25.374  1.00  0.00     0.026 A 
HETATM    5  C   LIG     1      17.322  35.099  24.666  1.00  0.00     0.029 A 
HETATM    6  C   LIG     1      17.024  35.119  23.301  1.00  0.00     0.003 A 
HETATM    7  C   LIG     1      16.865  36.337  22.635  1.00  0.00     0.007 A 
ENDROOT
BRANCH   4   8
HETATM    8  N   LIG     1      17.767  36.280  26.772  1.00  0.00    -0.399 N 
HETATM    9  H   LIG     1      18.723  36.521  27.114  1.00  0.00     0.156 HD
HETATM   10  H   LIG     1      17.038  36.023  27.474  1.00  0.00     0.156 HD
ENDBRANCH   4   8
TORSDOF 1
ENDMDL
MODEL 7
REMARK VINA RESULT:      -5.5      4.266      5.318
REMARK  1 active torsions:
REMARK  status: ('A' for Active; 'I' for Inactive)
REMARK    1  A    between atoms: C_4  and  N_5 
ROOT
HETATM    1  C   LIG     1      20.340  38.835  19.362  1.00  0.00     0.048 C 
HETATM    2  C   LIG     1      19.221  38.349  20.236  1.00  0.00    -0.060 A 
HETATM    3  C   LIG     1      18.619  37.110  19.970  1.00  0.00     0.035 A 
HETATM    4  C   LIG     1      17.571  36.642  20.778  1.00  0.00     0.026 A 
HETATM    5  C   LIG     1      17.128  37.420  21.856  1.00  0.00     0.029 A 
HETATM    6  C   LIG     1      17.725  38.654  22.125  1.00  0.00     0.003 A 
HETATM    7  C   LIG     1      18.768  39.120  21.319  1.00  0.00     0.007 A 
ENDROOT
BRANCH   4   8
HETATM    8  N   LIG     1      16.960  35.379  20.503  1.00  0.00    -0.399 N 
HETATM    9  H   LIG     1      16.387  34.892  21.228  1.00  0.00     0.156 HD
HETATM   10  H   LIG     1      17.077  34.920  19.572  1.00  0.00     0.156 HD
ENDBRANCH   4   8
TORSDOF 1
ENDMDL
MODEL 8
REMARK VINA RESULT:      -5.5      4.148      4.952
REMARK  1 active torsions:
REMARK  status: ('A' for Active; 'I' for Inactive)
REMARK    1  A    between atoms: C_4  and  N_5 
ROOT
HETATM    1  C   LIG     1      17.039  35.603  20.926  1.00  0.00     0.048 C 
HETATM    2  C   LIG     1      17.645  36.970  21.046  1.00  0.00    -0.060 A 
HETATM    3  C   LIG     1      18.616  37.385  20.121  1.00  0.00     0.035 A 
HETATM    4  C   LIG     1      19.192  38.661  20.221  1.00  0.00     0.026 A 
HETATM    5  C   LIG     1      18.793  39.522  21.251  1.00  0.00     0.029 A 
HETATM    6  C   LIG     1      17.826  39.114  22.174  1.00  0.00     0.003 A 
HETATM    7  C   LIG     1      17.253  37.843  22.074  1.00  0.00     0.007 A 
ENDROOT
BRANCH   4   8
HETATM    8  N   LIG     1      20.181  39.078  19.276  1.00  0.00    -0.399 N 
HETATM    9  H   LIG     1      20.627  38.391  18.629  1.00  0.00     0.156 HD
HETATM   10  H   LIG     1      20.476  40.079  19.218  1.00  0.00     0.156 HD
ENDBRANCH   4   8
TORSDOF 1
ENDMDL
MODEL 9
REMARK VINA RESULT:      -5.2      9.674     10.882
REMARK  1 active torsions:
REMARK  status: ('A' for Active; 'I' for Inactive)
REMARK    1  A    between atoms: C_4  and  N_5 
ROOT
HETATM    1  C   LIG     1      15.299  29.942  13.647  1.00  0.00     0.048 C 
HETATM    2  C   LIG     1      14.704  30.689  14.804  1.00  0.00    -0.060 A 
HETATM    3  C   LIG     1      15.393  31.778  15.359  1.00  0.00     0.035 A 
HETATM    4  C   LIG     1      14.849  32.485  16.442  1.00  0.00     0.026 A 
HETATM    5  C   LIG     1      13.609  32.099  16.968  1.00  0.00     0.029 A 
HETATM    6  C   LIG     1      12.919  31.016  16.419  1.00  0.00     0.003 A 
HETATM    7  C   LIG     1      13.462  30.311  15.341  1.00  0.00     0.007 A 
ENDROOT
BRANCH   4   8
HETATM    8  N   LIG     1      15.555  33.595  17.003  1.00  0.00    -0.399 N 
HETATM    9  H   LIG     1      16.265  34.116  16.443  1.00  0.00     0.156 HD
HETATM   10  H   LIG     1      15.374  33.902  17.985  1.00  0.00     0.156 HD
ENDBRANCH   4   8
TORSDOF 1
ENDMDL
MODEL 10
REMARK VINA RESULT:      -5.2      3.970      5.219
REMARK  1 active torsions:
REMARK  status: ('A' for Active; 'I' for Inactive)
REMARK    1  A    between atoms: C_4  and  N_5 
ROOT
HETATM    1  C   LIG     1      16.444  37.492  23.395  1.00  0.00     0.048 C 
HETATM    2  C   LIG     1      17.345  37.900  22.266  1.00  0.00    -0.060 A 
HETATM    3  C   LIG     1      17.582  37.008  21.208  1.00  0.00     0.035 A 
HETATM    4  C   LIG     1      18.422  37.375  20.146  1.00  0.00     0.026 A 
HETATM    5  C   LIG     1      19.025  38.640  20.144  1.00  0.00     0.029 A 
HETATM    6  C   LIG     1      18.790  39.531  21.194  1.00  0.00     0.003 A 
HETATM    7  C   LIG     1      17.954  39.165  22.253  1.00  0.00     0.007 A 
ENDROOT
BRANCH   4   8
HETATM    8  N   LIG     1      18.661  36.462  19.071  1.00  0.00    -0.399 N 
HETATM    9  H   LIG     1      18.584  35.431  19.216  1.00  0.00     0.156 HD
HETATM   10  H   LIG     1      18.917  36.812  18.120  1.00  0.00     0.156 HD
ENDBRANCH   4   8
TORSDOF 1
ENDMDL
MODEL 11
REMARK VINA RESULT:      -5.1      9.869     10.993
REMARK  1 active torsions:
REMARK  status: ('A' for Active; 'I' for Inactive)
REMARK    1  A    between atoms: C_4  and  N_5 
ROOT
HETATM    1  C   LIG     1      17.221  33.032  14.822  1.00  0.00     0.048 C 
HETATM    2  C   LIG     1      16.020  32.182  15.118  1.00  0.00    -0.060 A 
HETATM    3  C   LIG     1      15.264  32.424  16.276  1.00  0.00     0.035 A 
HETATM    4  C   LIG     1      14.139  31.636  16.566  1.00  0.00     0.026 A 
HETATM    5  C   LIG     1      13.772  30.605  15.691  1.00  0.00     0.029 A 
HETATM    6  C   LIG     1      14.521  30.361  14.537  1.00  0.00     0.003 A 
HETATM    7  C   LIG     1      15.642  31.145  14.250  1.00  0.00     0.007 A 
ENDROOT
BRANCH   4   8
HETATM    8  N   LIG     1      13.372  31.887  17.746  1.00  0.00    -0.399 N 
HETATM    9  H   LIG     1      13.794  31.765  18.694  1.00  0.00     0.156 HD
HETATM   10  H   LIG     1      12.376  32.195  17.682  1.00  0.00     0.156 HD
ENDBRANCH   4   8
TORSDOF 1
ENDMDL
MODEL 12
REMARK VINA RESULT:      -5.1     10.013     11.322
REMARK  1 active torsions:
REMARK  status: ('A' for Active; 'I' for Inactive)
REMARK    1  A    between atoms: C_4  and  N_5 
ROOT
HETATM    1  C   LIG     1      13.197  28.975  14.167  1.00  0.00     0.048 C 
HETATM    2  C   LIG     1      13.926  30.113  14.818  1.00  0.00    -0.060 A 
HETATM    3  C   LIG     1      13.514  30.574  16.078  1.00  0.00     0.035 A 
HETATM    4  C   LIG     1      14.186  31.638  16.699  1.00  0.00     0.026 A 
HETATM    5  C   LIG     1      15.274  32.240  16.055  1.00  0.00     0.029 A 
HETATM    6  C   LIG     1      15.688  31.785  14.801  1.00  0.00     0.003 A 
HETATM    7  C   LIG     1      15.018  30.726  14.182  1.00  0.00     0.007 A 
ENDROOT
BRANCH   4   8
HETATM    8  N   LIG     1      13.762  32.104  17.983  1.00  0.00    -0.399 N 
HETATM    9  H   LIG     1      14.156  32.980  18.392  1.00  0.00     0.156 HD
HETATM   10  H   LIG     1      13.050  31.575  18.536  1.00  0.00     0.156 HD
ENDBRANCH   4   8
TORSDOF 1
ENDMDL
MODEL 13
REMARK VINA RESULT:      -5.1     10.522     11.605
REMARK  1 active torsions:
REMARK  status: ('A' for Active; 'I' for Inactive)
REMARK    1  A    between atoms: C_4  and  N_5 
ROOT
HETATM    1  C   LIG     1      16.899  32.666  15.060  1.00  0.00     0.048 C 
HETATM    2  C   LIG     1      15.616  31.964  15.393  1.00  0.00    -0.060 A 
HETATM    3  C   LIG     1      15.162  30.919  14.573  1.00  0.00     0.035 A 
HETATM    4  C   LIG     1      13.963  30.253  14.872  1.00  0.00     0.026 A 
HETATM    5  C   LIG     1      13.219  30.637  15.996  1.00  0.00     0.029 A 
HETATM    6  C   LIG     1      13.668  31.676  16.815  1.00  0.00     0.003 A 
HETATM    7  C   LIG     1      14.861  32.339  16.516  1.00  0.00     0.007 A 
ENDROOT
BRANCH   4   8
HETATM    8  N   LIG     1      13.504  29.189  14.034  1.00  0.00    -0.399 N 
HETATM    9  H   LIG     1      12.856  29.377  13.237  1.00  0.00     0.156 HD
HETATM   10  H   LIG     1      13.808  28.205  14.205  1.00  0.00     0.156 HD
ENDBRANCH   4   8
TORSDOF 1
ENDMDL
MODEL 14
REMARK VINA RESULT:      -4.9      4.263      5.630
REMARK  1 active torsions:
REMARK  status: ('A' for Active; 'I' for Inactive)
REMARK    1  A    between atoms: C_4  and  N_5 
ROOT
HETATM    1  C   LIG     1      17.994  39.433  22.766  1.00  0.00     0.048 C 
HETATM    2  C   LIG     1      18.239  38.534  21.590  1.00  0.00    -0.060 A 
HETATM    3  C   LIG     1      17.455  37.383  21.418  1.00  0.00     0.035 A 
HETATM    4  C   LIG     1      17.673  36.533  20.323  1.00  0.00     0.026 A 
HETATM    5  C   LIG     1      18.680  36.840  19.398  1.00  0.00     0.029 A 
HETATM    6  C   LIG     1      19.463  37.985  19.565  1.00  0.00     0.003 A 
HETATM    7  C   LIG     1      19.246  38.830  20.656  1.00  0.00     0.007 A 
ENDROOT
BRANCH   4   8
HETATM    8  N   LIG     1      16.871  35.361  20.152  1.00  0.00    -0.399 N 
HETATM    9  H   LIG     1      17.009  34.734  19.328  1.00  0.00     0.156 HD
HETATM   10  H   LIG     1      16.133  35.112  20.848  1.00  0.00     0.156 HD
ENDBRANCH   4   8
TORSDOF 1
ENDMDL
MODEL 15
REMARK VINA RESULT:      -4.9      2.822      4.411
REMARK  1 active torsions:
REMARK  status: ('A' for Active; 'I' for Inactive)
REMARK    1  A    between atoms: C_4  and  N_5 
ROOT
HETATM    1  C   LIG     1      17.198  38.145  25.015  1.00  0.00     0.048 C 
HETATM    2  C   LIG     1      17.353  37.753  23.575  1.00  0.00    -0.060 A 
HETATM    3  C   LIG     1      16.900  36.496  23.144  1.00  0.00     0.035 A 
HETATM    4  C   LIG     1      17.040  36.115  21.800  1.00  0.00     0.026 A 
HETATM    5  C   LIG     1      17.634  36.997  20.888  1.00  0.00     0.029 A 
HETATM    6  C   LIG     1      18.086  38.249  21.313  1.00  0.00     0.003 A 
HETATM    7  C   LIG     1      17.948  38.628  22.651  1.00  0.00     0.007 A 
ENDROOT
BRANCH   4   8
HETATM    8  N   LIG     1      16.577  34.834  21.365  1.00  0.00    -0.399 N 
HETATM    9  H   LIG     1      15.742  34.749  20.744  1.00  0.00     0.156 HD
HETATM   10  H   LIG     1      17.066  33.960  21.661  1.00  0.00     0.156 HD
ENDBRANCH   4   8
TORSDOF 1
ENDMDL
MODEL 16
REMARK VINA RESULT:      -4.9      3.395      4.412
REMARK  1 active torsions:
REMARK  status: ('A' for Active; 'I' for Inactive)
REMARK    1  A    between atoms: C_4  and  N_5 
ROOT
HETATM    1  C   LIG     1      18.752  36.681  19.376  1.00  0.00     0.048 C 
HETATM    2  C   LIG     1      18.387  37.599  20.505  1.00  0.00    -0.060 A 
HETATM    3  C   LIG     1      17.388  37.220  21.416  1.00  0.00     0.035 A 
HETATM    4  C   LIG     1      17.035  38.068  22.476  1.00  0.00     0.026 A 
HETATM    5  C   LIG     1      17.687  39.300  22.624  1.00  0.00     0.029 A 
HETATM    6  C   LIG     1      18.682  39.681  21.721  1.00  0.00     0.003 A 
HETATM    7  C   LIG     1      19.032  38.836  20.665  1.00  0.00     0.007 A 
ENDROOT
BRANCH   4   8
HETATM    8  N   LIG     1      16.017  37.677  23.401  1.00  0.00    -0.399 N 
HETATM    9  H   LIG     1      15.127  37.246  23.067  1.00  0.00     0.156 HD
HETATM   10  H   LIG     1      16.145  37.817  24.429  1.00  0.00     0.156 HD
ENDBRANCH   4   8
TORSDOF 1
ENDMDL
MODEL 17
REMARK VINA RESULT:      -4.8      3.581      4.624
REMARK  1 active torsions:
REMARK  status: ('A' for Active; 'I' for Inactive)
REMARK    1  A    between atoms: C_4  and  N_5 
ROOT
HETATM    1  C   LIG     1      17.194  39.230  23.062  1.00  0.00     0.048 C 
HETATM    2  C   LIG     1      17.226  37.924  22.324  1.00  0.00    -0.060 A 
HETATM    3  C   LIG     1      17.925  37.826  21.111  1.00  0.00     0.035 A 
HETATM    4  C   LIG     1      17.962  36.611  20.410  1.00  0.00     0.026 A 
HETATM    5  C   LIG     1      17.298  35.491  20.928  1.00  0.00     0.029 A 
HETATM    6  C   LIG     1      16.601  35.584  22.136  1.00  0.00     0.003 A 
HETATM    7  C   LIG     1      16.563  36.795  22.833  1.00  0.00     0.007 A 
ENDROOT
BRANCH   4   8
HETATM    8  N   LIG     1      18.676  36.516  19.174  1.00  0.00    -0.399 N 
HETATM    9  H   LIG     1      18.556  35.688  18.549  1.00  0.00     0.156 HD
HETATM   10  H   LIG     1      19.330  37.273  18.875  1.00  0.00     0.156 HD
ENDBRANCH   4   8
TORSDOF 1
ENDMDL
MODEL 18
REMARK VINA RESULT:      -4.7      2.771      3.605
REMARK  1 active torsions:
REMARK  status: ('A' for Active; 'I' for Inactive)
REMARK    1  A    between atoms: C_4  and  N_5 
ROOT
HETATM    1  C   LIG     1      19.058  39.337  20.961  1.00  0.00     0.048 C 
HETATM    2  C   LIG     1      18.321  38.833  22.167  1.00  0.00    -0.060 A 
HETATM    3  C   LIG     1      16.958  38.513  22.066  1.00  0.00     0.035 A 
HETATM    4  C   LIG     1      16.256  38.041  23.185  1.00  0.00     0.026 A 
HETATM    5  C   LIG     1      16.923  37.889  24.408  1.00  0.00     0.029 A 
HETATM    6  C   LIG     1      18.280  38.206  24.513  1.00  0.00     0.003 A 
HETATM    7  C   LIG     1      18.978  38.677  23.398  1.00  0.00     0.007 A 
ENDROOT
BRANCH   4   8
HETATM    8  N   LIG     1      14.867  37.716  23.078  1.00  0.00    -0.399 N 
HETATM    9  H   LIG     1      14.200  38.367  22.608  1.00  0.00     0.156 HD
HETATM   10  H   LIG     1      14.495  36.821  23.469  1.00  0.00     0.156 HD
ENDBRANCH   4   8
TORSDOF 1
ENDMDL
MODEL 19
REMARK VINA RESULT:      -4.5      3.332      4.483
REMARK  1 active torsions:
REMARK  status: ('A' for Active; 'I' for Inactive)
REMARK    1  A    between atoms: C_4  and  N_5 
ROOT
HETATM    1  C   LIG     1      18.534  38.544  20.612  1.00  0.00     0.048 C 
HETATM    2  C   LIG     1      17.799  37.425  21.289  1.00  0.00    -0.060 A 
HETATM    3  C   LIG     1      17.355  36.328  20.536  1.00  0.00     0.035 A 
HETATM    4  C   LIG     1      16.666  35.274  21.156  1.00  0.00     0.026 A 
HETATM    5  C   LIG     1      16.423  35.322  22.536  1.00  0.00     0.029 A 
HETATM    6  C   LIG     1      16.865  36.412  23.290  1.00  0.00     0.003 A 
HETATM    7  C   LIG     1      17.550  37.462  22.671  1.00  0.00     0.007 A 
ENDROOT
BRANCH   4   8
HETATM    8  N   LIG     1      16.214  34.158  20.385  1.00  0.00    -0.399 N 
HETATM    9  H   LIG     1      15.712  33.362  20.838  1.00  0.00     0.156 HD
HETATM   10  H   LIG     1      16.380  34.118  19.354  1.00  0.00     0.156 HD
ENDBRANCH   4   8
TORSDOF 1
ENDMDL
MODEL 20
REMARK VINA RESULT:      -4.1      9.876     11.086
REMARK  1 active torsions:
REMARK  status: ('A' for Active; 'I' for Inactive)
REMARK    1  A    between atoms: C_4  and  N_5 
ROOT
HETATM    1  C   LIG     1      13.036  30.295  16.191  1.00  0.00     0.048 C 
HETATM    2  C   LIG     1      14.173  31.233  15.909  1.00  0.00    -0.060 A 
HETATM    3  C   LIG     1      14.807  31.202  14.657  1.00  0.00     0.035 A 
HETATM    4  C   LIG     1      15.872  32.072  14.380  1.00  0.00     0.026 A 
HETATM    5  C   LIG     1      16.301  32.976  15.361  1.00  0.00     0.029 A 
HETATM    6  C   LIG     1      15.672  33.011  16.608  1.00  0.00     0.003 A 
HETATM    7  C   LIG     1      14.612  32.143  16.884  1.00  0.00     0.007 A 
ENDROOT
BRANCH   4   8
HETATM    8  N   LIG     1      16.515  32.037  13.103  1.00  0.00    -0.399 N 
HETATM    9  H   LIG     1      16.044  31.603  12.279  1.00  0.00     0.156 HD
HETATM   10  H   LIG     1      17.468  32.445  12.973  1.00  0.00     0.156 HD
ENDBRANCH   4   8
TORSDOF 1
ENDMDL
