REMARK  0 active torsions:
REMARK  status: ('A' for Active; 'I' for Inactive)
ROOT
HETATM    1  C   LIG     1      -2.327  -0.941   0.167  1.00  0.00     0.048 C 
HETATM    2  C   LIG     1      -1.089  -0.101   0.056  1.00  0.00    -0.059 A 
HETATM    3  C   LIG     1       0.171  -0.715   0.038  1.00  0.00     0.033 A 
HETATM    4  C   LIG     1       1.323   0.075  -0.065  1.00  0.00     0.030 A 
HETATM    5  C   LIG     1       2.676  -0.562  -0.085  1.00  0.00     0.070 C 
HETATM    6  N   LIG     1       1.210   1.429  -0.147  1.00  0.00    -0.266 NA
HETATM    7  C   LIG     1      -0.000   2.048  -0.132  1.00  0.00     0.117 A 
HETATM    8  C   LIG     1      -1.172   1.296  -0.030  1.00  0.00     0.026 A 
ENDROOT
TORSDOF 0
