MODEL 1
REMARK VINA RESULT:      -5.1      0.000      0.000
REMARK  2 active torsions:
REMARK  status: ('A' for Active; 'I' for Inactive)
REMARK    1  A    between atoms: C_2  and  C_3 
REMARK    2  A    between atoms: C_3  and  C_4 
ROOT
HETATM    1  C   LIG     1      17.901  37.178  25.274  1.00  0.00     0.081 C 
ENDROOT
BRANCH   1   2
HETATM    2  C   LIG     1      17.149  37.938  24.212  1.00  0.00     0.123 C 
HETATM    3  C   LIG     1      17.877  38.521  23.039  1.00  0.00     0.091 C 
HETATM    4  O   LIG     1      15.938  38.074  24.303  1.00  0.00    -0.298 OA
ENDBRANCH   1   2
BRANCH   1   5
HETATM    5  C   LIG     1      17.382  35.733  25.431  1.00  0.00    -0.016 C 
HETATM    6  C   LIG     1      17.234  35.029  24.073  1.00  0.00     0.010 C 
HETATM    7  C   LIG     1      18.325  34.929  26.334  1.00  0.00     0.010 C 
ENDBRANCH   1   5
TORSDOF 2
ENDMDL
MODEL 2
REMARK VINA RESULT:      -4.5      1.753      3.121
REMARK  2 active torsions:
REMARK  status: ('A' for Active; 'I' for Inactive)
REMARK    1  A    between atoms: C_2  and  C_3 
REMARK    2  A    between atoms: C_3  and  C_4 
ROOT
HETATM    1  C   LIG     1      17.110  35.982  23.637  1.00  0.00     0.081 C 
ENDROOT
BRANCH   1   2
HETATM    2  C   LIG     1      17.128  37.046  24.703  1.00  0.00     0.123 C 
HETATM    3  C   LIG     1      18.103  36.965  25.840  1.00  0.00     0.091 C 
HETATM    4  O   LIG     1      16.350  37.986  24.638  1.00  0.00    -0.298 OA
ENDBRANCH   1   2
BRANCH   1   5
HETATM    5  C   LIG     1      16.469  36.484  22.326  1.00  0.00    -0.016 C 
HETATM    6  C   LIG     1      17.499  37.156  21.406  1.00  0.00     0.010 C 
HETATM    7  C   LIG     1      15.794  35.319  21.589  1.00  0.00     0.010 C 
ENDBRANCH   1   5
TORSDOF 2
ENDMDL
MODEL 3
REMARK VINA RESULT:      -4.3      2.264      3.231
REMARK  2 active torsions:
REMARK  status: ('A' for Active; 'I' for Inactive)
REMARK    1  A    between atoms: C_2  and  C_3 
REMARK    2  A    between atoms: C_3  and  C_4 
ROOT
HETATM    1  C   LIG     1      16.960  36.382  22.940  1.00  0.00     0.081 C 
ENDROOT
BRANCH   1   2
HETATM    2  C   LIG     1      16.639  37.757  23.466  1.00  0.00     0.123 C 
HETATM    3  C   LIG     1      16.754  38.956  22.573  1.00  0.00     0.091 C 
HETATM    4  O   LIG     1      16.276  37.897  24.624  1.00  0.00    -0.298 OA
ENDBRANCH   1   2
BRANCH   1   5
HETATM    5  C   LIG     1      16.580  36.227  21.452  1.00  0.00    -0.016 C 
HETATM    6  C   LIG     1      17.812  36.302  20.538  1.00  0.00     0.010 C 
HETATM    7  C   LIG     1      15.848  34.897  21.231  1.00  0.00     0.010 C 
ENDBRANCH   1   5
TORSDOF 2
ENDMDL
MODEL 4
REMARK VINA RESULT:      -4.3      2.482      4.267
REMARK  2 active torsions:
REMARK  status: ('A' for Active; 'I' for Inactive)
REMARK    1  A    between atoms: C_2  and  C_3 
REMARK    2  A    between atoms: C_3  and  C_4 
ROOT
HETATM    1  C   LIG     1      17.259  37.531  21.574  1.00  0.00     0.081 C 
ENDROOT
BRANCH   1   2
HETATM    2  C   LIG     1      17.006  38.360  22.806  1.00  0.00     0.123 C 
HETATM    3  C   LIG     1      17.891  38.221  24.008  1.00  0.00     0.091 C 
HETATM    4  O   LIG     1      16.079  39.156  22.825  1.00  0.00    -0.298 OA
ENDBRANCH   1   2
BRANCH   1   5
HETATM    5  C   LIG     1      18.599  37.891  20.897  1.00  0.00    -0.016 C 
HETATM    6  C   LIG     1      18.868  37.019  19.662  1.00  0.00     0.010 C 
HETATM    7  C   LIG     1      18.608  39.373  20.501  1.00  0.00     0.010 C 
ENDBRANCH   1   5
TORSDOF 2
ENDMDL
MODEL 5
REMARK VINA RESULT:      -4.1     10.433     11.698
REMARK  2 active torsions:
REMARK  status: ('A' for Active; 'I' for Inactive)
REMARK    1  A    between atoms: C_2  and  C_3 
REMARK    2  A    between atoms: C_3  and  C_4 
ROOT
HETATM    1  C   LIG     1      13.845  30.557  15.173  1.00  0.00     0.081 C 
ENDROOT
BRANCH   1   2
HETATM    2  C   LIG     1      14.015  31.213  16.519  1.00  0.00     0.123 C 
HETATM    3  C   LIG     1      14.743  32.518  16.639  1.00  0.00     0.091 C 
HETATM    4  O   LIG     1      13.551  30.684  17.518  1.00  0.00    -0.298 OA
ENDBRANCH   1   2
BRANCH   1   5
HETATM    5  C   LIG     1      15.199  30.195  14.528  1.00  0.00    -0.016 C 
HETATM    6  C   LIG     1      15.189  28.779  13.934  1.00  0.00     0.010 C 
HETATM    7  C   LIG     1      15.553  31.214  13.438  1.00  0.00     0.010 C 
ENDBRANCH   1   5
TORSDOF 2
ENDMDL
MODEL 6
REMARK VINA RESULT:      -4.0     10.423     11.586
REMARK  2 active torsions:
REMARK  status: ('A' for Active; 'I' for Inactive)
REMARK    1  A    between atoms: C_2  and  C_3 
REMARK    2  A    between atoms: C_3  and  C_4 
ROOT
HETATM    1  C   LIG     1      15.590  31.430  14.238  1.00  0.00     0.081 C 
ENDROOT
BRANCH   1   2
HETATM    2  C   LIG     1      16.290  32.240  15.298  1.00  0.00     0.123 C 
HETATM    3  C   LIG     1      15.498  33.069  16.265  1.00  0.00     0.091 C 
HETATM    4  O   LIG     1      17.509  32.216  15.377  1.00  0.00    -0.298 OA
ENDBRANCH   1   2
BRANCH   1   5
HETATM    5  C   LIG     1      14.991  30.125  14.805  1.00  0.00    -0.016 C 
HETATM    6  C   LIG     1      13.489  30.266  15.097  1.00  0.00     0.010 C 
HETATM    7  C   LIG     1      15.225  28.969  13.825  1.00  0.00     0.010 C 
ENDBRANCH   1   5
TORSDOF 2
ENDMDL
MODEL 7
REMARK VINA RESULT:      -4.0      7.915      9.332
REMARK  2 active torsions:
REMARK  status: ('A' for Active; 'I' for Inactive)
REMARK    1  A    between atoms: C_2  and  C_3 
REMARK    2  A    between atoms: C_3  and  C_4 
ROOT
HETATM    1  C   LIG     1      15.015  32.524  17.254  1.00  0.00     0.081 C 
ENDROOT
BRANCH   1   2
HETATM    2  C   LIG     1      15.177  32.627  18.748  1.00  0.00     0.123 C 
HETATM    3  C   LIG     1      14.827  31.467  19.631  1.00  0.00     0.091 C 
HETATM    4  O   LIG     1      15.604  33.659  19.244  1.00  0.00    -0.298 OA
ENDBRANCH   1   2
BRANCH   1   5
HETATM    5  C   LIG     1      14.006  31.425  16.855  1.00  0.00    -0.016 C 
HETATM    6  C   LIG     1      12.572  31.968  16.774  1.00  0.00     0.010 C 
HETATM    7  C   LIG     1      14.406  30.808  15.509  1.00  0.00     0.010 C 
ENDBRANCH   1   5
TORSDOF 2
ENDMDL
MODEL 8
REMARK VINA RESULT:      -3.9      8.435      9.438
REMARK  2 active torsions:
REMARK  status: ('A' for Active; 'I' for Inactive)
REMARK    1  A    between atoms: C_2  and  C_3 
REMARK    2  A    between atoms: C_3  and  C_4 
ROOT
HETATM    1  C   LIG     1      14.862  33.533  16.900  1.00  0.00     0.081 C 
ENDROOT
BRANCH   1   2
HETATM    2  C   LIG     1      16.050  33.607  15.976  1.00  0.00     0.123 C 
HETATM    3  C   LIG     1      16.561  32.371  15.298  1.00  0.00     0.091 C 
HETATM    4  O   LIG     1      16.596  34.681  15.771  1.00  0.00    -0.298 OA
ENDBRANCH   1   2
BRANCH   1   5
HETATM    5  C   LIG     1      14.532  32.081  17.306  1.00  0.00    -0.016 C 
HETATM    6  C   LIG     1      14.673  31.865  18.820  1.00  0.00     0.010 C 
HETATM    7  C   LIG     1      13.110  31.720  16.859  1.00  0.00     0.010 C 
ENDBRANCH   1   5
TORSDOF 2
ENDMDL
MODEL 9
REMARK VINA RESULT:      -3.8      8.587      9.856
REMARK  2 active torsions:
REMARK  status: ('A' for Active; 'I' for Inactive)
REMARK    1  A    between atoms: C_2  and  C_3 
REMARK    2  A    between atoms: C_3  and  C_4 
ROOT
HETATM    1  C   LIG     1      15.016  32.984  16.599  1.00  0.00     0.081 C 
ENDROOT
BRANCH   1   2
HETATM    2  C   LIG     1      14.591  32.192  17.808  1.00  0.00     0.123 C 
HETATM    3  C   LIG     1      15.319  32.344  19.110  1.00  0.00     0.091 C 
HETATM    4  O   LIG     1      13.643  31.425  17.730  1.00  0.00    -0.298 OA
ENDBRANCH   1   2
BRANCH   1   5
HETATM    5  C   LIG     1      16.051  32.225  15.742  1.00  0.00    -0.016 C 
HETATM    6  C   LIG     1      15.376  31.314  14.705  1.00  0.00     0.010 C 
HETATM    7  C   LIG     1      16.980  33.220  15.034  1.00  0.00     0.010 C 
ENDBRANCH   1   5
TORSDOF 2
ENDMDL
MODEL 10
REMARK VINA RESULT:      -3.8      9.999     10.642
REMARK  2 active torsions:
REMARK  status: ('A' for Active; 'I' for Inactive)
REMARK    1  A    between atoms: C_2  and  C_3 
REMARK    2  A    between atoms: C_3  and  C_4 
ROOT
HETATM    1  C   LIG     1      17.035  32.357  15.324  1.00  0.00     0.081 C 
ENDROOT
BRANCH   1   2
HETATM    2  C   LIG     1      17.387  33.741  14.845  1.00  0.00     0.123 C 
HETATM    3  C   LIG     1      18.209  33.929  13.605  1.00  0.00     0.091 C 
HETATM    4  O   LIG     1      16.994  34.718  15.465  1.00  0.00    -0.298 OA
ENDBRANCH   1   2
BRANCH   1   5
HETATM    5  C   LIG     1      15.562  31.999  15.034  1.00  0.00    -0.016 C 
HETATM    6  C   LIG     1      15.429  30.630  14.352  1.00  0.00     0.010 C 
HETATM    7  C   LIG     1      14.751  32.013  16.337  1.00  0.00     0.010 C 
ENDBRANCH   1   5
TORSDOF 2
ENDMDL
MODEL 11
REMARK VINA RESULT:      -3.7      9.600     10.791
REMARK  2 active torsions:
REMARK  status: ('A' for Active; 'I' for Inactive)
REMARK    1  A    between atoms: C_2  and  C_3 
REMARK    2  A    between atoms: C_3  and  C_4 
ROOT
HETATM    1  C   LIG     1      16.388  32.399  15.546  1.00  0.00     0.081 C 
ENDROOT
BRANCH   1   2
HETATM    2  C   LIG     1      15.442  33.245  16.358  1.00  0.00     0.123 C 
HETATM    3  C   LIG     1      14.245  32.626  17.016  1.00  0.00     0.091 C 
HETATM    4  O   LIG     1      15.655  34.441  16.489  1.00  0.00    -0.298 OA
ENDBRANCH   1   2
BRANCH   1   5
HETATM    5  C   LIG     1      16.069  32.458  14.037  1.00  0.00    -0.016 C 
HETATM    6  C   LIG     1      17.264  32.971  13.220  1.00  0.00     0.010 C 
HETATM    7  C   LIG     1      15.652  31.071  13.532  1.00  0.00     0.010 C 
ENDBRANCH   1   5
TORSDOF 2
ENDMDL
MODEL 12
REMARK VINA RESULT:      -3.7     12.155     13.142
REMARK  2 active torsions:
REMARK  status: ('A' for Active; 'I' for Inactive)
REMARK    1  A    between atoms: C_2  and  C_3 
REMARK    2  A    between atoms: C_3  and  C_4 
ROOT
HETATM    1  C   LIG     1      19.171  34.364  11.435  1.00  0.00     0.081 C 
ENDROOT
BRANCH   1   2
HETATM    2  C   LIG     1      17.998  34.453  12.375  1.00  0.00     0.123 C 
HETATM    3  C   LIG     1      17.813  33.431  13.457  1.00  0.00     0.091 C 
HETATM    4  O   LIG     1      17.195  35.368  12.262  1.00  0.00    -0.298 OA
ENDBRANCH   1   2
BRANCH   1   5
HETATM    5  C   LIG     1      20.323  33.521  12.023  1.00  0.00    -0.016 C 
HETATM    6  C   LIG     1      20.929  32.574  10.977  1.00  0.00     0.010 C 
HETATM    7  C   LIG     1      21.414  34.440  12.587  1.00  0.00     0.010 C 
ENDBRANCH   1   5
TORSDOF 2
ENDMDL
MODEL 13
REMARK VINA RESULT:      -3.7      9.311     10.609
REMARK  2 active torsions:
REMARK  status: ('A' for Active; 'I' for Inactive)
REMARK    1  A    between atoms: C_2  and  C_3 
REMARK    2  A    between atoms: C_3  and  C_4 
ROOT
HETATM    1  C   LIG     1      14.974  31.748  15.997  1.00  0.00     0.081 C 
ENDROOT
BRANCH   1   2
HETATM    2  C   LIG     1      13.928  30.768  15.534  1.00  0.00     0.123 C 
HETATM    3  C   LIG     1      14.233  29.799  14.432  1.00  0.00     0.091 C 
HETATM    4  O   LIG     1      12.827  30.757  16.064  1.00  0.00    -0.298 OA
ENDBRANCH   1   2
BRANCH   1   5
HETATM    5  C   LIG     1      14.455  32.659  17.130  1.00  0.00    -0.016 C 
HETATM    6  C   LIG     1      14.870  32.141  18.516  1.00  0.00     0.010 C 
HETATM    7  C   LIG     1      14.971  34.090  16.934  1.00  0.00     0.010 C 
ENDBRANCH   1   5
TORSDOF 2
ENDMDL
MODEL 14
REMARK VINA RESULT:      -3.7      9.330     10.543
REMARK  2 active torsions:
REMARK  status: ('A' for Active; 'I' for Inactive)
REMARK    1  A    between atoms: C_2  and  C_3 
REMARK    2  A    between atoms: C_3  and  C_4 
ROOT
HETATM    1  C   LIG     1      14.481  31.668  16.071  1.00  0.00     0.081 C 
ENDROOT
BRANCH   1   2
HETATM    2  C   LIG     1      15.360  31.156  14.960  1.00  0.00     0.123 C 
HETATM    3  C   LIG     1      14.845  30.128  13.998  1.00  0.00     0.091 C 
HETATM    4  O   LIG     1      16.497  31.585  14.837  1.00  0.00    -0.298 OA
ENDBRANCH   1   2
BRANCH   1   5
HETATM    5  C   LIG     1      15.267  32.525  17.086  1.00  0.00    -0.016 C 
HETATM    6  C   LIG     1      15.042  34.028  16.859  1.00  0.00     0.010 C 
HETATM    7  C   LIG     1      14.865  32.149  18.517  1.00  0.00     0.010 C 
ENDBRANCH   1   5
TORSDOF 2
ENDMDL
MODEL 15
REMARK VINA RESULT:      -3.7      8.939     10.145
REMARK  2 active torsions:
REMARK  status: ('A' for Active; 'I' for Inactive)
REMARK    1  A    between atoms: C_2  and  C_3 
REMARK    2  A    between atoms: C_3  and  C_4 
ROOT
HETATM    1  C   LIG     1      13.997  31.541  17.186  1.00  0.00     0.081 C 
ENDROOT
BRANCH   1   2
HETATM    2  C   LIG     1      14.930  32.649  17.601  1.00  0.00     0.123 C 
HETATM    3  C   LIG     1      14.847  33.995  16.946  1.00  0.00     0.091 C 
HETATM    4  O   LIG     1      15.755  32.453  18.481  1.00  0.00    -0.298 OA
ENDBRANCH   1   2
BRANCH   1   5
HETATM    5  C   LIG     1      13.990  31.330  15.657  1.00  0.00    -0.016 C 
HETATM    6  C   LIG     1      15.387  30.979  15.122  1.00  0.00     0.010 C 
HETATM    7  C   LIG     1      12.996  30.223  15.282  1.00  0.00     0.010 C 
ENDBRANCH   1   5
TORSDOF 2
ENDMDL
MODEL 16
REMARK VINA RESULT:      -3.4     11.084     11.806
REMARK  2 active torsions:
REMARK  status: ('A' for Active; 'I' for Inactive)
REMARK    1  A    between atoms: C_2  and  C_3 
REMARK    2  A    between atoms: C_3  and  C_4 
ROOT
HETATM    1  C   LIG     1      15.493  30.350  15.159  1.00  0.00     0.081 C 
ENDROOT
BRANCH   1   2
HETATM    2  C   LIG     1      16.288  31.522  14.646  1.00  0.00     0.123 C 
HETATM    3  C   LIG     1      15.998  32.101  13.293  1.00  0.00     0.091 C 
HETATM    4  O   LIG     1      17.169  32.011  15.338  1.00  0.00    -0.298 OA
ENDBRANCH   1   2
BRANCH   1   5
HETATM    5  C   LIG     1      13.972  30.572  15.015  1.00  0.00    -0.016 C 
HETATM    6  C   LIG     1      13.278  29.368  14.361  1.00  0.00     0.010 C 
HETATM    7  C   LIG     1      13.349  30.849  16.389  1.00  0.00     0.010 C 
ENDBRANCH   1   5
TORSDOF 2
ENDMDL
MODEL 17
REMARK VINA RESULT:      -3.4     15.367     15.968
REMARK  2 active torsions:
REMARK  status: ('A' for Active; 'I' for Inactive)
REMARK    1  A    between atoms: C_2  and  C_3 
REMARK    2  A    between atoms: C_3  and  C_4 
ROOT
HETATM    1  C   LIG     1      26.010  31.136  35.618  1.00  0.00     0.081 C 
ENDROOT
BRANCH   1   2
HETATM    2  C   LIG     1      25.992  30.984  37.116  1.00  0.00     0.123 C 
HETATM    3  C   LIG     1      26.681  31.990  37.989  1.00  0.00     0.091 C 
HETATM    4  O   LIG     1      25.406  30.040  37.626  1.00  0.00    -0.298 OA
ENDBRANCH   1   2
BRANCH   1   5
HETATM    5  C   LIG     1      27.145  30.320  34.965  1.00  0.00    -0.016 C 
HETATM    6  C   LIG     1      26.618  29.044  34.292  1.00  0.00     0.010 C 
HETATM    7  C   LIG     1      27.889  31.181  33.936  1.00  0.00     0.010 C 
ENDBRANCH   1   5
TORSDOF 2
ENDMDL
MODEL 18
REMARK VINA RESULT:      -3.4      9.585     10.613
REMARK  2 active torsions:
REMARK  status: ('A' for Active; 'I' for Inactive)
REMARK    1  A    between atoms: C_2  and  C_3 
REMARK    2  A    between atoms: C_3  and  C_4 
ROOT
HETATM    1  C   LIG     1      16.122  32.261  15.842  1.00  0.00     0.081 C 
ENDROOT
BRANCH   1   2
HETATM    2  C   LIG     1      16.019  32.012  14.360  1.00  0.00     0.123 C 
HETATM    3  C   LIG     1      16.828  32.827  13.396  1.00  0.00     0.091 C 
HETATM    4  O   LIG     1      15.279  31.135  13.940  1.00  0.00    -0.298 OA
ENDBRANCH   1   2
BRANCH   1   5
HETATM    5  C   LIG     1      14.808  32.819  16.429  1.00  0.00    -0.016 C 
HETATM    6  C   LIG     1      14.205  31.876  17.480  1.00  0.00     0.010 C 
HETATM    7  C   LIG     1      15.053  34.201  17.049  1.00  0.00     0.010 C 
ENDBRANCH   1   5
TORSDOF 2
ENDMDL
MODEL 19
REMARK VINA RESULT:      -3.3     10.719     11.596
REMARK  2 active torsions:
REMARK  status: ('A' for Active; 'I' for Inactive)
REMARK    1  A    between atoms: C_2  and  C_3 
REMARK    2  A    between atoms: C_3  and  C_4 
ROOT
HETATM    1  C   LIG     1      15.153  31.983  15.582  1.00  0.00     0.081 C 
ENDROOT
BRANCH   1   2
HETATM    2  C   LIG     1      14.282  30.757  15.499  1.00  0.00     0.123 C 
HETATM    3  C   LIG     1      12.937  30.736  16.161  1.00  0.00     0.091 C 
HETATM    4  O   LIG     1      14.669  29.776  14.883  1.00  0.00    -0.298 OA
ENDBRANCH   1   2
BRANCH   1   5
HETATM    5  C   LIG     1      16.414  31.861  14.700  1.00  0.00    -0.016 C 
HETATM    6  C   LIG     1      16.127  32.238  13.239  1.00  0.00     0.010 C 
HETATM    7  C   LIG     1      17.535  32.748  15.256  1.00  0.00     0.010 C 
ENDBRANCH   1   5
TORSDOF 2
ENDMDL
MODEL 20
REMARK VINA RESULT:      -3.0      6.538      7.751
REMARK  2 active torsions:
REMARK  status: ('A' for Active; 'I' for Inactive)
REMARK    1  A    between atoms: C_2  and  C_3 
REMARK    2  A    between atoms: C_3  and  C_4 
ROOT
HETATM    1  C   LIG     1      15.070  32.281  19.348  1.00  0.00     0.081 C 
ENDROOT
BRANCH   1   2
HETATM    2  C   LIG     1      14.991  32.376  17.847  1.00  0.00     0.123 C 
HETATM    3  C   LIG     1      13.677  32.206  17.144  1.00  0.00     0.091 C 
HETATM    4  O   LIG     1      16.001  32.602  17.197  1.00  0.00    -0.298 OA
ENDBRANCH   1   2
BRANCH   1   5
HETATM    5  C   LIG     1      15.597  33.584  19.986  1.00  0.00    -0.016 C 
HETATM    6  C   LIG     1      15.452  34.783  19.038  1.00  0.00     0.010 C 
HETATM    7  C   LIG     1      14.855  33.865  21.299  1.00  0.00     0.010 C 
ENDBRANCH   1   5
TORSDOF 2
ENDMDL
