REMARK  0 active torsions:
REMARK  status: ('A' for Active; 'I' for Inactive)
ROOT
HETATM    1  O   LIG     1      -1.393  -2.179   0.772  1.00  0.00    -0.298 OA
HETATM    2  C   LIG     1      -0.839  -1.230   0.240  1.00  0.00     0.127 C 
HETATM    3  C   LIG     1      -1.536   0.099   0.142  1.00  0.00     0.078 C 
HETATM    4  C   LIG     1      -0.567   1.238   0.484  1.00  0.00     0.007 C 
HETATM    5  C   LIG     1       0.740   1.122  -0.315  1.00  0.00     0.001 C 
HETATM    6  C   LIG     1       1.426  -0.227  -0.051  1.00  0.00     0.007 C 
HETATM    7  C   LIG     1       0.507  -1.402  -0.407  1.00  0.00     0.078 C 
ENDROOT
TORSDOF 0
