MODEL 1
REMARK VINA RESULT:      -5.7      0.000      0.000
REMARK  1 active torsions:
REMARK  status: ('A' for Active; 'I' for Inactive)
REMARK    1  A    between atoms: O_1  and  C_2 
ROOT
HETATM    1  C   LIG     1      17.241  37.297  24.923  1.00  0.00     0.065 A 
HETATM    2  C   LIG     1      17.006  36.053  24.320  1.00  0.00     0.036 A 
HETATM    3  C   LIG     1      17.436  34.878  24.946  1.00  0.00     0.003 A 
HETATM    4  C   LIG     1      18.102  34.943  26.173  1.00  0.00     0.000 A 
HETATM    5  C   LIG     1      18.339  36.181  26.777  1.00  0.00     0.003 A 
HETATM    6  C   LIG     1      17.909  37.358  26.153  1.00  0.00     0.036 A 
ENDROOT
BRANCH   1   7
HETATM    7  O   LIG     1      16.818  38.475  24.312  1.00  0.00    -0.361 OA
HETATM    8  H   LIG     1      16.157  39.097  24.763  1.00  0.00     0.217 HD
ENDBRANCH   1   7
TORSDOF 1
ENDMDL
MODEL 2
REMARK VINA RESULT:      -5.6      5.071      5.810
REMARK  1 active torsions:
REMARK  status: ('A' for Active; 'I' for Inactive)
REMARK    1  A    between atoms: O_1  and  C_2 
ROOT
HETATM    1  C   LIG     1      19.665  38.764  19.751  1.00  0.00     0.065 A 
HETATM    2  C   LIG     1      19.370  37.426  19.453  1.00  0.00     0.036 A 
HETATM    3  C   LIG     1      18.383  36.748  20.175  1.00  0.00     0.003 A 
HETATM    4  C   LIG     1      17.688  37.403  21.196  1.00  0.00     0.000 A 
HETATM    5  C   LIG     1      17.980  38.737  21.496  1.00  0.00     0.003 A 
HETATM    6  C   LIG     1      18.967  39.417  20.775  1.00  0.00     0.036 A 
ENDROOT
BRANCH   1   7
HETATM    7  O   LIG     1      20.646  39.452  19.041  1.00  0.00    -0.361 OA
HETATM    8  H   LIG     1      21.368  38.961  18.526  1.00  0.00     0.217 HD
ENDBRANCH   1   7
TORSDOF 1
ENDMDL
MODEL 3
REMARK VINA RESULT:      -5.5      4.933      5.911
REMARK  1 active torsions:
REMARK  status: ('A' for Active; 'I' for Inactive)
REMARK    1  A    between atoms: O_1  and  C_2 
ROOT
HETATM    1  C   LIG     1      19.569  38.724  19.870  1.00  0.00     0.065 A 
HETATM    2  C   LIG     1      18.923  39.290  20.978  1.00  0.00     0.036 A 
HETATM    3  C   LIG     1      17.950  38.562  21.671  1.00  0.00     0.003 A 
HETATM    4  C   LIG     1      17.620  37.268  21.258  1.00  0.00     0.000 A 
HETATM    5  C   LIG     1      18.261  36.700  20.153  1.00  0.00     0.003 A 
HETATM    6  C   LIG     1      19.235  37.427  19.459  1.00  0.00     0.036 A 
ENDROOT
BRANCH   1   7
HETATM    7  O   LIG     1      20.540  39.437  19.171  1.00  0.00    -0.361 OA
HETATM    8  H   LIG     1      21.489  39.517  19.516  1.00  0.00     0.217 HD
ENDBRANCH   1   7
TORSDOF 1
ENDMDL
MODEL 4
REMARK VINA RESULT:      -5.1      1.090      2.228
REMARK  1 active torsions:
REMARK  status: ('A' for Active; 'I' for Inactive)
REMARK    1  A    between atoms: O_1  and  C_2 
ROOT
HETATM    1  C   LIG     1      17.256  37.524  25.067  1.00  0.00     0.065 A 
HETATM    2  C   LIG     1      17.567  36.343  25.758  1.00  0.00     0.036 A 
HETATM    3  C   LIG     1      17.510  35.110  25.101  1.00  0.00     0.003 A 
HETATM    4  C   LIG     1      17.141  35.052  23.753  1.00  0.00     0.000 A 
HETATM    5  C   LIG     1      16.831  36.226  23.061  1.00  0.00     0.003 A 
HETATM    6  C   LIG     1      16.888  37.461  23.717  1.00  0.00     0.036 A 
ENDROOT
BRANCH   1   7
HETATM    7  O   LIG     1      17.309  38.758  25.708  1.00  0.00    -0.361 OA
HETATM    8  H   LIG     1      17.112  38.849  26.699  1.00  0.00     0.217 HD
ENDBRANCH   1   7
TORSDOF 1
ENDMDL
MODEL 5
REMARK VINA RESULT:      -5.0      4.502      5.668
REMARK  1 active torsions:
REMARK  status: ('A' for Active; 'I' for Inactive)
REMARK    1  A    between atoms: O_1  and  C_2 
ROOT
HETATM    1  C   LIG     1      17.684  37.610  21.358  1.00  0.00     0.065 A 
HETATM    2  C   LIG     1      18.256  38.891  21.377  1.00  0.00     0.036 A 
HETATM    3  C   LIG     1      19.257  39.226  20.460  1.00  0.00     0.003 A 
HETATM    4  C   LIG     1      19.690  38.284  19.522  1.00  0.00     0.000 A 
HETATM    5  C   LIG     1      19.124  37.006  19.500  1.00  0.00     0.003 A 
HETATM    6  C   LIG     1      18.122  36.669  20.417  1.00  0.00     0.036 A 
ENDROOT
BRANCH   1   7
HETATM    7  O   LIG     1      16.687  37.262  22.266  1.00  0.00    -0.361 OA
HETATM    8  H   LIG     1      16.220  36.364  22.220  1.00  0.00     0.217 HD
ENDBRANCH   1   7
TORSDOF 1
ENDMDL
MODEL 6
REMARK VINA RESULT:      -5.0      4.491      5.411
REMARK  1 active torsions:
REMARK  status: ('A' for Active; 'I' for Inactive)
REMARK    1  A    between atoms: O_1  and  C_2 
ROOT
HETATM    1  C   LIG     1      17.669  37.590  21.355  1.00  0.00     0.065 A 
HETATM    2  C   LIG     1      18.118  36.655  20.410  1.00  0.00     0.036 A 
HETATM    3  C   LIG     1      19.127  37.002  19.506  1.00  0.00     0.003 A 
HETATM    4  C   LIG     1      19.689  38.282  19.541  1.00  0.00     0.000 A 
HETATM    5  C   LIG     1      19.243  39.216  20.481  1.00  0.00     0.003 A 
HETATM    6  C   LIG     1      18.234  38.871  21.387  1.00  0.00     0.036 A 
ENDROOT
BRANCH   1   7
HETATM    7  O   LIG     1      16.666  37.259  22.262  1.00  0.00    -0.361 OA
HETATM    8  H   LIG     1      15.701  37.154  21.968  1.00  0.00     0.217 HD
ENDBRANCH   1   7
TORSDOF 1
ENDMDL
MODEL 7
REMARK VINA RESULT:      -4.9      3.359      4.136
REMARK  1 active torsions:
REMARK  status: ('A' for Active; 'I' for Inactive)
REMARK    1  A    between atoms: O_1  and  C_2 
ROOT
HETATM    1  C   LIG     1      16.540  37.799  22.809  1.00  0.00     0.065 A 
HETATM    2  C   LIG     1      16.580  36.553  22.167  1.00  0.00     0.036 A 
HETATM    3  C   LIG     1      17.426  36.355  21.071  1.00  0.00     0.003 A 
HETATM    4  C   LIG     1      18.233  37.400  20.612  1.00  0.00     0.000 A 
HETATM    5  C   LIG     1      18.195  38.644  21.249  1.00  0.00     0.003 A 
HETATM    6  C   LIG     1      17.350  38.844  22.346  1.00  0.00     0.036 A 
ENDROOT
BRANCH   1   7
HETATM    7  O   LIG     1      15.703  38.011  23.901  1.00  0.00    -0.361 OA
HETATM    8  H   LIG     1      14.845  37.484  24.020  1.00  0.00     0.217 HD
ENDBRANCH   1   7
TORSDOF 1
ENDMDL
MODEL 8
REMARK VINA RESULT:      -4.7      4.300      5.207
REMARK  1 active torsions:
REMARK  status: ('A' for Active; 'I' for Inactive)
REMARK    1  A    between atoms: O_1  and  C_2 
ROOT
HETATM    1  C   LIG     1      18.465  37.252  20.218  1.00  0.00     0.065 A 
HETATM    2  C   LIG     1      17.517  36.767  21.130  1.00  0.00     0.036 A 
HETATM    3  C   LIG     1      17.080  37.575  22.185  1.00  0.00     0.003 A 
HETATM    4  C   LIG     1      17.590  38.869  22.332  1.00  0.00     0.000 A 
HETATM    5  C   LIG     1      18.535  39.356  21.425  1.00  0.00     0.003 A 
HETATM    6  C   LIG     1      18.973  38.549  20.369  1.00  0.00     0.036 A 
ENDROOT
BRANCH   1   7
HETATM    7  O   LIG     1      18.909  36.458  19.163  1.00  0.00    -0.361 OA
HETATM    8  H   LIG     1      19.053  35.461  19.276  1.00  0.00     0.217 HD
ENDBRANCH   1   7
TORSDOF 1
ENDMDL
MODEL 9
REMARK VINA RESULT:      -4.7     11.713     12.764
REMARK  1 active torsions:
REMARK  status: ('A' for Active; 'I' for Inactive)
REMARK    1  A    between atoms: O_1  and  C_2 
ROOT
HETATM    1  C   LIG     1      13.515  29.776  14.554  1.00  0.00     0.065 A 
HETATM    2  C   LIG     1      13.121  30.463  15.712  1.00  0.00     0.036 A 
HETATM    3  C   LIG     1      13.953  31.444  16.263  1.00  0.00     0.003 A 
HETATM    4  C   LIG     1      15.179  31.740  15.660  1.00  0.00     0.000 A 
HETATM    5  C   LIG     1      15.575  31.057  14.506  1.00  0.00     0.003 A 
HETATM    6  C   LIG     1      14.744  30.076  13.953  1.00  0.00     0.036 A 
ENDROOT
BRANCH   1   7
HETATM    7  O   LIG     1      12.697  28.798  13.995  1.00  0.00    -0.361 OA
HETATM    8  H   LIG     1      13.067  28.096  13.364  1.00  0.00     0.217 HD
ENDBRANCH   1   7
TORSDOF 1
ENDMDL
MODEL 10
REMARK VINA RESULT:      -4.6      1.952      2.777
REMARK  1 active torsions:
REMARK  status: ('A' for Active; 'I' for Inactive)
REMARK    1  A    between atoms: O_1  and  C_2 
ROOT
HETATM    1  C   LIG     1      17.563  35.562  25.324  1.00  0.00     0.065 A 
HETATM    2  C   LIG     1      17.165  35.138  24.047  1.00  0.00     0.036 A 
HETATM    3  C   LIG     1      16.887  36.079  23.051  1.00  0.00     0.003 A 
HETATM    4  C   LIG     1      17.003  37.445  23.326  1.00  0.00     0.000 A 
HETATM    5  C   LIG     1      17.399  37.871  24.598  1.00  0.00     0.003 A 
HETATM    6  C   LIG     1      17.678  36.931  25.596  1.00  0.00     0.036 A 
ENDROOT
BRANCH   1   7
HETATM    7  O   LIG     1      17.843  34.637  26.326  1.00  0.00    -0.361 OA
HETATM    8  H   LIG     1      17.794  34.887  27.307  1.00  0.00     0.217 HD
ENDBRANCH   1   7
TORSDOF 1
ENDMDL
MODEL 11
REMARK VINA RESULT:      -4.6     10.939     12.101
REMARK  1 active torsions:
REMARK  status: ('A' for Active; 'I' for Inactive)
REMARK    1  A    between atoms: O_1  and  C_2 
ROOT
HETATM    1  C   LIG     1      13.479  30.697  15.978  1.00  0.00     0.065 A 
HETATM    2  C   LIG     1      14.278  31.750  16.447  1.00  0.00     0.036 A 
HETATM    3  C   LIG     1      15.415  32.140  15.732  1.00  0.00     0.003 A 
HETATM    4  C   LIG     1      15.758  31.479  14.548  1.00  0.00     0.000 A 
HETATM    5  C   LIG     1      14.964  30.429  14.078  1.00  0.00     0.003 A 
HETATM    6  C   LIG     1      13.826  30.037  14.792  1.00  0.00     0.036 A 
ENDROOT
BRANCH   1   7
HETATM    7  O   LIG     1      12.344  30.298  16.679  1.00  0.00    -0.361 OA
HETATM    8  H   LIG     1      12.413  29.849  17.586  1.00  0.00     0.217 HD
ENDBRANCH   1   7
TORSDOF 1
ENDMDL
MODEL 12
REMARK VINA RESULT:      -4.6     10.944     11.969
REMARK  1 active torsions:
REMARK  status: ('A' for Active; 'I' for Inactive)
REMARK    1  A    between atoms: O_1  and  C_2 
ROOT
HETATM    1  C   LIG     1      13.449  30.682  15.989  1.00  0.00     0.065 A 
HETATM    2  C   LIG     1      13.796  30.020  14.801  1.00  0.00     0.036 A 
HETATM    3  C   LIG     1      14.936  30.409  14.090  1.00  0.00     0.003 A 
HETATM    4  C   LIG     1      15.731  31.458  14.561  1.00  0.00     0.000 A 
HETATM    5  C   LIG     1      15.387  32.120  15.743  1.00  0.00     0.003 A 
HETATM    6  C   LIG     1      14.248  31.733  16.457  1.00  0.00     0.036 A 
ENDROOT
BRANCH   1   7
HETATM    7  O   LIG     1      12.317  30.305  16.707  1.00  0.00    -0.361 OA
HETATM    8  H   LIG     1      12.115  30.699  17.619  1.00  0.00     0.217 HD
ENDBRANCH   1   7
TORSDOF 1
ENDMDL
MODEL 13
REMARK VINA RESULT:      -4.5     11.170     12.127
REMARK  1 active torsions:
REMARK  status: ('A' for Active; 'I' for Inactive)
REMARK    1  A    between atoms: O_1  and  C_2 
ROOT
HETATM    1  C   LIG     1      14.630  30.477  14.460  1.00  0.00     0.065 A 
HETATM    2  C   LIG     1      13.416  30.106  15.056  1.00  0.00     0.036 A 
HETATM    3  C   LIG     1      12.981  30.749  16.220  1.00  0.00     0.003 A 
HETATM    4  C   LIG     1      13.756  31.762  16.792  1.00  0.00     0.000 A 
HETATM    5  C   LIG     1      14.968  32.134  16.201  1.00  0.00     0.003 A 
HETATM    6  C   LIG     1      15.405  31.492  15.036  1.00  0.00     0.036 A 
ENDROOT
BRANCH   1   7
HETATM    7  O   LIG     1      15.076  29.846  13.302  1.00  0.00    -0.361 OA
HETATM    8  H   LIG     1      14.457  29.684  12.516  1.00  0.00     0.217 HD
ENDBRANCH   1   7
TORSDOF 1
ENDMDL
MODEL 14
REMARK VINA RESULT:      -4.5     11.166     12.208
REMARK  1 active torsions:
REMARK  status: ('A' for Active; 'I' for Inactive)
REMARK    1  A    between atoms: O_1  and  C_2 
ROOT
HETATM    1  C   LIG     1      14.630  30.477  14.468  1.00  0.00     0.065 A 
HETATM    2  C   LIG     1      15.403  31.493  15.050  1.00  0.00     0.036 A 
HETATM    3  C   LIG     1      14.961  32.131  16.213  1.00  0.00     0.003 A 
HETATM    4  C   LIG     1      13.748  31.759  16.798  1.00  0.00     0.000 A 
HETATM    5  C   LIG     1      12.974  30.747  16.221  1.00  0.00     0.003 A 
HETATM    6  C   LIG     1      13.414  30.107  15.057  1.00  0.00     0.036 A 
ENDROOT
BRANCH   1   7
HETATM    7  O   LIG     1      15.057  29.833  13.310  1.00  0.00    -0.361 OA
HETATM    8  H   LIG     1      14.910  28.840  13.172  1.00  0.00     0.217 HD
ENDBRANCH   1   7
TORSDOF 1
ENDMDL
MODEL 15
REMARK VINA RESULT:      -4.5     10.330     11.423
REMARK  1 active torsions:
REMARK  status: ('A' for Active; 'I' for Inactive)
REMARK    1  A    between atoms: O_1  and  C_2 
ROOT
HETATM    1  C   LIG     1      15.144  32.250  16.107  1.00  0.00     0.065 A 
HETATM    2  C   LIG     1      13.970  31.919  16.799  1.00  0.00     0.036 A 
HETATM    3  C   LIG     1      13.151  30.885  16.335  1.00  0.00     0.003 A 
HETATM    4  C   LIG     1      13.501  30.179  15.180  1.00  0.00     0.000 A 
HETATM    5  C   LIG     1      14.671  30.507  14.488  1.00  0.00     0.003 A 
HETATM    6  C   LIG     1      15.492  31.541  14.950  1.00  0.00     0.036 A 
ENDROOT
BRANCH   1   7
HETATM    7  O   LIG     1      15.969  33.278  16.558  1.00  0.00    -0.361 OA
HETATM    8  H   LIG     1      15.837  34.235  16.251  1.00  0.00     0.217 HD
ENDBRANCH   1   7
TORSDOF 1
ENDMDL
MODEL 16
REMARK VINA RESULT:      -4.4     12.031     12.277
REMARK  1 active torsions:
REMARK  status: ('A' for Active; 'I' for Inactive)
REMARK    1  A    between atoms: O_1  and  C_2 
ROOT
HETATM    1  C   LIG     1      16.381  44.054  34.562  1.00  0.00     0.065 A 
HETATM    2  C   LIG     1      15.148  44.569  34.134  1.00  0.00     0.036 A 
HETATM    3  C   LIG     1      15.108  45.569  33.157  1.00  0.00     0.003 A 
HETATM    4  C   LIG     1      16.297  46.057  32.606  1.00  0.00     0.000 A 
HETATM    5  C   LIG     1      17.527  45.547  33.031  1.00  0.00     0.003 A 
HETATM    6  C   LIG     1      17.569  44.546  34.008  1.00  0.00     0.036 A 
ENDROOT
BRANCH   1   7
HETATM    7  O   LIG     1      16.436  43.059  35.535  1.00  0.00    -0.361 OA
HETATM    8  H   LIG     1      16.159  42.105  35.332  1.00  0.00     0.217 HD
ENDBRANCH   1   7
TORSDOF 1
ENDMDL
MODEL 17
REMARK VINA RESULT:      -4.2      2.728      3.813
REMARK  1 active torsions:
REMARK  status: ('A' for Active; 'I' for Inactive)
REMARK    1  A    between atoms: O_1  and  C_2 
ROOT
HETATM    1  C   LIG     1      17.178  36.618  21.690  1.00  0.00     0.065 A 
HETATM    2  C   LIG     1      17.665  37.925  21.545  1.00  0.00     0.036 A 
HETATM    3  C   LIG     1      17.871  38.727  22.672  1.00  0.00     0.003 A 
HETATM    4  C   LIG     1      17.589  38.226  23.947  1.00  0.00     0.000 A 
HETATM    5  C   LIG     1      17.103  36.924  24.096  1.00  0.00     0.003 A 
HETATM    6  C   LIG     1      16.897  36.121  22.969  1.00  0.00     0.036 A 
ENDROOT
BRANCH   1   7
HETATM    7  O   LIG     1      16.969  35.809  20.576  1.00  0.00    -0.361 OA
HETATM    8  H   LIG     1      16.615  36.188  19.706  1.00  0.00     0.217 HD
ENDBRANCH   1   7
TORSDOF 1
ENDMDL
MODEL 18
REMARK VINA RESULT:      -3.7     12.577     12.818
REMARK  1 active torsions:
REMARK  status: ('A' for Active; 'I' for Inactive)
REMARK    1  A    between atoms: O_1  and  C_2 
ROOT
HETATM    1  C   LIG     1      27.902  37.888  19.572  1.00  0.00     0.065 A 
HETATM    2  C   LIG     1      29.068  37.661  20.317  1.00  0.00     0.036 A 
HETATM    3  C   LIG     1      29.961  38.709  20.559  1.00  0.00     0.003 A 
HETATM    4  C   LIG     1      29.694  39.986  20.056  1.00  0.00     0.000 A 
HETATM    5  C   LIG     1      28.533  40.217  19.312  1.00  0.00     0.003 A 
HETATM    6  C   LIG     1      27.638  39.169  19.070  1.00  0.00     0.036 A 
ENDROOT
BRANCH   1   7
HETATM    7  O   LIG     1      27.004  36.854  19.323  1.00  0.00    -0.361 OA
HETATM    8  H   LIG     1      26.732  36.203  20.051  1.00  0.00     0.217 HD
ENDBRANCH   1   7
TORSDOF 1
ENDMDL
MODEL 19
REMARK VINA RESULT:      -3.6     16.555     16.958
REMARK  1 active torsions:
REMARK  status: ('A' for Active; 'I' for Inactive)
REMARK    1  A    between atoms: O_1  and  C_2 
ROOT
HETATM    1  C   LIG     1       4.323  41.904  34.919  1.00  0.00     0.065 A 
HETATM    2  C   LIG     1       4.392  40.534  35.214  1.00  0.00     0.036 A 
HETATM    3  C   LIG     1       4.046  39.589  34.244  1.00  0.00     0.003 A 
HETATM    4  C   LIG     1       3.630  40.007  32.976  1.00  0.00     0.000 A 
HETATM    5  C   LIG     1       3.559  41.371  32.678  1.00  0.00     0.003 A 
HETATM    6  C   LIG     1       3.905  42.319  33.648  1.00  0.00     0.036 A 
ENDROOT
BRANCH   1   7
HETATM    7  O   LIG     1       4.664  42.856  35.875  1.00  0.00    -0.361 OA
HETATM    8  H   LIG     1       4.194  42.896  36.773  1.00  0.00     0.217 HD
ENDBRANCH   1   7
TORSDOF 1
ENDMDL
MODEL 20
REMARK VINA RESULT:      -3.6     16.459     16.757
REMARK  1 active torsions:
REMARK  status: ('A' for Active; 'I' for Inactive)
REMARK    1  A    between atoms: O_1  and  C_2 
ROOT
HETATM    1  C   LIG     1       4.161  42.162  34.086  1.00  0.00     0.065 A 
HETATM    2  C   LIG     1       3.733  42.393  32.769  1.00  0.00     0.036 A 
HETATM    3  C   LIG     1       3.354  41.320  31.957  1.00  0.00     0.003 A 
HETATM    4  C   LIG     1       3.402  40.014  32.455  1.00  0.00     0.000 A 
HETATM    5  C   LIG     1       3.827  39.780  33.766  1.00  0.00     0.003 A 
HETATM    6  C   LIG     1       4.207  40.853  34.580  1.00  0.00     0.036 A 
ENDROOT
BRANCH   1   7
HETATM    7  O   LIG     1       4.541  43.221  34.906  1.00  0.00    -0.361 OA
HETATM    8  H   LIG     1       4.677  43.096  35.902  1.00  0.00     0.217 HD
ENDBRANCH   1   7
TORSDOF 1
ENDMDL
