REMARK  2 active torsions:
REMARK  status: ('A' for Active; 'I' for Inactive)
REMARK    1  A    between atoms: C_2  and  C_4 
REMARK    2  A    between atoms: C_4  and  C_5 
ROOT
HETATM    1  C   LIG     1      -0.035   0.122  -0.984  1.00  0.00     0.008 C 
ENDROOT
BRANCH   1   2
HETATM    2  C   LIG     1       1.161   0.338  -0.016  1.00  0.00    -0.022 C 
HETATM    3  C   LIG     1       2.454   0.498  -0.829  1.00  0.00     0.009 C 
HETATM    4  C   LIG     1       1.328  -0.809   0.992  1.00  0.00     0.009 C 
ENDBRANCH   1   2
BRANCH   1   5
HETATM    5  C   LIG     1      -1.464   0.116  -0.374  1.00  0.00    -0.022 C 
HETATM    6  C   LIG     1      -1.889  -1.260   0.162  1.00  0.00     0.009 C 
HETATM    7  C   LIG     1      -1.692   1.217   0.670  1.00  0.00     0.009 C 
ENDBRANCH   1   5
TORSDOF 2
