REMARK  2 active torsions:
REMARK  status: ('A' for Active; 'I' for Inactive)
REMARK    1  A    between atoms: O_1  and  C_2 
REMARK    2  A    between atoms: C_4  and  O_5 
ROOT
HETATM    1  C   LIG     1      -1.114  -0.726   0.067  1.00  0.00     0.068 A 
HETATM    2  C   LIG     1       0.195  -1.224   0.090  1.00  0.00     0.072 A 
HETATM    3  C   LIG     1       1.284  -0.348   0.013  1.00  0.00     0.068 A 
HETATM    4  C   LIG     1       1.062   1.033  -0.089  1.00  0.00     0.037 A 
HETATM    5  C   LIG     1      -0.244   1.532  -0.113  1.00  0.00     0.005 A 
HETATM    6  C   LIG     1      -1.331   0.656  -0.035  1.00  0.00     0.037 A 
ENDROOT
BRANCH   1   7
HETATM    7  O   LIG     1      -2.188  -1.609   0.145  1.00  0.00    -0.361 OA
HETATM    8  H   LIG     1      -3.146  -1.280   0.130  1.00  0.00     0.217 HD
ENDBRANCH   1   7
BRANCH   3   9
HETATM    9  O   LIG     1       2.580  -0.859   0.038  1.00  0.00    -0.361 OA
HETATM   10  H   LIG     1       3.389  -0.252  -0.017  1.00  0.00     0.217 HD
ENDBRANCH   3   9
TORSDOF 2
