REMARK  2 active torsions:
REMARK  status: ('A' for Active; 'I' for Inactive)
REMARK    1  A    between atoms: C_2  and  O_4 
REMARK    2  A    between atoms: O_4  and  C_5 
ROOT
HETATM    1  O   LIG     1       0.019   0.615   0.101  1.00  0.00    -0.382 OA
ENDROOT
BRANCH   1   2
HETATM    2  C   LIG     1      -1.177  -0.147   0.055  1.00  0.00     0.113 C 
HETATM    3  C   LIG     1      -2.179   0.468   1.032  1.00  0.00     0.039 C 
HETATM    4  C   LIG     1      -1.748  -0.128  -1.366  1.00  0.00     0.039 C 
ENDBRANCH   1   2
BRANCH   1   5
HETATM    5  C   LIG     1       1.167  -0.191  -0.111  1.00  0.00     0.113 C 
HETATM    6  C   LIG     1       2.212   0.643  -0.850  1.00  0.00     0.039 C 
HETATM    7  C   LIG     1       1.724  -0.661   1.237  1.00  0.00     0.039 C 
ENDBRANCH   1   5
TORSDOF 2
