MODEL 1
REMARK VINA RESULT:      -5.4      0.000      0.000
REMARK  1 active torsions:
REMARK  status: ('A' for Active; 'I' for Inactive)
REMARK    1  A    between atoms: O_1  and  C_2 
ROOT
HETATM    1  C   LIG     1      17.257  37.249  24.859  1.00  0.00     0.118 C 
HETATM    2  C   LIG     1      18.478  37.364  25.788  1.00  0.00     0.032 C 
HETATM    3  C   LIG     1      18.445  36.287  26.880  1.00  0.00     0.002 C 
HETATM    4  C   LIG     1      18.358  34.884  26.267  1.00  0.00     0.000 C 
HETATM    5  C   LIG     1      17.143  34.765  25.338  1.00  0.00     0.002 C 
HETATM    6  C   LIG     1      17.177  35.842  24.247  1.00  0.00     0.032 C 
ENDROOT
BRANCH   1   7
HETATM    7  O   LIG     1      17.353  38.193  23.825  1.00  0.00    -0.396 OA
HETATM    8  H   LIG     1      16.485  38.676  23.798  1.00  0.00     0.210 HD
ENDBRANCH   1   7
TORSDOF 1
ENDMDL
MODEL 2
REMARK VINA RESULT:      -5.3      0.940      2.117
REMARK  1 active torsions:
REMARK  status: ('A' for Active; 'I' for Inactive)
REMARK    1  A    between atoms: O_1  and  C_2 
ROOT
HETATM    1  C   LIG     1      17.810  37.665  25.285  1.00  0.00     0.118 C 
HETATM    2  C   LIG     1      16.796  36.987  24.347  1.00  0.00     0.032 C 
HETATM    3  C   LIG     1      17.203  35.539  24.048  1.00  0.00     0.002 C 
HETATM    4  C   LIG     1      17.368  34.734  25.343  1.00  0.00     0.000 C 
HETATM    5  C   LIG     1      18.377  35.408  26.283  1.00  0.00     0.002 C 
HETATM    6  C   LIG     1      17.970  36.855  26.581  1.00  0.00     0.032 C 
ENDROOT
BRANCH   1   7
HETATM    7  O   LIG     1      17.373  38.960  25.604  1.00  0.00    -0.396 OA
HETATM    8  H   LIG     1      16.381  38.935  25.602  1.00  0.00     0.210 HD
ENDBRANCH   1   7
TORSDOF 1
ENDMDL
MODEL 3
REMARK VINA RESULT:      -5.3      4.897      5.698
REMARK  1 active torsions:
REMARK  status: ('A' for Active; 'I' for Inactive)
REMARK    1  A    between atoms: O_1  and  C_2 
ROOT
HETATM    1  C   LIG     1      19.388  38.885  19.511  1.00  0.00     0.118 C 
HETATM    2  C   LIG     1      19.036  39.420  20.911  1.00  0.00     0.032 C 
HETATM    3  C   LIG     1      17.733  38.797  21.428  1.00  0.00     0.002 C 
HETATM    4  C   LIG     1      17.819  37.266  21.436  1.00  0.00     0.000 C 
HETATM    5  C   LIG     1      18.172  36.729  20.043  1.00  0.00     0.002 C 
HETATM    6  C   LIG     1      19.474  37.351  19.527  1.00  0.00     0.032 C 
ENDROOT
BRANCH   1   7
HETATM    7  O   LIG     1      20.622  39.410  19.096  1.00  0.00    -0.396 OA
HETATM    8  H   LIG     1      20.768  40.243  19.617  1.00  0.00     0.210 HD
ENDBRANCH   1   7
TORSDOF 1
ENDMDL
MODEL 4
REMARK VINA RESULT:      -5.2      4.885      5.925
REMARK  1 active torsions:
REMARK  status: ('A' for Active; 'I' for Inactive)
REMARK    1  A    between atoms: O_1  and  C_2 
ROOT
HETATM    1  C   LIG     1      19.922  38.720  19.943  1.00  0.00     0.118 C 
HETATM    2  C   LIG     1      19.152  37.580  19.252  1.00  0.00     0.032 C 
HETATM    3  C   LIG     1      18.455  36.682  20.281  1.00  0.00     0.002 C 
HETATM    4  C   LIG     1      17.523  37.499  21.184  1.00  0.00     0.000 C 
HETATM    5  C   LIG     1      18.285  38.638  21.873  1.00  0.00     0.002 C 
HETATM    6  C   LIG     1      18.982  39.536  20.844  1.00  0.00     0.032 C 
ENDROOT
BRANCH   1   7
HETATM    7  O   LIG     1      20.484  39.570  18.978  1.00  0.00    -0.396 OA
HETATM    8  H   LIG     1      21.084  39.011  18.419  1.00  0.00     0.210 HD
ENDBRANCH   1   7
TORSDOF 1
ENDMDL
MODEL 5
REMARK VINA RESULT:      -4.9      3.507      4.165
REMARK  1 active torsions:
REMARK  status: ('A' for Active; 'I' for Inactive)
REMARK    1  A    between atoms: O_1  and  C_2 
ROOT
HETATM    1  C   LIG     1      16.321  37.718  23.047  1.00  0.00     0.118 C 
HETATM    2  C   LIG     1      16.969  38.968  22.425  1.00  0.00     0.032 C 
HETATM    3  C   LIG     1      18.296  38.618  21.741  1.00  0.00     0.002 C 
HETATM    4  C   LIG     1      18.101  37.524  20.684  1.00  0.00     0.000 C 
HETATM    5  C   LIG     1      17.452  36.277  21.298  1.00  0.00     0.002 C 
HETATM    6  C   LIG     1      16.125  36.627  21.982  1.00  0.00     0.032 C 
ENDROOT
BRANCH   1   7
HETATM    7  O   LIG     1      15.073  38.051  23.596  1.00  0.00    -0.396 OA
HETATM    8  H   LIG     1      15.254  38.577  24.418  1.00  0.00     0.210 HD
ENDBRANCH   1   7
TORSDOF 1
ENDMDL
MODEL 6
REMARK VINA RESULT:      -4.7      4.402      5.706
REMARK  1 active torsions:
REMARK  status: ('A' for Active; 'I' for Inactive)
REMARK    1  A    between atoms: O_1  and  C_2 
ROOT
HETATM    1  C   LIG     1      17.531  37.634  21.393  1.00  0.00     0.118 C 
HETATM    2  C   LIG     1      18.245  36.578  20.531  1.00  0.00     0.032 C 
HETATM    3  C   LIG     1      18.807  37.200  19.247  1.00  0.00     0.002 C 
HETATM    4  C   LIG     1      19.748  38.368  19.567  1.00  0.00     0.000 C 
HETATM    5  C   LIG     1      19.042  39.423  20.427  1.00  0.00     0.002 C 
HETATM    6  C   LIG     1      18.480  38.800  21.711  1.00  0.00     0.032 C 
ENDROOT
BRANCH   1   7
HETATM    7  O   LIG     1      17.097  37.055  22.595  1.00  0.00    -0.396 OA
HETATM    8  H   LIG     1      17.687  36.276  22.767  1.00  0.00     0.210 HD
ENDBRANCH   1   7
TORSDOF 1
ENDMDL
MODEL 7
REMARK VINA RESULT:      -4.7      1.559      2.665
REMARK  1 active torsions:
REMARK  status: ('A' for Active; 'I' for Inactive)
REMARK    1  A    between atoms: O_1  and  C_2 
ROOT
HETATM    1  C   LIG     1      17.990  36.834  26.084  1.00  0.00     0.118 C 
HETATM    2  C   LIG     1      18.141  35.328  25.805  1.00  0.00     0.032 C 
HETATM    3  C   LIG     1      17.056  34.833  24.841  1.00  0.00     0.002 C 
HETATM    4  C   LIG     1      17.075  35.633  23.533  1.00  0.00     0.000 C 
HETATM    5  C   LIG     1      16.926  37.135  23.806  1.00  0.00     0.002 C 
HETATM    6  C   LIG     1      18.011  37.630  24.770  1.00  0.00     0.032 C 
ENDROOT
BRANCH   1   7
HETATM    7  O   LIG     1      19.039  37.276  26.905  1.00  0.00    -0.396 OA
HETATM    8  H   LIG     1      19.648  37.808  26.328  1.00  0.00     0.210 HD
ENDBRANCH   1   7
TORSDOF 1
ENDMDL
MODEL 8
REMARK VINA RESULT:      -4.7      1.764      2.797
REMARK  1 active torsions:
REMARK  status: ('A' for Active; 'I' for Inactive)
REMARK    1  A    between atoms: O_1  and  C_2 
ROOT
HETATM    1  C   LIG     1      17.853  36.320  25.555  1.00  0.00     0.118 C 
HETATM    2  C   LIG     1      17.225  37.642  25.078  1.00  0.00     0.032 C 
HETATM    3  C   LIG     1      17.273  37.757  23.550  1.00  0.00     0.002 C 
HETATM    4  C   LIG     1      16.586  36.558  22.885  1.00  0.00     0.000 C 
HETATM    5  C   LIG     1      17.208  35.238  23.358  1.00  0.00     0.002 C 
HETATM    6  C   LIG     1      17.160  35.123  24.886  1.00  0.00     0.032 C 
ENDROOT
BRANCH   1   7
HETATM    7  O   LIG     1      17.726  36.205  26.947  1.00  0.00    -0.396 OA
HETATM    8  H   LIG     1      18.117  37.029  27.339  1.00  0.00     0.210 HD
ENDBRANCH   1   7
TORSDOF 1
ENDMDL
MODEL 9
REMARK VINA RESULT:      -4.6      4.074      5.104
REMARK  1 active torsions:
REMARK  status: ('A' for Active; 'I' for Inactive)
REMARK    1  A    between atoms: O_1  and  C_2 
ROOT
HETATM    1  C   LIG     1      18.788  38.773  21.388  1.00  0.00     0.118 C 
HETATM    2  C   LIG     1      19.017  38.352  19.925  1.00  0.00     0.032 C 
HETATM    3  C   LIG     1      18.897  36.832  19.762  1.00  0.00     0.002 C 
HETATM    4  C   LIG     1      17.538  36.330  20.266  1.00  0.00     0.000 C 
HETATM    5  C   LIG     1      17.304  36.748  21.723  1.00  0.00     0.002 C 
HETATM    6  C   LIG     1      17.424  38.268  21.886  1.00  0.00     0.032 C 
ENDROOT
BRANCH   1   7
HETATM    7  O   LIG     1      18.825  40.172  21.494  1.00  0.00    -0.396 OA
HETATM    8  H   LIG     1      19.286  40.508  20.681  1.00  0.00     0.210 HD
ENDBRANCH   1   7
TORSDOF 1
ENDMDL
MODEL 10
REMARK VINA RESULT:      -4.6      3.162      4.453
REMARK  1 active torsions:
REMARK  status: ('A' for Active; 'I' for Inactive)
REMARK    1  A    between atoms: O_1  and  C_2 
ROOT
HETATM    1  C   LIG     1      16.866  38.241  22.917  1.00  0.00     0.118 C 
HETATM    2  C   LIG     1      16.871  36.719  22.688  1.00  0.00     0.032 C 
HETATM    3  C   LIG     1      17.013  36.386  21.198  1.00  0.00     0.002 C 
HETATM    4  C   LIG     1      18.274  37.029  20.607  1.00  0.00     0.000 C 
HETATM    5  C   LIG     1      18.275  38.545  20.834  1.00  0.00     0.002 C 
HETATM    6  C   LIG     1      18.133  38.879  22.324  1.00  0.00     0.032 C 
ENDROOT
BRANCH   1   7
HETATM    7  O   LIG     1      16.815  38.517  24.292  1.00  0.00    -0.396 OA
HETATM    8  H   LIG     1      17.409  39.297  24.449  1.00  0.00     0.210 HD
ENDBRANCH   1   7
TORSDOF 1
ENDMDL
MODEL 11
REMARK VINA RESULT:      -4.5     10.446     11.519
REMARK  1 active torsions:
REMARK  status: ('A' for Active; 'I' for Inactive)
REMARK    1  A    between atoms: O_1  and  C_2 
ROOT
HETATM    1  C   LIG     1      14.105  31.392  16.735  1.00  0.00     0.118 C 
HETATM    2  C   LIG     1      15.019  32.485  16.155  1.00  0.00     0.032 C 
HETATM    3  C   LIG     1      16.055  31.887  15.195  1.00  0.00     0.002 C 
HETATM    4  C   LIG     1      15.373  31.095  14.072  1.00  0.00     0.000 C 
HETATM    5  C   LIG     1      14.459  30.005  14.646  1.00  0.00     0.002 C 
HETATM    6  C   LIG     1      13.424  30.603  15.606  1.00  0.00     0.032 C 
ENDROOT
BRANCH   1   7
HETATM    7  O   LIG     1      13.119  31.974  17.547  1.00  0.00    -0.396 OA
HETATM    8  H   LIG     1      12.320  31.389  17.490  1.00  0.00     0.210 HD
ENDBRANCH   1   7
TORSDOF 1
ENDMDL
MODEL 12
REMARK VINA RESULT:      -4.4     10.148     11.223
REMARK  1 active torsions:
REMARK  status: ('A' for Active; 'I' for Inactive)
REMARK    1  A    between atoms: O_1  and  C_2 
ROOT
HETATM    1  C   LIG     1      15.668  32.508  16.041  1.00  0.00     0.118 C 
HETATM    2  C   LIG     1      15.627  31.916  14.622  1.00  0.00     0.032 C 
HETATM    3  C   LIG     1      15.071  30.487  14.636  1.00  0.00     0.002 C 
HETATM    4  C   LIG     1      13.682  30.441  15.285  1.00  0.00     0.000 C 
HETATM    5  C   LIG     1      13.718  31.033  16.699  1.00  0.00     0.002 C 
HETATM    6  C   LIG     1      14.273  32.462  16.685  1.00  0.00     0.032 C 
ENDROOT
BRANCH   1   7
HETATM    7  O   LIG     1      16.105  33.841  15.991  1.00  0.00    -0.396 OA
HETATM    8  H   LIG     1      15.346  34.377  15.643  1.00  0.00     0.210 HD
ENDBRANCH   1   7
TORSDOF 1
ENDMDL
MODEL 13
REMARK VINA RESULT:      -4.4     10.137     11.391
REMARK  1 active torsions:
REMARK  status: ('A' for Active; 'I' for Inactive)
REMARK    1  A    between atoms: O_1  and  C_2 
ROOT
HETATM    1  C   LIG     1      13.912  31.951  16.826  1.00  0.00     0.118 C 
HETATM    2  C   LIG     1      13.477  30.530  16.425  1.00  0.00     0.032 C 
HETATM    3  C   LIG     1      13.700  30.287  14.928  1.00  0.00     0.002 C 
HETATM    4  C   LIG     1      15.163  30.539  14.540  1.00  0.00     0.000 C 
HETATM    5  C   LIG     1      15.601  31.953  14.940  1.00  0.00     0.002 C 
HETATM    6  C   LIG     1      15.378  32.196  16.437  1.00  0.00     0.032 C 
ENDROOT
BRANCH   1   7
HETATM    7  O   LIG     1      13.771  32.121  18.212  1.00  0.00    -0.396 OA
HETATM    8  H   LIG     1      14.326  31.419  18.644  1.00  0.00     0.210 HD
ENDBRANCH   1   7
TORSDOF 1
ENDMDL
MODEL 14
REMARK VINA RESULT:      -4.4      4.039      4.812
REMARK  1 active torsions:
REMARK  status: ('A' for Active; 'I' for Inactive)
REMARK    1  A    between atoms: O_1  and  C_2 
ROOT
HETATM    1  C   LIG     1      18.199  37.100  20.063  1.00  0.00     0.118 C 
HETATM    2  C   LIG     1      18.754  38.323  20.816  1.00  0.00     0.032 C 
HETATM    3  C   LIG     1      17.667  38.983  21.673  1.00  0.00     0.002 C 
HETATM    4  C   LIG     1      17.048  37.976  22.651  1.00  0.00     0.000 C 
HETATM    5  C   LIG     1      16.496  36.755  21.906  1.00  0.00     0.002 C 
HETATM    6  C   LIG     1      17.583  36.095  21.049  1.00  0.00     0.032 C 
ENDROOT
BRANCH   1   7
HETATM    7  O   LIG     1      19.231  36.470  19.351  1.00  0.00    -0.396 OA
HETATM    8  H   LIG     1      19.966  37.133  19.266  1.00  0.00     0.210 HD
ENDBRANCH   1   7
TORSDOF 1
ENDMDL
MODEL 15
REMARK VINA RESULT:      -4.3     10.812     11.915
REMARK  1 active torsions:
REMARK  status: ('A' for Active; 'I' for Inactive)
REMARK    1  A    between atoms: O_1  and  C_2 
ROOT
HETATM    1  C   LIG     1      14.588  30.187  14.861  1.00  0.00     0.118 C 
HETATM    2  C   LIG     1      13.406  30.633  15.739  1.00  0.00     0.032 C 
HETATM    3  C   LIG     1      13.892  31.430  16.956  1.00  0.00     0.002 C 
HETATM    4  C   LIG     1      14.735  32.636  16.525  1.00  0.00     0.000 C 
HETATM    5  C   LIG     1      15.914  32.196  15.648  1.00  0.00     0.002 C 
HETATM    6  C   LIG     1      15.428  31.400  14.431  1.00  0.00     0.032 C 
ENDROOT
BRANCH   1   7
HETATM    7  O   LIG     1      14.112  29.530  13.716  1.00  0.00    -0.396 OA
HETATM    8  H   LIG     1      13.391  28.917  14.018  1.00  0.00     0.210 HD
ENDBRANCH   1   7
TORSDOF 1
ENDMDL
MODEL 16
REMARK VINA RESULT:      -4.2     10.408     11.427
REMARK  1 active torsions:
REMARK  status: ('A' for Active; 'I' for Inactive)
REMARK    1  A    between atoms: O_1  and  C_2 
ROOT
HETATM    1  C   LIG     1      15.381  31.647  14.526  1.00  0.00     0.118 C 
HETATM    2  C   LIG     1      15.868  32.374  15.792  1.00  0.00     0.032 C 
HETATM    3  C   LIG     1      14.696  32.703  16.725  1.00  0.00     0.002 C 
HETATM    4  C   LIG     1      13.911  31.438  17.092  1.00  0.00     0.000 C 
HETATM    5  C   LIG     1      13.425  30.708  15.834  1.00  0.00     0.002 C 
HETATM    6  C   LIG     1      14.597  30.379  14.901  1.00  0.00     0.032 C 
ENDROOT
BRANCH   1   7
HETATM    7  O   LIG     1      16.479  31.288  13.729  1.00  0.00    -0.396 OA
HETATM    8  H   LIG     1      17.124  32.040  13.776  1.00  0.00     0.210 HD
ENDBRANCH   1   7
TORSDOF 1
ENDMDL
MODEL 17
REMARK VINA RESULT:      -4.2      2.148      2.853
REMARK  1 active torsions:
REMARK  status: ('A' for Active; 'I' for Inactive)
REMARK    1  A    between atoms: O_1  and  C_2 
ROOT
HETATM    1  C   LIG     1      17.146  37.983  22.041  1.00  0.00     0.118 C 
HETATM    2  C   LIG     1      17.642  38.081  23.494  1.00  0.00     0.032 C 
HETATM    3  C   LIG     1      16.961  37.032  24.382  1.00  0.00     0.002 C 
HETATM    4  C   LIG     1      17.177  35.618  23.828  1.00  0.00     0.000 C 
HETATM    5  C   LIG     1      16.686  35.516  22.379  1.00  0.00     0.002 C 
HETATM    6  C   LIG     1      17.367  36.565  21.491  1.00  0.00     0.032 C 
ENDROOT
BRANCH   1   7
HETATM    7  O   LIG     1      17.841  38.899  21.236  1.00  0.00    -0.396 OA
HETATM    8  H   LIG     1      18.398  39.450  21.846  1.00  0.00     0.210 HD
ENDBRANCH   1   7
TORSDOF 1
ENDMDL
MODEL 18
REMARK VINA RESULT:      -4.1      2.365      3.467
REMARK  1 active torsions:
REMARK  status: ('A' for Active; 'I' for Inactive)
REMARK    1  A    between atoms: O_1  and  C_2 
ROOT
HETATM    1  C   LIG     1      16.577  36.473  22.203  1.00  0.00     0.118 C 
HETATM    2  C   LIG     1      17.376  37.726  21.803  1.00  0.00     0.032 C 
HETATM    3  C   LIG     1      17.350  38.777  22.919  1.00  0.00     0.002 C 
HETATM    4  C   LIG     1      17.876  38.194  24.237  1.00  0.00     0.000 C 
HETATM    5  C   LIG     1      17.084  36.943  24.639  1.00  0.00     0.002 C 
HETATM    6  C   LIG     1      17.110  35.893  23.522  1.00  0.00     0.032 C 
ENDROOT
BRANCH   1   7
HETATM    7  O   LIG     1      16.682  35.499  21.198  1.00  0.00    -0.396 OA
HETATM    8  H   LIG     1      16.841  35.983  20.346  1.00  0.00     0.210 HD
ENDBRANCH   1   7
TORSDOF 1
ENDMDL
MODEL 19
REMARK VINA RESULT:      -4.1     10.860     12.075
REMARK  1 active torsions:
REMARK  status: ('A' for Active; 'I' for Inactive)
REMARK    1  A    between atoms: O_1  and  C_2 
ROOT
HETATM    1  C   LIG     1      13.809  30.320  14.596  1.00  0.00     0.118 C 
HETATM    2  C   LIG     1      15.307  30.666  14.678  1.00  0.00     0.032 C 
HETATM    3  C   LIG     1      15.522  32.037  15.329  1.00  0.00     0.002 C 
HETATM    4  C   LIG     1      14.873  32.096  16.718  1.00  0.00     0.000 C 
HETATM    5  C   LIG     1      13.381  31.751  16.641  1.00  0.00     0.002 C 
HETATM    6  C   LIG     1      13.166  30.379  15.990  1.00  0.00     0.032 C 
ENDROOT
BRANCH   1   7
HETATM    7  O   LIG     1      13.645  29.030  14.069  1.00  0.00    -0.396 OA
HETATM    8  H   LIG     1      14.490  28.539  14.246  1.00  0.00     0.210 HD
ENDBRANCH   1   7
TORSDOF 1
ENDMDL
MODEL 20
REMARK VINA RESULT:      -3.8      2.838      3.972
REMARK  1 active torsions:
REMARK  status: ('A' for Active; 'I' for Inactive)
REMARK    1  A    between atoms: O_1  and  C_2 
ROOT
HETATM    1  C   LIG     1      18.290  38.182  21.486  1.00  0.00     0.118 C 
HETATM    2  C   LIG     1      17.332  37.002  21.248  1.00  0.00     0.032 C 
HETATM    3  C   LIG     1      17.185  36.146  22.512  1.00  0.00     0.002 C 
HETATM    4  C   LIG     1      16.717  36.995  23.701  1.00  0.00     0.000 C 
HETATM    5  C   LIG     1      17.668  38.174  23.941  1.00  0.00     0.002 C 
HETATM    6  C   LIG     1      17.814  39.030  22.677  1.00  0.00     0.032 C 
ENDROOT
BRANCH   1   7
HETATM    7  O   LIG     1      18.345  38.992  20.341  1.00  0.00    -0.396 OA
HETATM    8  H   LIG     1      18.250  39.930  20.650  1.00  0.00     0.210 HD
ENDBRANCH   1   7
TORSDOF 1
ENDMDL
