REMARK  2 active torsions:
REMARK  status: ('A' for Active; 'I' for Inactive)
REMARK    1  A    between atoms: C_2  and  O_3 
REMARK    2  A    between atoms: O_3  and  C_4 
ROOT
HETATM    1  O   LIG     1       0.407   0.387  -0.150  1.00  0.00    -0.317 OA
ENDROOT
BRANCH   1   2
HETATM    2  C   LIG     1       1.522  -0.160   0.495  1.00  0.00     0.255 C 
HETATM    3  C   LIG     1       2.883   0.099  -0.057  1.00  0.00     0.126 C 
HETATM    4  O   LIG     1       1.389  -0.859   1.536  1.00  0.00    -0.266 OA
ENDBRANCH   1   2
BRANCH   1   5
HETATM    5  C   LIG     1      -0.938   0.160   0.271  1.00  0.00     0.123 C 
HETATM    6  C   LIG     1      -1.389  -1.247  -0.132  1.00  0.00     0.040 C 
HETATM    7  C   LIG     1      -1.841   1.213  -0.369  1.00  0.00     0.040 C 
ENDBRANCH   1   5
TORSDOF 2
