MODEL 1
REMARK VINA RESULT:      -5.8      0.000      0.000
REMARK  0 active torsions:
REMARK  status: ('A' for Active; 'I' for Inactive)
ROOT
HETATM    1  C   LIG     1      17.311  38.270  23.675  1.00  0.00     0.010 C 
HETATM    2  C   LIG     1      17.244  37.233  24.800  1.00  0.00    -0.018 C 
HETATM    3  C   LIG     1      18.459  37.374  25.739  1.00  0.00     0.004 C 
HETATM    4  C   LIG     1      18.418  36.321  26.853  1.00  0.00     0.000 C 
HETATM    5  C   LIG     1      18.344  34.904  26.270  1.00  0.00     0.000 C 
HETATM    6  C   LIG     1      17.136  34.758  25.336  1.00  0.00     0.000 C 
HETATM    7  C   LIG     1      17.173  35.807  24.219  1.00  0.00     0.004 C 
ENDROOT
TORSDOF 0
ENDMDL
MODEL 2
REMARK VINA RESULT:      -5.3      3.849      5.081
REMARK  0 active torsions:
REMARK  status: ('A' for Active; 'I' for Inactive)
ROOT
HETATM    1  C   LIG     1      20.333  38.853  19.440  1.00  0.00     0.010 C 
HETATM    2  C   LIG     1      18.966  38.382  19.945  1.00  0.00    -0.018 C 
HETATM    3  C   LIG     1      18.719  38.880  21.383  1.00  0.00     0.004 C 
HETATM    4  C   LIG     1      17.364  38.390  21.910  1.00  0.00     0.000 C 
HETATM    5  C   LIG     1      17.266  36.862  21.840  1.00  0.00     0.000 C 
HETATM    6  C   LIG     1      17.509  36.361  20.412  1.00  0.00     0.000 C 
HETATM    7  C   LIG     1      18.863  36.846  19.880  1.00  0.00     0.004 C 
ENDROOT
TORSDOF 0
ENDMDL
MODEL 3
REMARK VINA RESULT:      -5.3      0.915      3.456
REMARK  0 active torsions:
REMARK  status: ('A' for Active; 'I' for Inactive)
ROOT
HETATM    1  C   LIG     1      18.232  34.795  26.276  1.00  0.00     0.010 C 
HETATM    2  C   LIG     1      17.456  35.822  25.446  1.00  0.00    -0.018 C 
HETATM    3  C   LIG     1      17.344  35.359  23.980  1.00  0.00     0.004 C 
HETATM    4  C   LIG     1      16.594  36.394  23.132  1.00  0.00     0.000 C 
HETATM    5  C   LIG     1      17.267  37.769  23.217  1.00  0.00     0.000 C 
HETATM    6  C   LIG     1      17.380  38.235  24.674  1.00  0.00     0.000 C 
HETATM    7  C   LIG     1      18.132  37.205  25.526  1.00  0.00     0.004 C 
ENDROOT
TORSDOF 0
ENDMDL
MODEL 4
REMARK VINA RESULT:      -5.3      4.229      5.493
REMARK  0 active torsions:
REMARK  status: ('A' for Active; 'I' for Inactive)
ROOT
HETATM    1  C   LIG     1      16.821  35.676  20.949  1.00  0.00     0.010 C 
HETATM    2  C   LIG     1      17.964  36.694  21.006  1.00  0.00    -0.018 C 
HETATM    3  C   LIG     1      17.491  38.004  21.667  1.00  0.00     0.004 C 
HETATM    4  C   LIG     1      18.620  39.042  21.703  1.00  0.00     0.000 C 
HETATM    5  C   LIG     1      19.166  39.311  20.295  1.00  0.00     0.000 C 
HETATM    6  C   LIG     1      19.640  38.011  19.633  1.00  0.00     0.000 C 
HETATM    7  C   LIG     1      18.514  36.970  19.592  1.00  0.00     0.004 C 
ENDROOT
TORSDOF 0
ENDMDL
MODEL 5
REMARK VINA RESULT:      -5.2      0.726      2.018
REMARK  0 active torsions:
REMARK  status: ('A' for Active; 'I' for Inactive)
ROOT
HETATM    1  C   LIG     1      16.735  38.316  23.242  1.00  0.00     0.010 C 
HETATM    2  C   LIG     1      17.507  37.291  24.077  1.00  0.00    -0.018 C 
HETATM    3  C   LIG     1      16.859  35.898  23.961  1.00  0.00     0.004 C 
HETATM    4  C   LIG     1      17.607  34.869  24.817  1.00  0.00     0.000 C 
HETATM    5  C   LIG     1      17.674  35.316  26.283  1.00  0.00     0.000 C 
HETATM    6  C   LIG     1      18.320  36.701  26.405  1.00  0.00     0.000 C 
HETATM    7  C   LIG     1      17.574  37.735  25.552  1.00  0.00     0.004 C 
ENDROOT
TORSDOF 0
ENDMDL
MODEL 6
REMARK VINA RESULT:      -5.2      0.926      2.873
REMARK  0 active torsions:
REMARK  status: ('A' for Active; 'I' for Inactive)
ROOT
HETATM    1  C   LIG     1      18.252  36.208  26.919  1.00  0.00     0.010 C 
HETATM    2  C   LIG     1      18.093  36.478  25.420  1.00  0.00    -0.018 C 
HETATM    3  C   LIG     1      17.418  37.843  25.184  1.00  0.00     0.004 C 
HETATM    4  C   LIG     1      17.226  38.111  23.686  1.00  0.00     0.000 C 
HETATM    5  C   LIG     1      16.422  36.986  23.024  1.00  0.00     0.000 C 
HETATM    6  C   LIG     1      17.090  35.625  23.254  1.00  0.00     0.000 C 
HETATM    7  C   LIG     1      17.282  35.351  24.750  1.00  0.00     0.004 C 
ENDROOT
TORSDOF 0
ENDMDL
MODEL 7
REMARK VINA RESULT:      -4.9      3.253      4.693
REMARK  0 active torsions:
REMARK  status: ('A' for Active; 'I' for Inactive)
ROOT
HETATM    1  C   LIG     1      18.818  37.095  19.174  1.00  0.00     0.010 C 
HETATM    2  C   LIG     1      18.396  37.060  20.646  1.00  0.00    -0.018 C 
HETATM    3  C   LIG     1      17.210  36.095  20.846  1.00  0.00     0.004 C 
HETATM    4  C   LIG     1      16.759  36.074  22.312  1.00  0.00     0.000 C 
HETATM    5  C   LIG     1      16.402  37.483  22.799  1.00  0.00     0.000 C 
HETATM    6  C   LIG     1      17.578  38.447  22.604  1.00  0.00     0.000 C 
HETATM    7  C   LIG     1      18.032  38.474  21.139  1.00  0.00     0.004 C 
ENDROOT
TORSDOF 0
ENDMDL
MODEL 8
REMARK VINA RESULT:      -4.6     10.515     11.793
REMARK  0 active torsions:
REMARK  status: ('A' for Active; 'I' for Inactive)
ROOT
HETATM    1  C   LIG     1      16.828  32.877  14.959  1.00  0.00     0.010 C 
HETATM    2  C   LIG     1      15.909  31.712  15.338  1.00  0.00    -0.018 C 
HETATM    3  C   LIG     1      15.343  31.036  14.073  1.00  0.00     0.004 C 
HETATM    4  C   LIG     1      14.397  29.886  14.441  1.00  0.00     0.000 C 
HETATM    5  C   LIG     1      13.263  30.373  15.351  1.00  0.00     0.000 C 
HETATM    6  C   LIG     1      13.821  31.045  16.611  1.00  0.00     0.000 C 
HETATM    7  C   LIG     1      14.766  32.198  16.250  1.00  0.00     0.004 C 
ENDROOT
TORSDOF 0
ENDMDL
MODEL 9
REMARK VINA RESULT:      -4.6     10.150     11.582
REMARK  0 active torsions:
REMARK  status: ('A' for Active; 'I' for Inactive)
ROOT
HETATM    1  C   LIG     1      15.022  32.945  17.519  1.00  0.00     0.010 C 
HETATM    2  C   LIG     1      14.584  32.241  16.230  1.00  0.00    -0.018 C 
HETATM    3  C   LIG     1      13.722  31.005  16.554  1.00  0.00     0.004 C 
HETATM    4  C   LIG     1      13.302  30.275  15.272  1.00  0.00     0.000 C 
HETATM    5  C   LIG     1      14.526  29.880  14.437  1.00  0.00     0.000 C 
HETATM    6  C   LIG     1      15.386  31.107  14.110  1.00  0.00     0.000 C 
HETATM    7  C   LIG     1      15.811  31.839  15.389  1.00  0.00     0.004 C 
ENDROOT
TORSDOF 0
ENDMDL
MODEL 10
REMARK VINA RESULT:      -4.5      9.966     11.244
REMARK  0 active torsions:
REMARK  status: ('A' for Active; 'I' for Inactive)
ROOT
HETATM    1  C   LIG     1      16.940  32.407  15.266  1.00  0.00     0.010 C 
HETATM    2  C   LIG     1      15.440  32.109  15.346  1.00  0.00    -0.018 C 
HETATM    3  C   LIG     1      14.920  32.327  16.781  1.00  0.00     0.004 C 
HETATM    4  C   LIG     1      13.424  32.002  16.880  1.00  0.00     0.000 C 
HETATM    5  C   LIG     1      13.139  30.571  16.410  1.00  0.00     0.000 C 
HETATM    6  C   LIG     1      13.652  30.349  14.982  1.00  0.00     0.000 C 
HETATM    7  C   LIG     1      15.148  30.669  14.878  1.00  0.00     0.004 C 
ENDROOT
TORSDOF 0
ENDMDL
MODEL 11
REMARK VINA RESULT:      -4.4     10.233     11.672
REMARK  0 active torsions:
REMARK  status: ('A' for Active; 'I' for Inactive)
ROOT
HETATM    1  C   LIG     1      13.509  29.233  14.394  1.00  0.00     0.010 C 
HETATM    2  C   LIG     1      13.821  30.624  14.953  1.00  0.00    -0.018 C 
HETATM    3  C   LIG     1      15.324  30.939  14.812  1.00  0.00     0.004 C 
HETATM    4  C   LIG     1      15.654  32.319  15.395  1.00  0.00     0.000 C 
HETATM    5  C   LIG     1      15.214  32.418  16.861  1.00  0.00     0.000 C 
HETATM    6  C   LIG     1      13.719  32.107  17.007  1.00  0.00     0.000 C 
HETATM    7  C   LIG     1      13.384  30.727  16.427  1.00  0.00     0.004 C 
ENDROOT
TORSDOF 0
ENDMDL
MODEL 12
REMARK VINA RESULT:      -4.4      2.580      3.952
REMARK  0 active torsions:
REMARK  status: ('A' for Active; 'I' for Inactive)
ROOT
HETATM    1  C   LIG     1      17.375  38.581  24.000  1.00  0.00     0.010 C 
HETATM    2  C   LIG     1      17.712  37.480  22.990  1.00  0.00    -0.018 C 
HETATM    3  C   LIG     1      17.718  38.045  21.556  1.00  0.00     0.004 C 
HETATM    4  C   LIG     1      18.025  36.945  20.532  1.00  0.00     0.000 C 
HETATM    5  C   LIG     1      17.031  35.785  20.654  1.00  0.00     0.000 C 
HETATM    6  C   LIG     1      17.022  35.217  22.079  1.00  0.00     0.000 C 
HETATM    7  C   LIG     1      16.713  36.312  23.107  1.00  0.00     0.004 C 
ENDROOT
TORSDOF 0
ENDMDL
MODEL 13
REMARK VINA RESULT:      -3.8     11.768     12.496
REMARK  0 active torsions:
REMARK  status: ('A' for Active; 'I' for Inactive)
ROOT
HETATM    1  C   LIG     1      26.588  38.037  18.045  1.00  0.00     0.010 C 
HETATM    2  C   LIG     1      27.906  38.423  18.724  1.00  0.00    -0.018 C 
HETATM    3  C   LIG     1      28.231  37.444  19.870  1.00  0.00     0.004 C 
HETATM    4  C   LIG     1      29.534  37.837  20.577  1.00  0.00     0.000 C 
HETATM    5  C   LIG     1      29.467  39.279  21.095  1.00  0.00     0.000 C 
HETATM    6  C   LIG     1      29.146  40.257  19.959  1.00  0.00     0.000 C 
HETATM    7  C   LIG     1      27.842  39.870  19.250  1.00  0.00     0.004 C 
ENDROOT
TORSDOF 0
ENDMDL
MODEL 14
REMARK VINA RESULT:      -3.5     12.899     14.136
REMARK  0 active torsions:
REMARK  status: ('A' for Active; 'I' for Inactive)
ROOT
HETATM    1  C   LIG     1      18.124  33.757  13.679  1.00  0.00     0.010 C 
HETATM    2  C   LIG     1      18.893  33.739  12.354  1.00  0.00    -0.018 C 
HETATM    3  C   LIG     1      20.394  33.992  12.596  1.00  0.00     0.004 C 
HETATM    4  C   LIG     1      21.171  34.005  11.273  1.00  0.00     0.000 C 
HETATM    5  C   LIG     1      20.593  35.046  10.306  1.00  0.00     0.000 C 
HETATM    6  C   LIG     1      19.100  34.798  10.060  1.00  0.00     0.000 C 
HETATM    7  C   LIG     1      18.319  34.786  11.380  1.00  0.00     0.004 C 
ENDROOT
TORSDOF 0
ENDMDL
MODEL 15
REMARK VINA RESULT:      -3.4     12.442     13.167
REMARK  0 active torsions:
REMARK  status: ('A' for Active; 'I' for Inactive)
ROOT
HETATM    1  C   LIG     1      27.279  38.109  18.246  1.00  0.00     0.010 C 
HETATM    2  C   LIG     1      28.099  38.942  19.236  1.00  0.00    -0.018 C 
HETATM    3  C   LIG     1      29.137  39.803  18.490  1.00  0.00     0.004 C 
HETATM    4  C   LIG     1      29.984  40.620  19.473  1.00  0.00     0.000 C 
HETATM    5  C   LIG     1      30.669  39.709  20.499  1.00  0.00     0.000 C 
HETATM    6  C   LIG     1      29.641  38.852  21.246  1.00  0.00     0.000 C 
HETATM    7  C   LIG     1      28.793  38.030  20.267  1.00  0.00     0.004 C 
ENDROOT
TORSDOF 0
ENDMDL
MODEL 16
REMARK VINA RESULT:      -3.4     12.968     13.607
REMARK  0 active torsions:
REMARK  status: ('A' for Active; 'I' for Inactive)
ROOT
HETATM    1  C   LIG     1      30.049  38.539  16.675  1.00  0.00     0.010 C 
HETATM    2  C   LIG     1      29.555  39.260  17.933  1.00  0.00    -0.018 C 
HETATM    3  C   LIG     1      30.658  39.287  19.010  1.00  0.00     0.004 C 
HETATM    4  C   LIG     1      30.165  39.981  20.286  1.00  0.00     0.000 C 
HETATM    5  C   LIG     1      28.897  39.308  20.824  1.00  0.00     0.000 C 
HETATM    6  C   LIG     1      27.796  39.279  19.758  1.00  0.00     0.000 C 
HETATM    7  C   LIG     1      28.282  38.584  18.480  1.00  0.00     0.004 C 
ENDROOT
TORSDOF 0
ENDMDL
MODEL 17
REMARK VINA RESULT:      -3.4     12.857     14.134
REMARK  0 active torsions:
REMARK  status: ('A' for Active; 'I' for Inactive)
ROOT
HETATM    1  C   LIG     1      17.835  33.457  13.062  1.00  0.00     0.010 C 
HETATM    2  C   LIG     1      18.930  34.323  12.432  1.00  0.00    -0.018 C 
HETATM    3  C   LIG     1      18.759  34.382  10.901  1.00  0.00     0.004 C 
HETATM    4  C   LIG     1      19.868  35.223  10.255  1.00  0.00     0.000 C 
HETATM    5  C   LIG     1      21.254  34.684  10.627  1.00  0.00     0.000 C 
HETATM    6  C   LIG     1      21.431  34.625  12.149  1.00  0.00     0.000 C 
HETATM    7  C   LIG     1      20.326  33.783  12.800  1.00  0.00     0.004 C 
ENDROOT
TORSDOF 0
ENDMDL
MODEL 18
REMARK VINA RESULT:      -3.4     15.816     17.276
REMARK  0 active torsions:
REMARK  status: ('A' for Active; 'I' for Inactive)
ROOT
HETATM    1  C   LIG     1      22.389  23.455  37.301  1.00  0.00     0.010 C 
HETATM    2  C   LIG     1      21.404  23.478  36.128  1.00  0.00    -0.018 C 
HETATM    3  C   LIG     1      20.461  22.261  36.189  1.00  0.00     0.004 C 
HETATM    4  C   LIG     1      19.489  22.257  35.002  1.00  0.00     0.000 C 
HETATM    5  C   LIG     1      20.246  22.292  33.669  1.00  0.00     0.000 C 
HETATM    6  C   LIG     1      21.185  23.503  33.603  1.00  0.00     0.000 C 
HETATM    7  C   LIG     1      22.161  23.510  34.786  1.00  0.00     0.004 C 
ENDROOT
TORSDOF 0
ENDMDL
MODEL 19
REMARK VINA RESULT:      -3.3     12.852     13.424
REMARK  0 active torsions:
REMARK  status: ('A' for Active; 'I' for Inactive)
ROOT
HETATM    1  C   LIG     1      30.088  41.450  18.337  1.00  0.00     0.010 C 
HETATM    2  C   LIG     1      29.471  40.448  19.318  1.00  0.00    -0.018 C 
HETATM    3  C   LIG     1      30.410  40.217  20.518  1.00  0.00     0.004 C 
HETATM    4  C   LIG     1      29.815  39.193  21.493  1.00  0.00     0.000 C 
HETATM    5  C   LIG     1      29.506  37.870  20.782  1.00  0.00     0.000 C 
HETATM    6  C   LIG     1      28.570  38.094  19.587  1.00  0.00     0.000 C 
HETATM    7  C   LIG     1      29.161  39.115  18.608  1.00  0.00     0.004 C 
ENDROOT
TORSDOF 0
ENDMDL
MODEL 20
REMARK VINA RESULT:      -3.2     14.486     16.105
REMARK  0 active torsions:
REMARK  status: ('A' for Active; 'I' for Inactive)
ROOT
HETATM    1  C   LIG     1      29.920  32.142  37.380  1.00  0.00     0.010 C 
HETATM    2  C   LIG     1      28.582  31.440  37.131  1.00  0.00    -0.018 C 
HETATM    3  C   LIG     1      28.295  31.341  35.619  1.00  0.00     0.004 C 
HETATM    4  C   LIG     1      26.943  30.666  35.359  1.00  0.00     0.000 C 
HETATM    5  C   LIG     1      25.810  31.405  36.079  1.00  0.00     0.000 C 
HETATM    6  C   LIG     1      26.089  31.506  37.584  1.00  0.00     0.000 C 
HETATM    7  C   LIG     1      27.439  32.182  37.850  1.00  0.00     0.004 C 
ENDROOT
TORSDOF 0
ENDMDL
