MODEL 1
REMARK VINA RESULT:      -5.6      0.000      0.000
REMARK  0 active torsions:
REMARK  status: ('A' for Active; 'I' for Inactive)
ROOT
HETATM    1  C   LIG     1      16.412  36.289  21.849  1.00  0.00     0.070 C 
HETATM    2  C   LIG     1      16.879  36.652  23.223  1.00  0.00     0.031 A 
HETATM    3  N   LIG     1      17.219  35.662  24.094  1.00  0.00    -0.259 NA
HETATM    4  C   LIG     1      17.651  35.926  25.358  1.00  0.00     0.031 A 
HETATM    5  C   LIG     1      18.011  34.801  26.274  1.00  0.00     0.070 C 
HETATM    6  C   LIG     1      17.755  37.254  25.792  1.00  0.00     0.027 A 
HETATM    7  C   LIG     1      17.412  38.288  24.919  1.00  0.00     0.004 A 
HETATM    8  C   LIG     1      16.972  37.992  23.628  1.00  0.00     0.027 A 
ENDROOT
TORSDOF 0
ENDMDL
MODEL 2
REMARK VINA RESULT:      -5.6      1.218      3.655
REMARK  0 active torsions:
REMARK  status: ('A' for Active; 'I' for Inactive)
ROOT
HETATM    1  C   LIG     1      18.075  36.226  26.681  1.00  0.00     0.070 C 
HETATM    2  C   LIG     1      17.613  36.245  25.257  1.00  0.00     0.031 A 
HETATM    3  N   LIG     1      17.445  37.441  24.628  1.00  0.00    -0.259 NA
HETATM    4  C   LIG     1      17.027  37.527  23.336  1.00  0.00     0.031 A 
HETATM    5  C   LIG     1      16.858  38.866  22.693  1.00  0.00     0.070 C 
HETATM    6  C   LIG     1      16.756  36.356  22.616  1.00  0.00     0.027 A 
HETATM    7  C   LIG     1      16.920  35.117  23.237  1.00  0.00     0.004 A 
HETATM    8  C   LIG     1      17.349  35.055  24.564  1.00  0.00     0.027 A 
ENDROOT
TORSDOF 0
ENDMDL
MODEL 3
REMARK VINA RESULT:      -5.6      0.034      2.995
REMARK  0 active torsions:
REMARK  status: ('A' for Active; 'I' for Inactive)
ROOT
HETATM    1  C   LIG     1      17.969  34.815  26.274  1.00  0.00     0.070 C 
HETATM    2  C   LIG     1      17.631  35.947  25.355  1.00  0.00     0.031 A 
HETATM    3  N   LIG     1      17.212  35.673  24.088  1.00  0.00    -0.259 NA
HETATM    4  C   LIG     1      16.890  36.656  23.204  1.00  0.00     0.031 A 
HETATM    5  C   LIG     1      16.436  36.301  21.825  1.00  0.00     0.070 C 
HETATM    6  C   LIG     1      16.988  37.998  23.593  1.00  0.00     0.027 A 
HETATM    7  C   LIG     1      17.414  38.307  24.886  1.00  0.00     0.004 A 
HETATM    8  C   LIG     1      17.740  37.281  25.775  1.00  0.00     0.027 A 
ENDROOT
TORSDOF 0
ENDMDL
MODEL 4
REMARK VINA RESULT:      -5.3      3.090      4.283
REMARK  0 active torsions:
REMARK  status: ('A' for Active; 'I' for Inactive)
ROOT
HETATM    1  C   LIG     1      16.810  35.318  21.252  1.00  0.00     0.070 C 
HETATM    2  C   LIG     1      17.322  36.719  21.379  1.00  0.00     0.031 A 
HETATM    3  N   LIG     1      18.272  37.161  20.510  1.00  0.00    -0.259 NA
HETATM    4  C   LIG     1      18.778  38.423  20.571  1.00  0.00     0.031 A 
HETATM    5  C   LIG     1      19.821  38.858  19.592  1.00  0.00     0.070 C 
HETATM    6  C   LIG     1      18.318  39.308  21.555  1.00  0.00     0.027 A 
HETATM    7  C   LIG     1      17.344  38.879  22.459  1.00  0.00     0.004 A 
HETATM    8  C   LIG     1      16.840  37.580  22.375  1.00  0.00     0.027 A 
ENDROOT
TORSDOF 0
ENDMDL
MODEL 5
REMARK VINA RESULT:      -5.3      3.088      3.943
REMARK  0 active torsions:
REMARK  status: ('A' for Active; 'I' for Inactive)
ROOT
HETATM    1  C   LIG     1      19.833  38.908  19.638  1.00  0.00     0.070 C 
HETATM    2  C   LIG     1      18.784  38.469  20.611  1.00  0.00     0.031 A 
HETATM    3  N   LIG     1      18.261  37.216  20.507  1.00  0.00    -0.259 NA
HETATM    4  C   LIG     1      17.305  36.757  21.360  1.00  0.00     0.031 A 
HETATM    5  C   LIG     1      16.765  35.372  21.201  1.00  0.00     0.070 C 
HETATM    6  C   LIG     1      16.832  37.589  22.383  1.00  0.00     0.027 A 
HETATM    7  C   LIG     1      17.350  38.879  22.512  1.00  0.00     0.004 A 
HETATM    8  C   LIG     1      18.331  39.327  21.624  1.00  0.00     0.027 A 
ENDROOT
TORSDOF 0
ENDMDL
MODEL 6
REMARK VINA RESULT:      -5.3      3.242      5.107
REMARK  0 active torsions:
REMARK  status: ('A' for Active; 'I' for Inactive)
ROOT
HETATM    1  C   LIG     1      17.085  38.886  23.065  1.00  0.00     0.070 C 
HETATM    2  C   LIG     1      17.672  38.176  21.886  1.00  0.00     0.031 A 
HETATM    3  N   LIG     1      18.651  38.785  21.161  1.00  0.00    -0.259 NA
HETATM    4  C   LIG     1      19.225  38.193  20.078  1.00  0.00     0.031 A 
HETATM    5  C   LIG     1      20.296  38.907  19.318  1.00  0.00     0.070 C 
HETATM    6  C   LIG     1      18.805  36.917  19.682  1.00  0.00     0.027 A 
HETATM    7  C   LIG     1      17.803  36.270  20.407  1.00  0.00     0.004 A 
HETATM    8  C   LIG     1      17.229  36.898  21.514  1.00  0.00     0.027 A 
ENDROOT
TORSDOF 0
ENDMDL
MODEL 7
REMARK VINA RESULT:      -5.2      1.688      3.349
REMARK  0 active torsions:
REMARK  status: ('A' for Active; 'I' for Inactive)
ROOT
HETATM    1  C   LIG     1      17.317  38.151  25.256  1.00  0.00     0.070 C 
HETATM    2  C   LIG     1      17.391  37.800  23.803  1.00  0.00     0.031 A 
HETATM    3  N   LIG     1      16.943  36.583  23.388  1.00  0.00    -0.259 NA
HETATM    4  C   LIG     1      16.982  36.204  22.081  1.00  0.00     0.031 A 
HETATM    5  C   LIG     1      16.477  34.855  21.680  1.00  0.00     0.070 C 
HETATM    6  C   LIG     1      17.498  37.082  21.119  1.00  0.00     0.027 A 
HETATM    7  C   LIG     1      17.964  38.336  21.518  1.00  0.00     0.004 A 
HETATM    8  C   LIG     1      17.914  38.702  22.864  1.00  0.00     0.027 A 
ENDROOT
TORSDOF 0
ENDMDL
MODEL 8
REMARK VINA RESULT:      -5.1      1.644      2.544
REMARK  0 active torsions:
REMARK  status: ('A' for Active; 'I' for Inactive)
ROOT
HETATM    1  C   LIG     1      16.529  34.936  21.503  1.00  0.00     0.070 C 
HETATM    2  C   LIG     1      17.025  36.262  21.989  1.00  0.00     0.031 A 
HETATM    3  N   LIG     1      16.941  36.559  23.315  1.00  0.00    -0.259 NA
HETATM    4  C   LIG     1      17.375  37.746  23.820  1.00  0.00     0.031 A 
HETATM    5  C   LIG     1      17.259  38.021  25.285  1.00  0.00     0.070 C 
HETATM    6  C   LIG     1      17.926  38.705  22.960  1.00  0.00     0.027 A 
HETATM    7  C   LIG     1      18.023  38.427  21.596  1.00  0.00     0.004 A 
HETATM    8  C   LIG     1      17.572  37.201  21.102  1.00  0.00     0.027 A 
ENDROOT
TORSDOF 0
ENDMDL
MODEL 9
REMARK VINA RESULT:      -4.9      1.121      2.335
REMARK  0 active torsions:
REMARK  status: ('A' for Active; 'I' for Inactive)
ROOT
HETATM    1  C   LIG     1      16.554  36.258  21.359  1.00  0.00     0.070 C 
HETATM    2  C   LIG     1      16.878  36.157  22.817  1.00  0.00     0.031 A 
HETATM    3  N   LIG     1      16.981  37.296  23.556  1.00  0.00    -0.259 NA
HETATM    4  C   LIG     1      17.273  37.273  24.886  1.00  0.00     0.031 A 
HETATM    5  C   LIG     1      17.373  38.553  25.651  1.00  0.00     0.070 C 
HETATM    6  C   LIG     1      17.478  36.046  25.529  1.00  0.00     0.027 A 
HETATM    7  C   LIG     1      17.380  34.863  24.794  1.00  0.00     0.004 A 
HETATM    8  C   LIG     1      17.079  34.912  23.432  1.00  0.00     0.027 A 
ENDROOT
TORSDOF 0
ENDMDL
MODEL 10
REMARK VINA RESULT:      -4.8      3.203      4.093
REMARK  0 active torsions:
REMARK  status: ('A' for Active; 'I' for Inactive)
ROOT
HETATM    1  C   LIG     1      16.594  34.867  20.902  1.00  0.00     0.070 C 
HETATM    2  C   LIG     1      17.269  36.202  20.927  1.00  0.00     0.031 A 
HETATM    3  N   LIG     1      16.895  37.121  21.860  1.00  0.00    -0.259 NA
HETATM    4  C   LIG     1      17.470  38.352  21.935  1.00  0.00     0.031 A 
HETATM    5  C   LIG     1      17.021  39.323  22.980  1.00  0.00     0.070 C 
HETATM    6  C   LIG     1      18.480  38.702  21.030  1.00  0.00     0.027 A 
HETATM    7  C   LIG     1      18.883  37.780  20.063  1.00  0.00     0.004 A 
HETATM    8  C   LIG     1      18.278  36.523  20.006  1.00  0.00     0.027 A 
ENDROOT
TORSDOF 0
ENDMDL
MODEL 11
REMARK VINA RESULT:      -4.8      1.406      2.959
REMARK  0 active torsions:
REMARK  status: ('A' for Active; 'I' for Inactive)
ROOT
HETATM    1  C   LIG     1      17.167  39.285  22.908  1.00  0.00     0.070 C 
HETATM    2  C   LIG     1      17.129  37.822  23.218  1.00  0.00     0.031 A 
HETATM    3  N   LIG     1      16.828  36.939  22.226  1.00  0.00    -0.259 NA
HETATM    4  C   LIG     1      16.777  35.596  22.442  1.00  0.00     0.031 A 
HETATM    5  C   LIG     1      16.441  34.670  21.318  1.00  0.00     0.070 C 
HETATM    6  C   LIG     1      17.039  35.090  23.722  1.00  0.00     0.027 A 
HETATM    7  C   LIG     1      17.350  35.973  24.757  1.00  0.00     0.004 A 
HETATM    8  C   LIG     1      17.396  37.346  24.510  1.00  0.00     0.027 A 
ENDROOT
TORSDOF 0
ENDMDL
MODEL 12
REMARK VINA RESULT:      -4.7      9.445     10.797
REMARK  0 active torsions:
REMARK  status: ('A' for Active; 'I' for Inactive)
ROOT
HETATM    1  C   LIG     1      16.921  32.936  15.002  1.00  0.00     0.070 C 
HETATM    2  C   LIG     1      15.693  32.231  15.486  1.00  0.00     0.031 A 
HETATM    3  N   LIG     1      15.197  31.186  14.767  1.00  0.00    -0.259 NA
HETATM    4  C   LIG     1      14.085  30.504  15.153  1.00  0.00     0.031 A 
HETATM    5  C   LIG     1      13.583  29.364  14.326  1.00  0.00     0.070 C 
HETATM    6  C   LIG     1      13.415  30.876  16.326  1.00  0.00     0.027 A 
HETATM    7  C   LIG     1      13.901  31.944  17.082  1.00  0.00     0.004 A 
HETATM    8  C   LIG     1      15.045  32.629  16.665  1.00  0.00     0.027 A 
ENDROOT
TORSDOF 0
ENDMDL
MODEL 13
REMARK VINA RESULT:      -4.7      9.782     11.029
REMARK  0 active torsions:
REMARK  status: ('A' for Active; 'I' for Inactive)
ROOT
HETATM    1  C   LIG     1      14.959  29.142  13.789  1.00  0.00     0.070 C 
HETATM    2  C   LIG     1      15.131  30.383  14.607  1.00  0.00     0.031 A 
HETATM    3  N   LIG     1      16.201  31.192  14.372  1.00  0.00    -0.259 NA
HETATM    4  C   LIG     1      16.414  32.335  15.081  1.00  0.00     0.031 A 
HETATM    5  C   LIG     1      17.605  33.187  14.782  1.00  0.00     0.070 C 
HETATM    6  C   LIG     1      15.513  32.704  16.089  1.00  0.00     0.027 A 
HETATM    7  C   LIG     1      14.408  31.892  16.350  1.00  0.00     0.004 A 
HETATM    8  C   LIG     1      14.211  30.725  15.610  1.00  0.00     0.027 A 
ENDROOT
TORSDOF 0
ENDMDL
MODEL 14
REMARK VINA RESULT:      -4.6      9.047     11.097
REMARK  0 active torsions:
REMARK  status: ('A' for Active; 'I' for Inactive)
ROOT
HETATM    1  C   LIG     1      17.068  32.938  13.371  1.00  0.00     0.070 C 
HETATM    2  C   LIG     1      16.048  32.133  14.113  1.00  0.00     0.031 A 
HETATM    3  N   LIG     1      15.655  32.537  15.352  1.00  0.00    -0.259 NA
HETATM    4  C   LIG     1      14.731  31.849  16.079  1.00  0.00     0.031 A 
HETATM    5  C   LIG     1      14.335  32.337  17.436  1.00  0.00     0.070 C 
HETATM    6  C   LIG     1      14.158  30.686  15.549  1.00  0.00     0.027 A 
HETATM    7  C   LIG     1      14.544  30.250  14.280  1.00  0.00     0.004 A 
HETATM    8  C   LIG     1      15.493  30.972  13.554  1.00  0.00     0.027 A 
ENDROOT
TORSDOF 0
ENDMDL
MODEL 15
REMARK VINA RESULT:      -4.6      9.416     11.421
REMARK  0 active torsions:
REMARK  status: ('A' for Active; 'I' for Inactive)
ROOT
HETATM    1  C   LIG     1      13.916  31.818  17.412  1.00  0.00     0.070 C 
HETATM    2  C   LIG     1      14.465  31.478  16.062  1.00  0.00     0.031 A 
HETATM    3  N   LIG     1      15.430  32.269  15.517  1.00  0.00    -0.259 NA
HETATM    4  C   LIG     1      15.970  32.014  14.294  1.00  0.00     0.031 A 
HETATM    5  C   LIG     1      17.028  32.915  13.742  1.00  0.00     0.070 C 
HETATM    6  C   LIG     1      15.527  30.907  13.558  1.00  0.00     0.027 A 
HETATM    7  C   LIG     1      14.538  30.081  14.092  1.00  0.00     0.004 A 
HETATM    8  C   LIG     1      14.000  30.363  15.350  1.00  0.00     0.027 A 
ENDROOT
TORSDOF 0
ENDMDL
MODEL 16
REMARK VINA RESULT:      -4.6      7.098      9.668
REMARK  0 active torsions:
REMARK  status: ('A' for Active; 'I' for Inactive)
ROOT
HETATM    1  C   LIG     1      15.215  32.763  19.449  1.00  0.00     0.070 C 
HETATM    2  C   LIG     1      15.049  32.318  18.029  1.00  0.00     0.031 A 
HETATM    3  N   LIG     1      15.943  32.738  17.092  1.00  0.00    -0.259 NA
HETATM    4  C   LIG     1      15.847  32.370  15.785  1.00  0.00     0.031 A 
HETATM    5  C   LIG     1      16.856  32.859  14.795  1.00  0.00     0.070 C 
HETATM    6  C   LIG     1      14.801  31.534  15.374  1.00  0.00     0.027 A 
HETATM    7  C   LIG     1      13.871  31.089  16.315  1.00  0.00     0.004 A 
HETATM    8  C   LIG     1      13.989  31.481  17.650  1.00  0.00     0.027 A 
ENDROOT
TORSDOF 0
ENDMDL
MODEL 17
REMARK VINA RESULT:      -4.4      8.725     10.951
REMARK  0 active torsions:
REMARK  status: ('A' for Active; 'I' for Inactive)
ROOT
HETATM    1  C   LIG     1      13.407  29.350  14.450  1.00  0.00     0.070 C 
HETATM    2  C   LIG     1      14.341  30.483  14.736  1.00  0.00     0.031 A 
HETATM    3  N   LIG     1      14.258  31.127  15.933  1.00  0.00    -0.259 NA
HETATM    4  C   LIG     1      15.078  32.165  16.255  1.00  0.00     0.031 A 
HETATM    5  C   LIG     1      14.945  32.838  17.584  1.00  0.00     0.070 C 
HETATM    6  C   LIG     1      16.043  32.597  15.336  1.00  0.00     0.027 A 
HETATM    7  C   LIG     1      16.149  31.955  14.102  1.00  0.00     0.004 A 
HETATM    8  C   LIG     1      15.296  30.892  13.794  1.00  0.00     0.027 A 
ENDROOT
TORSDOF 0
ENDMDL
MODEL 18
REMARK VINA RESULT:      -4.4      6.931      9.031
REMARK  0 active torsions:
REMARK  status: ('A' for Active; 'I' for Inactive)
ROOT
HETATM    1  C   LIG     1      16.638  33.232  15.195  1.00  0.00     0.070 C 
HETATM    2  C   LIG     1      15.689  32.566  16.141  1.00  0.00     0.031 A 
HETATM    3  N   LIG     1      15.802  32.806  17.477  1.00  0.00    -0.259 NA
HETATM    4  C   LIG     1      14.971  32.232  18.388  1.00  0.00     0.031 A 
HETATM    5  C   LIG     1      15.139  32.530  19.844  1.00  0.00     0.070 C 
HETATM    6  C   LIG     1      13.961  31.363  17.955  1.00  0.00     0.027 A 
HETATM    7  C   LIG     1      13.824  31.099  16.592  1.00  0.00     0.004 A 
HETATM    8  C   LIG     1      14.689  31.700  15.675  1.00  0.00     0.027 A 
ENDROOT
TORSDOF 0
ENDMDL
MODEL 19
REMARK VINA RESULT:      -4.2      4.998      7.451
REMARK  0 active torsions:
REMARK  status: ('A' for Active; 'I' for Inactive)
ROOT
HETATM    1  C   LIG     1      15.983  35.445  20.423  1.00  0.00     0.070 C 
HETATM    2  C   LIG     1      15.552  34.156  19.795  1.00  0.00     0.031 A 
HETATM    3  N   LIG     1      15.551  34.045  18.438  1.00  0.00    -0.259 NA
HETATM    4  C   LIG     1      15.171  32.901  17.806  1.00  0.00     0.031 A 
HETATM    5  C   LIG     1      15.187  32.832  16.313  1.00  0.00     0.070 C 
HETATM    6  C   LIG     1      14.764  31.793  18.562  1.00  0.00     0.027 A 
HETATM    7  C   LIG     1      14.756  31.880  19.955  1.00  0.00     0.004 A 
HETATM    8  C   LIG     1      15.151  33.065  20.580  1.00  0.00     0.027 A 
ENDROOT
TORSDOF 0
ENDMDL
MODEL 20
REMARK VINA RESULT:      -4.2      9.911     11.379
REMARK  0 active torsions:
REMARK  status: ('A' for Active; 'I' for Inactive)
ROOT
HETATM    1  C   LIG     1      15.062  30.371  13.660  1.00  0.00     0.070 C 
HETATM    2  C   LIG     1      15.858  31.573  14.063  1.00  0.00     0.031 A 
HETATM    3  N   LIG     1      16.773  32.086  13.195  1.00  0.00    -0.259 NA
HETATM    4  C   LIG     1      17.528  33.176  13.501  1.00  0.00     0.031 A 
HETATM    5  C   LIG     1      18.520  33.700  12.511  1.00  0.00     0.070 C 
HETATM    6  C   LIG     1      17.372  33.802  14.745  1.00  0.00     0.027 A 
HETATM    7  C   LIG     1      16.441  33.295  15.653  1.00  0.00     0.004 A 
HETATM    8  C   LIG     1      15.678  32.176  15.316  1.00  0.00     0.027 A 
ENDROOT
TORSDOF 0
ENDMDL
