REMARK  1 active torsions:
REMARK  status: ('A' for Active; 'I' for Inactive)
REMARK    1  A    between atoms: O_1  and  C_2 
ROOT
HETATM    1  C   LIG     1       1.092  -0.372   0.015  1.00  0.00     0.067 A 
HETATM    2  C   LIG     1       0.129  -1.386  -0.055  1.00  0.00     0.036 A 
HETATM    3  C   LIG     1      -1.232  -1.061  -0.080  1.00  0.00     0.004 A 
HETATM    4  C   LIG     1      -1.633   0.278  -0.035  1.00  0.00     0.024 A 
HETATM    5  C   LIG     1      -0.674   1.294   0.035  1.00  0.00     0.036 A 
HETATM    6 CL   LIG     1      -1.178   2.974   0.092  1.00  0.00    -0.084 Cl
HETATM    7  C   LIG     1       0.688   0.970   0.060  1.00  0.00     0.060 A 
ENDROOT
BRANCH   1   8
HETATM    8  O   LIG     1       2.443  -0.709   0.040  1.00  0.00    -0.361 OA
HETATM    9  H   LIG     1       3.164   0.001   0.090  1.00  0.00     0.217 HD
ENDBRANCH   1   8
TORSDOF 1
