MODEL 1
REMARK VINA RESULT:      -4.4      0.000      0.000
REMARK  2 active torsions:
REMARK  status: ('A' for Active; 'I' for Inactive)
REMARK    1  A    between atoms: C_2  and  O_4 
REMARK    2  A    between atoms: O_4  and  C_5 
ROOT
HETATM    1  O   LIG     1      17.414  36.622  23.980  1.00  0.00    -0.382 OA
ENDROOT
BRANCH   1   2
HETATM    2  C   LIG     1      16.859  37.883  23.642  1.00  0.00     0.113 C 
HETATM    3  C   LIG     1      17.867  38.637  22.775  1.00  0.00     0.039 C 
HETATM    4  C   LIG     1      15.550  37.683  22.873  1.00  0.00     0.039 C 
ENDBRANCH   1   2
BRANCH   1   5
HETATM    5  C   LIG     1      17.381  36.388  25.379  1.00  0.00     0.113 C 
HETATM    6  C   LIG     1      17.375  34.879  25.616  1.00  0.00     0.039 C 
HETATM    7  C   LIG     1      18.612  37.021  26.037  1.00  0.00     0.039 C 
ENDBRANCH   1   5
TORSDOF 2
ENDMDL
MODEL 2
REMARK VINA RESULT:      -4.4      0.022      3.697
REMARK  2 active torsions:
REMARK  status: ('A' for Active; 'I' for Inactive)
REMARK    1  A    between atoms: C_2  and  O_4 
REMARK    2  A    between atoms: O_4  and  C_5 
ROOT
HETATM    1  O   LIG     1      17.445  36.638  23.974  1.00  0.00    -0.382 OA
ENDROOT
BRANCH   1   2
HETATM    2  C   LIG     1      17.388  36.390  25.370  1.00  0.00     0.113 C 
HETATM    3  C   LIG     1      17.373  34.878  25.591  1.00  0.00     0.039 C 
HETATM    4  C   LIG     1      18.610  37.010  26.054  1.00  0.00     0.039 C 
ENDBRANCH   1   2
BRANCH   1   5
HETATM    5  C   LIG     1      16.870  37.890  23.636  1.00  0.00     0.113 C 
HETATM    6  C   LIG     1      17.862  38.656  22.763  1.00  0.00     0.039 C 
HETATM    7  C   LIG     1      15.559  37.667  22.874  1.00  0.00     0.039 C 
ENDBRANCH   1   5
TORSDOF 2
ENDMDL
MODEL 3
REMARK VINA RESULT:      -4.0      2.545      4.034
REMARK  2 active torsions:
REMARK  status: ('A' for Active; 'I' for Inactive)
REMARK    1  A    between atoms: C_2  and  O_4 
REMARK    2  A    between atoms: O_4  and  C_5 
ROOT
HETATM    1  O   LIG     1      17.202  36.993  21.274  1.00  0.00    -0.382 OA
ENDROOT
BRANCH   1   2
HETATM    2  C   LIG     1      16.283  36.316  22.118  1.00  0.00     0.113 C 
HETATM    3  C   LIG     1      15.162  35.744  21.251  1.00  0.00     0.039 C 
HETATM    4  C   LIG     1      17.001  35.187  22.864  1.00  0.00     0.039 C 
ENDBRANCH   1   2
BRANCH   1   5
HETATM    5  C   LIG     1      17.773  38.122  21.914  1.00  0.00     0.113 C 
HETATM    6  C   LIG     1      18.464  38.979  20.854  1.00  0.00     0.039 C 
HETATM    7  C   LIG     1      16.675  38.931  22.612  1.00  0.00     0.039 C 
ENDBRANCH   1   5
TORSDOF 2
ENDMDL
MODEL 4
REMARK VINA RESULT:      -4.0      2.561      3.192
REMARK  2 active torsions:
REMARK  status: ('A' for Active; 'I' for Inactive)
REMARK    1  A    between atoms: C_2  and  O_4 
REMARK    2  A    between atoms: O_4  and  C_5 
ROOT
HETATM    1  O   LIG     1      17.163  36.996  21.262  1.00  0.00    -0.382 OA
ENDROOT
BRANCH   1   2
HETATM    2  C   LIG     1      17.769  38.104  21.907  1.00  0.00     0.113 C 
HETATM    3  C   LIG     1      18.486  38.945  20.850  1.00  0.00     0.039 C 
HETATM    4  C   LIG     1      16.698  38.943  22.610  1.00  0.00     0.039 C 
ENDBRANCH   1   2
BRANCH   1   5
HETATM    5  C   LIG     1      16.264  36.312  22.120  1.00  0.00     0.113 C 
HETATM    6  C   LIG     1      15.127  35.743  21.274  1.00  0.00     0.039 C 
HETATM    7  C   LIG     1      17.001  35.180  22.844  1.00  0.00     0.039 C 
ENDBRANCH   1   5
TORSDOF 2
ENDMDL
MODEL 5
REMARK VINA RESULT:      -4.0      1.968      3.143
REMARK  2 active torsions:
REMARK  status: ('A' for Active; 'I' for Inactive)
REMARK    1  A    between atoms: C_2  and  O_4 
REMARK    2  A    between atoms: O_4  and  C_5 
ROOT
HETATM    1  O   LIG     1      16.040  37.300  22.691  1.00  0.00    -0.382 OA
ENDROOT
BRANCH   1   2
HETATM    2  C   LIG     1      16.192  36.281  21.716  1.00  0.00     0.113 C 
HETATM    3  C   LIG     1      17.030  35.155  22.320  1.00  0.00     0.039 C 
HETATM    4  C   LIG     1      14.815  35.749  21.304  1.00  0.00     0.039 C 
ENDBRANCH   1   2
BRANCH   1   5
HETATM    5  C   LIG     1      17.290  37.735  23.200  1.00  0.00     0.113 C 
HETATM    6  C   LIG     1      17.718  38.982  22.429  1.00  0.00     0.039 C 
HETATM    7  C   LIG     1      17.157  38.056  24.692  1.00  0.00     0.039 C 
ENDBRANCH   1   5
TORSDOF 2
ENDMDL
MODEL 6
REMARK VINA RESULT:      -4.0      2.766      4.446
REMARK  2 active torsions:
REMARK  status: ('A' for Active; 'I' for Inactive)
REMARK    1  A    between atoms: C_2  and  O_4 
REMARK    2  A    between atoms: O_4  and  C_5 
ROOT
HETATM    1  O   LIG     1      18.037  37.443  21.737  1.00  0.00    -0.382 OA
ENDROOT
BRANCH   1   2
HETATM    2  C   LIG     1      16.748  36.855  21.809  1.00  0.00     0.113 C 
HETATM    3  C   LIG     1      16.897  35.426  22.331  1.00  0.00     0.039 C 
HETATM    4  C   LIG     1      15.860  37.671  22.753  1.00  0.00     0.039 C 
ENDBRANCH   1   2
BRANCH   1   5
HETATM    5  C   LIG     1      18.308  37.966  20.447  1.00  0.00     0.113 C 
HETATM    6  C   LIG     1      19.147  39.233  20.607  1.00  0.00     0.039 C 
HETATM    7  C   LIG     1      19.072  36.928  19.618  1.00  0.00     0.039 C 
ENDBRANCH   1   5
TORSDOF 2
ENDMDL
MODEL 7
REMARK VINA RESULT:      -3.9      2.018      3.456
REMARK  2 active torsions:
REMARK  status: ('A' for Active; 'I' for Inactive)
REMARK    1  A    between atoms: C_2  and  O_4 
REMARK    2  A    between atoms: O_4  and  C_5 
ROOT
HETATM    1  O   LIG     1      17.135  36.561  22.897  1.00  0.00    -0.382 OA
ENDROOT
BRANCH   1   2
HETATM    2  C   LIG     1      16.500  37.657  23.537  1.00  0.00     0.113 C 
HETATM    3  C   LIG     1      17.120  37.831  24.924  1.00  0.00     0.039 C 
HETATM    4  C   LIG     1      16.702  38.929  22.707  1.00  0.00     0.039 C 
ENDBRANCH   1   2
BRANCH   1   5
HETATM    5  C   LIG     1      16.586  36.310  21.613  1.00  0.00     0.113 C 
HETATM    6  C   LIG     1      17.726  36.283  20.598  1.00  0.00     0.039 C 
HETATM    7  C   LIG     1      15.853  34.964  21.620  1.00  0.00     0.039 C 
ENDBRANCH   1   5
TORSDOF 2
ENDMDL
MODEL 8
REMARK VINA RESULT:      -3.9      1.785      2.990
REMARK  2 active torsions:
REMARK  status: ('A' for Active; 'I' for Inactive)
REMARK    1  A    between atoms: C_2  and  O_4 
REMARK    2  A    between atoms: O_4  and  C_5 
ROOT
HETATM    1  O   LIG     1      17.999  37.716  22.532  1.00  0.00    -0.382 OA
ENDROOT
BRANCH   1   2
HETATM    2  C   LIG     1      17.901  38.101  21.169  1.00  0.00     0.113 C 
HETATM    3  C   LIG     1      18.768  39.340  20.954  1.00  0.00     0.039 C 
HETATM    4  C   LIG     1      18.384  36.957  20.273  1.00  0.00     0.039 C 
ENDBRANCH   1   2
BRANCH   1   5
HETATM    5  C   LIG     1      16.978  38.304  23.322  1.00  0.00     0.113 C 
HETATM    6  C   LIG     1      15.628  37.787  22.827  1.00  0.00     0.039 C 
HETATM    7  C   LIG     1      17.181  37.925  24.793  1.00  0.00     0.039 C 
ENDBRANCH   1   5
TORSDOF 2
ENDMDL
MODEL 9
REMARK VINA RESULT:      -3.9      2.215      3.549
REMARK  2 active torsions:
REMARK  status: ('A' for Active; 'I' for Inactive)
REMARK    1  A    between atoms: C_2  and  O_4 
REMARK    2  A    between atoms: O_4  and  C_5 
ROOT
HETATM    1  O   LIG     1      16.368  36.300  23.005  1.00  0.00    -0.382 OA
ENDROOT
BRANCH   1   2
HETATM    2  C   LIG     1      17.336  36.361  24.040  1.00  0.00     0.113 C 
HETATM    3  C   LIG     1      17.013  37.558  24.934  1.00  0.00     0.039 C 
HETATM    4  C   LIG     1      17.300  35.067  24.859  1.00  0.00     0.039 C 
ENDBRANCH   1   2
BRANCH   1   5
HETATM    5  C   LIG     1      16.756  35.410  21.970  1.00  0.00     0.113 C 
HETATM    6  C   LIG     1      15.502  34.732  21.422  1.00  0.00     0.039 C 
HETATM    7  C   LIG     1      17.464  36.190  20.858  1.00  0.00     0.039 C 
ENDBRANCH   1   5
TORSDOF 2
ENDMDL
MODEL 10
REMARK VINA RESULT:      -3.8      7.259      8.641
REMARK  2 active torsions:
REMARK  status: ('A' for Active; 'I' for Inactive)
REMARK    1  A    between atoms: C_2  and  O_4 
REMARK    2  A    between atoms: O_4  and  C_5 
ROOT
HETATM    1  O   LIG     1      15.648  32.348  18.204  1.00  0.00    -0.382 OA
ENDROOT
BRANCH   1   2
HETATM    2  C   LIG     1      14.951  32.487  19.432  1.00  0.00     0.113 C 
HETATM    3  C   LIG     1      14.955  31.135  20.145  1.00  0.00     0.039 C 
HETATM    4  C   LIG     1      15.639  33.543  20.302  1.00  0.00     0.039 C 
ENDBRANCH   1   2
BRANCH   1   5
HETATM    5  C   LIG     1      14.899  32.856  17.112  1.00  0.00     0.113 C 
HETATM    6  C   LIG     1      15.764  32.775  15.855  1.00  0.00     0.039 C 
HETATM    7  C   LIG     1      13.624  32.026  16.929  1.00  0.00     0.039 C 
ENDBRANCH   1   5
TORSDOF 2
ENDMDL
MODEL 11
REMARK VINA RESULT:      -3.7      2.636      4.384
REMARK  2 active torsions:
REMARK  status: ('A' for Active; 'I' for Inactive)
REMARK    1  A    between atoms: C_2  and  O_4 
REMARK    2  A    between atoms: O_4  and  C_5 
ROOT
HETATM    1  O   LIG     1      17.528  37.629  20.946  1.00  0.00    -0.382 OA
ENDROOT
BRANCH   1   2
HETATM    2  C   LIG     1      17.421  37.679  22.360  1.00  0.00     0.113 C 
HETATM    3  C   LIG     1      16.510  38.848  22.734  1.00  0.00     0.039 C 
HETATM    4  C   LIG     1      16.831  36.365  22.880  1.00  0.00     0.039 C 
ENDBRANCH   1   2
BRANCH   1   5
HETATM    5  C   LIG     1      18.840  37.940  20.505  1.00  0.00     0.113 C 
HETATM    6  C   LIG     1      19.264  36.891  19.478  1.00  0.00     0.039 C 
HETATM    7  C   LIG     1      18.855  39.335  19.870  1.00  0.00     0.039 C 
ENDBRANCH   1   5
TORSDOF 2
ENDMDL
MODEL 12
REMARK VINA RESULT:      -3.6      7.516      8.435
REMARK  2 active torsions:
REMARK  status: ('A' for Active; 'I' for Inactive)
REMARK    1  A    between atoms: C_2  and  O_4 
REMARK    2  A    between atoms: O_4  and  C_5 
ROOT
HETATM    1  O   LIG     1      14.509  32.717  18.265  1.00  0.00    -0.382 OA
ENDROOT
BRANCH   1   2
HETATM    2  C   LIG     1      14.624  31.860  17.140  1.00  0.00     0.113 C 
HETATM    3  C   LIG     1      13.218  31.525  16.642  1.00  0.00     0.039 C 
HETATM    4  C   LIG     1      15.420  32.561  16.035  1.00  0.00     0.039 C 
ENDBRANCH   1   2
BRANCH   1   5
HETATM    5  C   LIG     1      15.401  32.348  19.303  1.00  0.00     0.113 C 
HETATM    6  C   LIG     1      15.580  33.545  20.234  1.00  0.00     0.039 C 
HETATM    7  C   LIG     1      14.827  31.157  20.079  1.00  0.00     0.039 C 
ENDBRANCH   1   5
TORSDOF 2
ENDMDL
MODEL 13
REMARK VINA RESULT:      -3.6     11.100     12.059
REMARK  2 active torsions:
REMARK  status: ('A' for Active; 'I' for Inactive)
REMARK    1  A    between atoms: C_2  and  O_4 
REMARK    2  A    between atoms: O_4  and  C_5 
ROOT
HETATM    1  O   LIG     1      16.075  30.614  14.418  1.00  0.00    -0.382 OA
ENDROOT
BRANCH   1   2
HETATM    2  C   LIG     1      15.866  32.017  14.419  1.00  0.00     0.113 C 
HETATM    3  C   LIG     1      16.272  32.565  15.787  1.00  0.00     0.039 C 
HETATM    4  C   LIG     1      16.713  32.666  13.320  1.00  0.00     0.039 C 
ENDBRANCH   1   2
BRANCH   1   5
HETATM    5  C   LIG     1      14.954  29.914  13.902  1.00  0.00     0.113 C 
HETATM    6  C   LIG     1      15.323  28.436  13.779  1.00  0.00     0.039 C 
HETATM    7  C   LIG     1      13.760  30.082  14.848  1.00  0.00     0.039 C 
ENDBRANCH   1   5
TORSDOF 2
ENDMDL
MODEL 14
REMARK VINA RESULT:      -3.6      5.082      6.093
REMARK  2 active torsions:
REMARK  status: ('A' for Active; 'I' for Inactive)
REMARK    1  A    between atoms: C_2  and  O_4 
REMARK    2  A    between atoms: O_4  and  C_5 
ROOT
HETATM    1  O   LIG     1      15.048  33.477  20.901  1.00  0.00    -0.382 OA
ENDROOT
BRANCH   1   2
HETATM    2  C   LIG     1      15.521  32.581  19.908  1.00  0.00     0.113 C 
HETATM    3  C   LIG     1      14.854  31.224  20.125  1.00  0.00     0.039 C 
HETATM    4  C   LIG     1      15.176  33.122  18.517  1.00  0.00     0.039 C 
ENDBRANCH   1   2
BRANCH   1   5
HETATM    5  C   LIG     1      15.692  34.739  20.824  1.00  0.00     0.113 C 
HETATM    6  C   LIG     1      14.680  35.821  21.196  1.00  0.00     0.039 C 
HETATM    7  C   LIG     1      16.880  34.773  21.791  1.00  0.00     0.039 C 
ENDBRANCH   1   5
TORSDOF 2
ENDMDL
MODEL 15
REMARK VINA RESULT:      -3.5      8.990     10.205
REMARK  2 active torsions:
REMARK  status: ('A' for Active; 'I' for Inactive)
REMARK    1  A    between atoms: C_2  and  O_4 
REMARK    2  A    between atoms: O_4  and  C_5 
ROOT
HETATM    1  O   LIG     1      15.183  31.734  16.350  1.00  0.00    -0.382 OA
ENDROOT
BRANCH   1   2
HETATM    2  C   LIG     1      14.598  32.643  17.268  1.00  0.00     0.113 C 
HETATM    3  C   LIG     1      15.066  32.276  18.676  1.00  0.00     0.039 C 
HETATM    4  C   LIG     1      15.029  34.073  16.926  1.00  0.00     0.039 C 
ENDBRANCH   1   2
BRANCH   1   5
HETATM    5  C   LIG     1      14.237  31.250  15.410  1.00  0.00     0.113 C 
HETATM    6  C   LIG     1      14.897  30.144  14.588  1.00  0.00     0.039 C 
HETATM    7  C   LIG     1      13.011  30.701  16.147  1.00  0.00     0.039 C 
ENDBRANCH   1   5
TORSDOF 2
ENDMDL
MODEL 16
REMARK VINA RESULT:      -3.5      8.495      9.425
REMARK  2 active torsions:
REMARK  status: ('A' for Active; 'I' for Inactive)
REMARK    1  A    between atoms: C_2  and  O_4 
REMARK    2  A    between atoms: O_4  and  C_5 
ROOT
HETATM    1  O   LIG     1      16.280  32.435  16.612  1.00  0.00    -0.382 OA
ENDROOT
BRANCH   1   2
HETATM    2  C   LIG     1      16.220  32.674  15.214  1.00  0.00     0.113 C 
HETATM    3  C   LIG     1      17.616  33.072  14.733  1.00  0.00     0.039 C 
HETATM    4  C   LIG     1      15.756  31.406  14.492  1.00  0.00     0.039 C 
ENDBRANCH   1   2
BRANCH   1   5
HETATM    5  C   LIG     1      15.063  32.775  17.257  1.00  0.00     0.113 C 
HETATM    6  C   LIG     1      15.193  32.432  18.740  1.00  0.00     0.039 C 
HETATM    7  C   LIG     1      14.787  34.272  17.084  1.00  0.00     0.039 C 
ENDBRANCH   1   5
TORSDOF 2
ENDMDL
MODEL 17
REMARK VINA RESULT:      -3.4     10.315     11.562
REMARK  2 active torsions:
REMARK  status: ('A' for Active; 'I' for Inactive)
REMARK    1  A    between atoms: C_2  and  O_4 
REMARK    2  A    between atoms: O_4  and  C_5 
ROOT
HETATM    1  O   LIG     1      15.143  30.939  15.680  1.00  0.00    -0.382 OA
ENDROOT
BRANCH   1   2
HETATM    2  C   LIG     1      14.053  31.622  16.280  1.00  0.00     0.113 C 
HETATM    3  C   LIG     1      12.808  30.743  16.161  1.00  0.00     0.039 C 
HETATM    4  C   LIG     1      14.364  31.898  17.754  1.00  0.00     0.039 C 
ENDBRANCH   1   2
BRANCH   1   5
HETATM    5  C   LIG     1      14.962  30.781  14.282  1.00  0.00     0.113 C 
HETATM    6  C   LIG     1      15.888  31.759  13.562  1.00  0.00     0.039 C 
HETATM    7  C   LIG     1      15.297  29.341  13.878  1.00  0.00     0.039 C 
ENDBRANCH   1   5
TORSDOF 2
ENDMDL
MODEL 18
REMARK VINA RESULT:      -3.4      9.017     10.144
REMARK  2 active torsions:
REMARK  status: ('A' for Active; 'I' for Inactive)
REMARK    1  A    between atoms: C_2  and  O_4 
REMARK    2  A    between atoms: O_4  and  C_5 
ROOT
HETATM    1  O   LIG     1      14.915  32.034  15.997  1.00  0.00    -0.382 OA
ENDROOT
BRANCH   1   2
HETATM    2  C   LIG     1      14.287  30.762  15.964  1.00  0.00     0.113 C 
HETATM    3  C   LIG     1      12.780  30.964  16.128  1.00  0.00     0.039 C 
HETATM    4  C   LIG     1      14.583  30.074  14.628  1.00  0.00     0.039 C 
ENDBRANCH   1   2
BRANCH   1   5
HETATM    5  C   LIG     1      14.514  32.791  17.127  1.00  0.00     0.113 C 
HETATM    6  C   LIG     1      15.160  32.183  18.371  1.00  0.00     0.039 C 
HETATM    7  C   LIG     1      14.962  34.247  16.959  1.00  0.00     0.039 C 
ENDBRANCH   1   5
TORSDOF 2
ENDMDL
MODEL 19
REMARK VINA RESULT:      -3.4      8.933     10.070
REMARK  2 active torsions:
REMARK  status: ('A' for Active; 'I' for Inactive)
REMARK    1  A    between atoms: C_2  and  O_4 
REMARK    2  A    between atoms: O_4  and  C_5 
ROOT
HETATM    1  O   LIG     1      15.232  32.864  16.054  1.00  0.00    -0.382 OA
ENDROOT
BRANCH   1   2
HETATM    2  C   LIG     1      14.650  31.998  17.015  1.00  0.00     0.113 C 
HETATM    3  C   LIG     1      15.063  32.475  18.407  1.00  0.00     0.039 C 
HETATM    4  C   LIG     1      13.125  32.025  16.880  1.00  0.00     0.039 C 
ENDBRANCH   1   2
BRANCH   1   5
HETATM    5  C   LIG     1      16.291  32.236  15.349  1.00  0.00     0.113 C 
HETATM    6  C   LIG     1      15.693  31.434  14.194  1.00  0.00     0.039 C 
HETATM    7  C   LIG     1      17.255  33.298  14.810  1.00  0.00     0.039 C 
ENDBRANCH   1   5
TORSDOF 2
ENDMDL
MODEL 20
REMARK VINA RESULT:      -3.3     10.146     11.210
REMARK  2 active torsions:
REMARK  status: ('A' for Active; 'I' for Inactive)
REMARK    1  A    between atoms: C_2  and  O_4 
REMARK    2  A    between atoms: O_4  and  C_5 
ROOT
HETATM    1  O   LIG     1      14.622  31.899  15.171  1.00  0.00    -0.382 OA
ENDROOT
BRANCH   1   2
HETATM    2  C   LIG     1      15.744  31.327  14.519  1.00  0.00     0.113 C 
HETATM    3  C   LIG     1      15.269  30.121  13.709  1.00  0.00     0.039 C 
HETATM    4  C   LIG     1      16.387  32.363  13.592  1.00  0.00     0.039 C 
ENDBRANCH   1   2
BRANCH   1   5
HETATM    5  C   LIG     1      14.279  31.190  16.351  1.00  0.00     0.113 C 
HETATM    6  C   LIG     1      14.466  32.123  17.546  1.00  0.00     0.039 C 
HETATM    7  C   LIG     1      12.821  30.724  16.268  1.00  0.00     0.039 C 
ENDBRANCH   1   5
TORSDOF 2
ENDMDL
