MODEL 1
REMARK VINA RESULT:      -5.7      0.000      0.000
REMARK  0 active torsions:
REMARK  status: ('A' for Active; 'I' for Inactive)
ROOT
HETATM    1 CL   LIG     1      16.418  34.709  21.337  1.00  0.00    -0.084 Cl
HETATM    2  C   LIG     1      17.025  36.253  21.906  1.00  0.00     0.037 A 
HETATM    3  C   LIG     1      17.627  37.142  21.009  1.00  0.00     0.047 A 
HETATM    4  C   LIG     1      18.112  38.375  21.462  1.00  0.00     0.037 A 
HETATM    5 CL   LIG     1      18.866  39.489  20.338  1.00  0.00    -0.084 Cl
HETATM    6  C   LIG     1      17.994  38.717  22.815  1.00  0.00     0.047 A 
HETATM    7  C   LIG     1      17.392  37.828  23.713  1.00  0.00     0.037 A 
HETATM    8 CL   LIG     1      17.245  38.258  25.407  1.00  0.00    -0.084 Cl
HETATM    9  C   LIG     1      16.908  36.597  23.258  1.00  0.00     0.047 A 
ENDROOT
TORSDOF 0
ENDMDL
MODEL 2
REMARK VINA RESULT:      -5.7      0.059      3.703
REMARK  0 active torsions:
REMARK  status: ('A' for Active; 'I' for Inactive)
ROOT
HETATM    1 CL   LIG     1      17.214  38.186  25.381  1.00  0.00    -0.084 Cl
HETATM    2  C   LIG     1      17.379  37.784  23.681  1.00  0.00     0.037 A 
HETATM    3  C   LIG     1      16.900  36.560  23.201  1.00  0.00     0.047 A 
HETATM    4  C   LIG     1      17.032  36.238  21.845  1.00  0.00     0.037 A 
HETATM    5 CL   LIG     1      16.431  34.705  21.244  1.00  0.00    -0.084 Cl
HETATM    6  C   LIG     1      17.644  37.143  20.969  1.00  0.00     0.047 A 
HETATM    7  C   LIG     1      18.124  38.367  21.448  1.00  0.00     0.037 A 
HETATM    8 CL   LIG     1      18.890  39.500  20.350  1.00  0.00    -0.084 Cl
HETATM    9  C   LIG     1      17.991  38.687  22.804  1.00  0.00     0.047 A 
ENDROOT
TORSDOF 0
ENDMDL
MODEL 3
REMARK VINA RESULT:      -5.7      0.073      3.041
REMARK  0 active torsions:
REMARK  status: ('A' for Active; 'I' for Inactive)
ROOT
HETATM    1 CL   LIG     1      18.883  39.450  20.260  1.00  0.00    -0.084 Cl
HETATM    2  C   LIG     1      18.121  38.346  21.390  1.00  0.00     0.037 A 
HETATM    3  C   LIG     1      17.631  37.114  20.943  1.00  0.00     0.047 A 
HETATM    4  C   LIG     1      17.023  36.232  21.843  1.00  0.00     0.037 A 
HETATM    5 CL   LIG     1      16.410  34.688  21.282  1.00  0.00    -0.084 Cl
HETATM    6  C   LIG     1      16.903  36.584  23.193  1.00  0.00     0.047 A 
HETATM    7  C   LIG     1      17.392  37.816  23.642  1.00  0.00     0.037 A 
HETATM    8 CL   LIG     1      17.243  38.257  25.333  1.00  0.00    -0.084 Cl
HETATM    9  C   LIG     1      18.001  38.697  22.740  1.00  0.00     0.047 A 
ENDROOT
TORSDOF 0
ENDMDL
MODEL 4
REMARK VINA RESULT:      -5.7      0.035      3.040
REMARK  0 active torsions:
REMARK  status: ('A' for Active; 'I' for Inactive)
ROOT
HETATM    1 CL   LIG     1      16.414  34.706  21.284  1.00  0.00    -0.084 Cl
HETATM    2  C   LIG     1      17.022  36.242  21.873  1.00  0.00     0.037 A 
HETATM    3  C   LIG     1      16.901  36.570  23.228  1.00  0.00     0.047 A 
HETATM    4  C   LIG     1      17.386  37.796  23.699  1.00  0.00     0.037 A 
HETATM    5 CL   LIG     1      17.234  38.206  25.397  1.00  0.00    -0.084 Cl
HETATM    6  C   LIG     1      17.992  38.694  22.813  1.00  0.00     0.047 A 
HETATM    7  C   LIG     1      18.114  38.367  21.457  1.00  0.00     0.037 A 
HETATM    8 CL   LIG     1      18.875  39.493  20.348  1.00  0.00    -0.084 Cl
HETATM    9  C   LIG     1      17.629  37.141  20.988  1.00  0.00     0.047 A 
ENDROOT
TORSDOF 0
ENDMDL
MODEL 5
REMARK VINA RESULT:      -5.7      0.077      3.718
REMARK  0 active torsions:
REMARK  status: ('A' for Active; 'I' for Inactive)
ROOT
HETATM    1 CL   LIG     1      18.880  39.449  20.254  1.00  0.00    -0.084 Cl
HETATM    2  C   LIG     1      18.118  38.345  21.385  1.00  0.00     0.037 A 
HETATM    3  C   LIG     1      17.999  38.697  22.734  1.00  0.00     0.047 A 
HETATM    4  C   LIG     1      17.393  37.817  23.638  1.00  0.00     0.037 A 
HETATM    5 CL   LIG     1      17.244  38.258  25.328  1.00  0.00    -0.084 Cl
HETATM    6  C   LIG     1      16.904  36.583  23.191  1.00  0.00     0.047 A 
HETATM    7  C   LIG     1      17.022  36.230  21.841  1.00  0.00     0.037 A 
HETATM    8 CL   LIG     1      16.410  34.686  21.281  1.00  0.00    -0.084 Cl
HETATM    9  C   LIG     1      17.630  37.112  20.939  1.00  0.00     0.047 A 
ENDROOT
TORSDOF 0
ENDMDL
MODEL 6
REMARK VINA RESULT:      -5.5      1.771      4.392
REMARK  0 active torsions:
REMARK  status: ('A' for Active; 'I' for Inactive)
ROOT
HETATM    1 CL   LIG     1      17.122  39.461  22.909  1.00  0.00    -0.084 Cl
HETATM    2  C   LIG     1      17.078  37.729  23.185  1.00  0.00     0.037 A 
HETATM    3  C   LIG     1      17.357  37.215  24.456  1.00  0.00     0.047 A 
HETATM    4  C   LIG     1      17.322  35.834  24.678  1.00  0.00     0.037 A 
HETATM    5 CL   LIG     1      17.672  35.190  26.271  1.00  0.00    -0.084 Cl
HETATM    6  C   LIG     1      17.008  34.965  23.625  1.00  0.00     0.047 A 
HETATM    7  C   LIG     1      16.729  35.478  22.353  1.00  0.00     0.037 A 
HETATM    8 CL   LIG     1      16.336  34.390  21.036  1.00  0.00    -0.084 Cl
HETATM    9  C   LIG     1      16.764  36.860  22.134  1.00  0.00     0.047 A 
ENDROOT
TORSDOF 0
ENDMDL
MODEL 7
REMARK VINA RESULT:      -5.5      1.827      3.533
REMARK  0 active torsions:
REMARK  status: ('A' for Active; 'I' for Inactive)
ROOT
HETATM    1 CL   LIG     1      17.777  35.340  26.288  1.00  0.00    -0.084 Cl
HETATM    2  C   LIG     1      17.342  35.918  24.690  1.00  0.00     0.037 A 
HETATM    3  C   LIG     1      17.296  37.292  24.431  1.00  0.00     0.047 A 
HETATM    4  C   LIG     1      16.949  37.754  23.156  1.00  0.00     0.037 A 
HETATM    5 CL   LIG     1      16.891  39.476  22.832  1.00  0.00    -0.084 Cl
HETATM    6  C   LIG     1      16.647  36.840  22.139  1.00  0.00     0.047 A 
HETATM    7  C   LIG     1      16.693  35.465  22.398  1.00  0.00     0.037 A 
HETATM    8 CL   LIG     1      16.316  34.320  21.124  1.00  0.00    -0.084 Cl
HETATM    9  C   LIG     1      17.041  35.005  23.673  1.00  0.00     0.047 A 
ENDROOT
TORSDOF 0
ENDMDL
MODEL 8
REMARK VINA RESULT:      -5.5      1.811      3.464
REMARK  0 active torsions:
REMARK  status: ('A' for Active; 'I' for Inactive)
ROOT
HETATM    1 CL   LIG     1      17.750  35.398  26.288  1.00  0.00    -0.084 Cl
HETATM    2  C   LIG     1      17.335  35.965  24.682  1.00  0.00     0.037 A 
HETATM    3  C   LIG     1      17.029  35.045  23.672  1.00  0.00     0.047 A 
HETATM    4  C   LIG     1      16.697  35.496  22.389  1.00  0.00     0.037 A 
HETATM    5 CL   LIG     1      16.315  34.344  21.124  1.00  0.00    -0.084 Cl
HETATM    6  C   LIG     1      16.671  36.869  22.116  1.00  0.00     0.047 A 
HETATM    7  C   LIG     1      16.977  37.790  23.126  1.00  0.00     0.037 A 
HETATM    8 CL   LIG     1      16.943  39.510  22.784  1.00  0.00    -0.084 Cl
HETATM    9  C   LIG     1      17.308  37.337  24.408  1.00  0.00     0.047 A 
ENDROOT
TORSDOF 0
ENDMDL
MODEL 9
REMARK VINA RESULT:      -5.4      1.836      3.360
REMARK  0 active torsions:
REMARK  status: ('A' for Active; 'I' for Inactive)
ROOT
HETATM    1 CL   LIG     1      16.311  34.287  21.353  1.00  0.00    -0.084 Cl
HETATM    2  C   LIG     1      16.728  35.450  22.597  1.00  0.00     0.037 A 
HETATM    3  C   LIG     1      17.123  35.008  23.865  1.00  0.00     0.047 A 
HETATM    4  C   LIG     1      17.455  35.935  24.859  1.00  0.00     0.037 A 
HETATM    5 CL   LIG     1      17.950  35.381  26.447  1.00  0.00    -0.084 Cl
HETATM    6  C   LIG     1      17.393  37.307  24.584  1.00  0.00     0.047 A 
HETATM    7  C   LIG     1      16.998  37.750  23.316  1.00  0.00     0.037 A 
HETATM    8 CL   LIG     1      16.921  39.468  22.973  1.00  0.00    -0.084 Cl
HETATM    9  C   LIG     1      16.666  36.822  22.324  1.00  0.00     0.047 A 
ENDROOT
TORSDOF 0
ENDMDL
MODEL 10
REMARK VINA RESULT:      -4.8      8.319     10.407
REMARK  0 active torsions:
REMARK  status: ('A' for Active; 'I' for Inactive)
ROOT
HETATM    1 CL   LIG     1      14.588  32.522  18.128  1.00  0.00    -0.084 Cl
HETATM    2  C   LIG     1      14.823  31.921  16.498  1.00  0.00     0.037 A 
HETATM    3  C   LIG     1      14.071  30.834  16.037  1.00  0.00     0.047 A 
HETATM    4  C   LIG     1      14.257  30.352  14.736  1.00  0.00     0.037 A 
HETATM    5 CL   LIG     1      13.315  28.991  14.160  1.00  0.00    -0.084 Cl
HETATM    6  C   LIG     1      15.198  30.959  13.895  1.00  0.00     0.047 A 
HETATM    7  C   LIG     1      15.951  32.046  14.354  1.00  0.00     0.037 A 
HETATM    8 CL   LIG     1      17.129  32.805  13.300  1.00  0.00    -0.084 Cl
HETATM    9  C   LIG     1      15.763  32.526  15.655  1.00  0.00     0.047 A 
ENDROOT
TORSDOF 0
ENDMDL
MODEL 11
REMARK VINA RESULT:      -4.8      8.157     10.199
REMARK  0 active torsions:
REMARK  status: ('A' for Active; 'I' for Inactive)
ROOT
HETATM    1 CL   LIG     1      17.226  32.924  13.268  1.00  0.00    -0.084 Cl
HETATM    2  C   LIG     1      16.073  32.186  14.364  1.00  0.00     0.037 A 
HETATM    3  C   LIG     1      15.941  32.670  15.671  1.00  0.00     0.047 A 
HETATM    4  C   LIG     1      15.022  32.082  16.547  1.00  0.00     0.037 A 
HETATM    5 CL   LIG     1      14.856  32.688  18.184  1.00  0.00    -0.084 Cl
HETATM    6  C   LIG     1      14.233  31.008  16.116  1.00  0.00     0.047 A 
HETATM    7  C   LIG     1      14.365  30.523  14.809  1.00  0.00     0.037 A 
HETATM    8 CL   LIG     1      13.377  29.179  14.268  1.00  0.00    -0.084 Cl
HETATM    9  C   LIG     1      15.285  31.113  13.934  1.00  0.00     0.047 A 
ENDROOT
TORSDOF 0
ENDMDL
MODEL 12
REMARK VINA RESULT:      -3.6     11.281     12.656
REMARK  0 active torsions:
REMARK  status: ('A' for Active; 'I' for Inactive)
ROOT
HETATM    1 CL   LIG     1      30.683  39.484  16.291  1.00  0.00    -0.084 Cl
HETATM    2  C   LIG     1      29.864  39.154  17.806  1.00  0.00     0.037 A 
HETATM    3  C   LIG     1      30.440  39.557  19.016  1.00  0.00     0.047 A 
HETATM    4  C   LIG     1      29.787  39.294  20.226  1.00  0.00     0.037 A 
HETATM    5 CL   LIG     1      30.510  39.799  21.742  1.00  0.00    -0.084 Cl
HETATM    6  C   LIG     1      28.557  38.627  20.226  1.00  0.00     0.047 A 
HETATM    7  C   LIG     1      27.979  38.223  19.016  1.00  0.00     0.037 A 
HETATM    8 CL   LIG     1      26.437  37.387  19.015  1.00  0.00    -0.084 Cl
HETATM    9  C   LIG     1      28.633  38.487  17.807  1.00  0.00     0.047 A 
ENDROOT
TORSDOF 0
ENDMDL
MODEL 13
REMARK VINA RESULT:      -3.6      4.191      5.562
REMARK  0 active torsions:
REMARK  status: ('A' for Active; 'I' for Inactive)
ROOT
HETATM    1 CL   LIG     1      14.897  30.698  20.475  1.00  0.00    -0.084 Cl
HETATM    2  C   LIG     1      15.175  32.311  19.844  1.00  0.00     0.037 A 
HETATM    3  C   LIG     1      15.204  32.527  18.461  1.00  0.00     0.047 A 
HETATM    4  C   LIG     1      15.426  33.813  17.957  1.00  0.00     0.037 A 
HETATM    5 CL   LIG     1      15.462  34.083  16.225  1.00  0.00    -0.084 Cl
HETATM    6  C   LIG     1      15.620  34.885  18.837  1.00  0.00     0.047 A 
HETATM    7  C   LIG     1      15.592  34.670  20.220  1.00  0.00     0.037 A 
HETATM    8 CL   LIG     1      15.834  36.013  21.321  1.00  0.00    -0.084 Cl
HETATM    9  C   LIG     1      15.369  33.383  20.722  1.00  0.00     0.047 A 
ENDROOT
TORSDOF 0
ENDMDL
MODEL 14
REMARK VINA RESULT:      -3.3     16.227     17.120
REMARK  0 active torsions:
REMARK  status: ('A' for Active; 'I' for Inactive)
ROOT
HETATM    1 CL   LIG     1      26.662  24.409  18.161  1.00  0.00    -0.084 Cl
HETATM    2  C   LIG     1      25.476  23.406  18.974  1.00  0.00     0.037 A 
HETATM    3  C   LIG     1      25.325  23.487  20.363  1.00  0.00     0.047 A 
HETATM    4  C   LIG     1      24.378  22.687  21.014  1.00  0.00     0.037 A 
HETATM    5 CL   LIG     1      24.189  22.788  22.754  1.00  0.00    -0.084 Cl
HETATM    6  C   LIG     1      23.582  21.805  20.273  1.00  0.00     0.047 A 
HETATM    7  C   LIG     1      23.732  21.723  18.884  1.00  0.00     0.037 A 
HETATM    8 CL   LIG     1      22.734  20.619  17.957  1.00  0.00    -0.084 Cl
HETATM    9  C   LIG     1      24.679  22.524  18.235  1.00  0.00     0.047 A 
ENDROOT
TORSDOF 0
ENDMDL
MODEL 15
REMARK VINA RESULT:      -3.3     16.258     16.972
REMARK  0 active torsions:
REMARK  status: ('A' for Active; 'I' for Inactive)
ROOT
HETATM    1 CL   LIG     1      26.661  24.324  18.071  1.00  0.00    -0.084 Cl
HETATM    2  C   LIG     1      25.463  23.351  18.904  1.00  0.00     0.037 A 
HETATM    3  C   LIG     1      24.650  22.471  18.180  1.00  0.00     0.047 A 
HETATM    4  C   LIG     1      23.694  21.694  18.844  1.00  0.00     0.037 A 
HETATM    5 CL   LIG     1      22.675  20.592  17.937  1.00  0.00    -0.084 Cl
HETATM    6  C   LIG     1      23.551  21.797  20.233  1.00  0.00     0.047 A 
HETATM    7  C   LIG     1      24.364  22.676  20.957  1.00  0.00     0.037 A 
HETATM    8 CL   LIG     1      24.185  22.805  22.697  1.00  0.00    -0.084 Cl
HETATM    9  C   LIG     1      25.319  23.453  20.292  1.00  0.00     0.047 A 
ENDROOT
TORSDOF 0
ENDMDL
MODEL 16
REMARK VINA RESULT:      -3.3     16.253     16.754
REMARK  0 active torsions:
REMARK  status: ('A' for Active; 'I' for Inactive)
ROOT
HETATM    1 CL   LIG     1      22.740  20.430  18.084  1.00  0.00    -0.084 Cl
HETATM    2  C   LIG     1      23.731  21.597  18.940  1.00  0.00     0.037 A 
HETATM    3  C   LIG     1      24.624  22.410  18.233  1.00  0.00     0.047 A 
HETATM    4  C   LIG     1      25.415  23.341  18.915  1.00  0.00     0.037 A 
HETATM    5 CL   LIG     1      26.534  24.360  18.028  1.00  0.00    -0.084 Cl
HETATM    6  C   LIG     1      25.313  23.459  20.306  1.00  0.00     0.047 A 
HETATM    7  C   LIG     1      24.420  22.647  21.015  1.00  0.00     0.037 A 
HETATM    8 CL   LIG     1      24.292  22.795  22.757  1.00  0.00    -0.084 Cl
HETATM    9  C   LIG     1      23.630  21.716  20.331  1.00  0.00     0.047 A 
ENDROOT
TORSDOF 0
ENDMDL
MODEL 17
REMARK VINA RESULT:      -3.2     16.385     17.205
REMARK  0 active torsions:
REMARK  status: ('A' for Active; 'I' for Inactive)
ROOT
HETATM    1 CL   LIG     1      24.005  22.360  22.672  1.00  0.00    -0.084 Cl
HETATM    2  C   LIG     1      24.183  22.346  20.927  1.00  0.00     0.037 A 
HETATM    3  C   LIG     1      23.410  21.474  20.151  1.00  0.00     0.047 A 
HETATM    4  C   LIG     1      23.551  21.462  18.759  1.00  0.00     0.037 A 
HETATM    5 CL   LIG     1      22.583  20.369  17.788  1.00  0.00    -0.084 Cl
HETATM    6  C   LIG     1      24.466  22.323  18.141  1.00  0.00     0.047 A 
HETATM    7  C   LIG     1      25.239  23.196  18.916  1.00  0.00     0.037 A 
HETATM    8 CL   LIG     1      26.385  24.275  18.143  1.00  0.00    -0.084 Cl
HETATM    9  C   LIG     1      25.097  23.207  20.308  1.00  0.00     0.047 A 
ENDROOT
TORSDOF 0
ENDMDL
MODEL 18
REMARK VINA RESULT:      -3.1     15.910     17.151
REMARK  0 active torsions:
REMARK  status: ('A' for Active; 'I' for Inactive)
ROOT
HETATM    1 CL   LIG     1      30.300  28.243  18.511  1.00  0.00    -0.084 Cl
HETATM    2  C   LIG     1      29.261  26.879  18.143  1.00  0.00     0.037 A 
HETATM    3  C   LIG     1      28.180  26.576  18.979  1.00  0.00     0.047 A 
HETATM    4  C   LIG     1      27.351  25.487  18.686  1.00  0.00     0.037 A 
HETATM    5 CL   LIG     1      25.996  25.109  19.733  1.00  0.00    -0.084 Cl
HETATM    6  C   LIG     1      27.603  24.700  17.556  1.00  0.00     0.047 A 
HETATM    7  C   LIG     1      28.685  25.001  16.720  1.00  0.00     0.037 A 
HETATM    8 CL   LIG     1      29.001  24.015  15.305  1.00  0.00    -0.084 Cl
HETATM    9  C   LIG     1      29.513  26.091  17.014  1.00  0.00     0.047 A 
ENDROOT
TORSDOF 0
ENDMDL
MODEL 19
REMARK VINA RESULT:      -2.8     15.779     17.167
REMARK  0 active torsions:
REMARK  status: ('A' for Active; 'I' for Inactive)
ROOT
HETATM    1 CL   LIG     1      28.029  27.266  18.664  1.00  0.00    -0.084 Cl
HETATM    2  C   LIG     1      27.464  25.607  18.731  1.00  0.00     0.037 A 
HETATM    3  C   LIG     1      26.462  25.244  19.638  1.00  0.00     0.047 A 
HETATM    4  C   LIG     1      26.010  23.920  19.692  1.00  0.00     0.037 A 
HETATM    5 CL   LIG     1      24.754  23.467  20.829  1.00  0.00    -0.084 Cl
HETATM    6  C   LIG     1      26.562  22.958  18.838  1.00  0.00     0.047 A 
HETATM    7  C   LIG     1      27.565  23.319  17.930  1.00  0.00     0.037 A 
HETATM    8 CL   LIG     1      28.256  22.114  16.861  1.00  0.00    -0.084 Cl
HETATM    9  C   LIG     1      28.015  24.643  17.878  1.00  0.00     0.047 A 
ENDROOT
TORSDOF 0
ENDMDL
MODEL 20
REMARK VINA RESULT:      -2.8     16.319     17.318
REMARK  0 active torsions:
REMARK  status: ('A' for Active; 'I' for Inactive)
ROOT
HETATM    1 CL   LIG     1      22.484  19.125  24.794  1.00  0.00    -0.084 Cl
HETATM    2  C   LIG     1      23.151  20.498  23.931  1.00  0.00     0.037 A 
HETATM    3  C   LIG     1      24.143  21.285  24.528  1.00  0.00     0.047 A 
HETATM    4  C   LIG     1      24.676  22.382  23.840  1.00  0.00     0.037 A 
HETATM    5 CL   LIG     1      25.918  23.367  24.588  1.00  0.00    -0.084 Cl
HETATM    6  C   LIG     1      24.217  22.691  22.554  1.00  0.00     0.047 A 
HETATM    7  C   LIG     1      23.225  21.904  21.957  1.00  0.00     0.037 A 
HETATM    8 CL   LIG     1      22.650  22.292  20.346  1.00  0.00    -0.084 Cl
HETATM    9  C   LIG     1      22.693  20.808  22.646  1.00  0.00     0.047 A 
ENDROOT
TORSDOF 0
ENDMDL
