REMARK  0 active torsions:
REMARK  status: ('A' for Active; 'I' for Inactive)
ROOT
HETATM    1  C   LIG     1       2.434   0.056   0.124  1.00  0.00     0.010 C 
HETATM    2  C   LIG     1       0.967   0.167  -0.302  1.00  0.00    -0.018 C 
HETATM    3  C   LIG     1       0.200   1.116   0.640  1.00  0.00     0.004 C 
HETATM    4  C   LIG     1      -1.278   1.212   0.241  1.00  0.00     0.000 C 
HETATM    5  C   LIG     1      -1.933  -0.174   0.215  1.00  0.00     0.000 C 
HETATM    6  C   LIG     1      -1.175  -1.122  -0.722  1.00  0.00     0.000 C 
HETATM    7  C   LIG     1       0.303  -1.224  -0.326  1.00  0.00     0.004 C 
ENDROOT
TORSDOF 0
