REMARK  0 active torsions:
REMARK  status: ('A' for Active; 'I' for Inactive)
ROOT
HETATM    1 BR   LIG     1      -2.735  -1.740   0.030  1.00  0.00    -0.051 Br
HETATM    2  C   LIG     1      -1.124  -0.715   0.012  1.00  0.00     0.011 A 
HETATM    3  C   LIG     1       0.118  -1.361  -0.015  1.00  0.00     0.019 A 
HETATM    4  C   LIG     1       1.298  -0.610  -0.027  1.00  0.00     0.001 A 
HETATM    5  C   LIG     1       1.238   0.788  -0.013  1.00  0.00     0.000 A 
HETATM    6  C   LIG     1      -0.002   1.434   0.013  1.00  0.00     0.001 A 
HETATM    7  C   LIG     1      -1.183   0.684   0.026  1.00  0.00     0.019 A 
ENDROOT
TORSDOF 0
