MODEL 1
REMARK VINA RESULT:      -5.7      0.000      0.000
REMARK  0 active torsions:
REMARK  status: ('A' for Active; 'I' for Inactive)
ROOT
HETATM    1 CL   LIG     1      16.543  37.080  22.700  1.00  0.00    -0.084 Cl
HETATM    2  C   LIG     1      17.229  36.558  24.226  1.00  0.00     0.034 A 
HETATM    3  C   LIG     1      17.204  35.203  24.579  1.00  0.00     0.024 A 
HETATM    4  C   LIG     1      17.751  34.787  25.797  1.00  0.00     0.002 A 
HETATM    5  C   LIG     1      18.324  35.724  26.664  1.00  0.00     0.000 A 
HETATM    6  C   LIG     1      18.350  37.078  26.313  1.00  0.00     0.002 A 
HETATM    7  C   LIG     1      17.802  37.495  25.095  1.00  0.00     0.024 A 
ENDROOT
TORSDOF 0
ENDMDL
MODEL 2
REMARK VINA RESULT:      -5.3      4.231      5.255
REMARK  0 active torsions:
REMARK  status: ('A' for Active; 'I' for Inactive)
ROOT
HETATM    1 CL   LIG     1      16.930  35.482  21.313  1.00  0.00    -0.084 Cl
HETATM    2  C   LIG     1      17.859  36.911  20.901  1.00  0.00     0.034 A 
HETATM    3  C   LIG     1      18.752  36.880  19.823  1.00  0.00     0.024 A 
HETATM    4  C   LIG     1      19.493  38.020  19.495  1.00  0.00     0.002 A 
HETATM    5  C   LIG     1      19.342  39.192  20.244  1.00  0.00     0.000 A 
HETATM    6  C   LIG     1      18.451  39.225  21.320  1.00  0.00     0.002 A 
HETATM    7  C   LIG     1      17.709  38.085  21.650  1.00  0.00     0.024 A 
ENDROOT
TORSDOF 0
ENDMDL
MODEL 3
REMARK VINA RESULT:      -5.2      4.221      5.553
REMARK  0 active torsions:
REMARK  status: ('A' for Active; 'I' for Inactive)
ROOT
HETATM    1 CL   LIG     1      16.498  37.274  22.580  1.00  0.00    -0.084 Cl
HETATM    2  C   LIG     1      17.719  37.664  21.384  1.00  0.00     0.034 A 
HETATM    3  C   LIG     1      18.289  38.943  21.356  1.00  0.00     0.024 A 
HETATM    4  C   LIG     1      19.263  39.255  20.402  1.00  0.00     0.002 A 
HETATM    5  C   LIG     1      19.668  38.289  19.474  1.00  0.00     0.000 A 
HETATM    6  C   LIG     1      19.100  37.012  19.501  1.00  0.00     0.002 A 
HETATM    7  C   LIG     1      18.126  36.699  20.455  1.00  0.00     0.024 A 
ENDROOT
TORSDOF 0
ENDMDL
MODEL 4
REMARK VINA RESULT:      -5.2      4.335      5.030
REMARK  0 active torsions:
REMARK  status: ('A' for Active; 'I' for Inactive)
ROOT
HETATM    1 CL   LIG     1      20.431  38.960  19.223  1.00  0.00    -0.084 Cl
HETATM    2  C   LIG     1      19.151  38.225  20.169  1.00  0.00     0.034 A 
HETATM    3  C   LIG     1      18.714  36.929  19.870  1.00  0.00     0.024 A 
HETATM    4  C   LIG     1      17.692  36.343  20.624  1.00  0.00     0.002 A 
HETATM    5  C   LIG     1      17.105  37.053  21.678  1.00  0.00     0.000 A 
HETATM    6  C   LIG     1      17.541  38.347  21.978  1.00  0.00     0.002 A 
HETATM    7  C   LIG     1      18.562  38.934  21.224  1.00  0.00     0.024 A 
ENDROOT
TORSDOF 0
ENDMDL
MODEL 5
REMARK VINA RESULT:      -5.1      4.280      5.243
REMARK  0 active torsions:
REMARK  status: ('A' for Active; 'I' for Inactive)
ROOT
HETATM    1 CL   LIG     1      20.325  38.971  19.306  1.00  0.00    -0.084 Cl
HETATM    2  C   LIG     1      19.047  38.213  20.238  1.00  0.00     0.034 A 
HETATM    3  C   LIG     1      18.421  38.919  21.272  1.00  0.00     0.024 A 
HETATM    4  C   LIG     1      17.402  38.315  22.016  1.00  0.00     0.002 A 
HETATM    5  C   LIG     1      17.009  37.003  21.727  1.00  0.00     0.000 A 
HETATM    6  C   LIG     1      17.634  36.296  20.695  1.00  0.00     0.002 A 
HETATM    7  C   LIG     1      18.653  36.900  19.951  1.00  0.00     0.024 A 
ENDROOT
TORSDOF 0
ENDMDL
MODEL 6
REMARK VINA RESULT:      -5.1      2.076      3.440
REMARK  0 active torsions:
REMARK  status: ('A' for Active; 'I' for Inactive)
ROOT
HETATM    1 CL   LIG     1      18.070  34.738  26.391  1.00  0.00    -0.084 Cl
HETATM    2  C   LIG     1      17.557  35.766  25.067  1.00  0.00     0.034 A 
HETATM    3  C   LIG     1      17.521  37.156  25.232  1.00  0.00     0.024 A 
HETATM    4  C   LIG     1      17.110  37.976  24.176  1.00  0.00     0.002 A 
HETATM    5  C   LIG     1      16.735  37.408  22.953  1.00  0.00     0.000 A 
HETATM    6  C   LIG     1      16.771  36.020  22.787  1.00  0.00     0.002 A 
HETATM    7  C   LIG     1      17.181  35.199  23.842  1.00  0.00     0.024 A 
ENDROOT
TORSDOF 0
ENDMDL
MODEL 7
REMARK VINA RESULT:      -4.9      2.166      3.675
REMARK  0 active torsions:
REMARK  status: ('A' for Active; 'I' for Inactive)
ROOT
HETATM    1 CL   LIG     1      17.290  38.081  25.560  1.00  0.00    -0.084 Cl
HETATM    2  C   LIG     1      17.222  37.231  24.027  1.00  0.00     0.034 A 
HETATM    3  C   LIG     1      17.321  37.944  22.826  1.00  0.00     0.024 A 
HETATM    4  C   LIG     1      17.266  37.266  21.604  1.00  0.00     0.002 A 
HETATM    5  C   LIG     1      17.112  35.875  21.581  1.00  0.00     0.000 A 
HETATM    6  C   LIG     1      17.013  35.163  22.780  1.00  0.00     0.002 A 
HETATM    7  C   LIG     1      17.068  35.840  24.003  1.00  0.00     0.024 A 
ENDROOT
TORSDOF 0
ENDMDL
MODEL 8
REMARK VINA RESULT:      -4.6      3.747      4.557
REMARK  0 active torsions:
REMARK  status: ('A' for Active; 'I' for Inactive)
ROOT
HETATM    1 CL   LIG     1      16.053  34.521  20.877  1.00  0.00    -0.084 Cl
HETATM    2  C   LIG     1      16.822  36.076  21.136  1.00  0.00     0.034 A 
HETATM    3  C   LIG     1      16.353  36.931  22.141  1.00  0.00     0.024 A 
HETATM    4  C   LIG     1      16.966  38.171  22.347  1.00  0.00     0.002 A 
HETATM    5  C   LIG     1      18.047  38.559  21.548  1.00  0.00     0.000 A 
HETATM    6  C   LIG     1      18.517  37.706  20.544  1.00  0.00     0.002 A 
HETATM    7  C   LIG     1      17.904  36.465  20.338  1.00  0.00     0.024 A 
ENDROOT
TORSDOF 0
ENDMDL
MODEL 9
REMARK VINA RESULT:      -4.5      9.950     11.019
REMARK  0 active torsions:
REMARK  status: ('A' for Active; 'I' for Inactive)
ROOT
HETATM    1 CL   LIG     1      17.172  32.875  14.939  1.00  0.00    -0.084 Cl
HETATM    2  C   LIG     1      15.679  32.083  15.408  1.00  0.00     0.034 A 
HETATM    3  C   LIG     1      15.199  30.996  14.667  1.00  0.00     0.024 A 
HETATM    4  C   LIG     1      14.008  30.365  15.040  1.00  0.00     0.002 A 
HETATM    5  C   LIG     1      13.295  30.820  16.155  1.00  0.00     0.000 A 
HETATM    6  C   LIG     1      13.774  31.905  16.897  1.00  0.00     0.002 A 
HETATM    7  C   LIG     1      14.965  32.536  16.524  1.00  0.00     0.024 A 
ENDROOT
TORSDOF 0
ENDMDL
MODEL 10
REMARK VINA RESULT:      -4.5      9.731     10.924
REMARK  0 active torsions:
REMARK  status: ('A' for Active; 'I' for Inactive)
ROOT
HETATM    1 CL   LIG     1      15.149  33.898  17.493  1.00  0.00    -0.084 Cl
HETATM    2  C   LIG     1      14.657  32.497  16.559  1.00  0.00     0.034 A 
HETATM    3  C   LIG     1      15.458  32.041  15.505  1.00  0.00     0.024 A 
HETATM    4  C   LIG     1      15.066  30.924  14.760  1.00  0.00     0.002 A 
HETATM    5  C   LIG     1      13.872  30.262  15.068  1.00  0.00     0.000 A 
HETATM    6  C   LIG     1      13.071  30.716  16.120  1.00  0.00     0.002 A 
HETATM    7  C   LIG     1      13.463  31.833  16.866  1.00  0.00     0.024 A 
ENDROOT
TORSDOF 0
ENDMDL
MODEL 11
REMARK VINA RESULT:      -4.5     10.180     11.265
REMARK  0 active torsions:
REMARK  status: ('A' for Active; 'I' for Inactive)
ROOT
HETATM    1 CL   LIG     1      13.697  29.178  14.173  1.00  0.00    -0.084 Cl
HETATM    2  C   LIG     1      14.112  30.543  15.194  1.00  0.00     0.034 A 
HETATM    3  C   LIG     1      15.266  31.290  14.929  1.00  0.00     0.024 A 
HETATM    4  C   LIG     1      15.597  32.378  15.743  1.00  0.00     0.002 A 
HETATM    5  C   LIG     1      14.775  32.720  16.823  1.00  0.00     0.000 A 
HETATM    6  C   LIG     1      13.622  31.975  17.088  1.00  0.00     0.002 A 
HETATM    7  C   LIG     1      13.290  30.887  16.274  1.00  0.00     0.024 A 
ENDROOT
TORSDOF 0
ENDMDL
MODEL 12
REMARK VINA RESULT:      -4.0      9.984     11.305
REMARK  0 active torsions:
REMARK  status: ('A' for Active; 'I' for Inactive)
ROOT
HETATM    1 CL   LIG     1      14.818  32.632  18.145  1.00  0.00    -0.084 Cl
HETATM    2  C   LIG     1      14.831  31.850  16.576  1.00  0.00     0.034 A 
HETATM    3  C   LIG     1      15.667  32.331  15.560  1.00  0.00     0.024 A 
HETATM    4  C   LIG     1      15.677  31.708  14.308  1.00  0.00     0.002 A 
HETATM    5  C   LIG     1      14.851  30.604  14.069  1.00  0.00     0.000 A 
HETATM    6  C   LIG     1      14.016  30.123  15.082  1.00  0.00     0.002 A 
HETATM    7  C   LIG     1      14.005  30.745  16.335  1.00  0.00     0.024 A 
ENDROOT
TORSDOF 0
ENDMDL
MODEL 13
REMARK VINA RESULT:      -3.7     13.195     14.147
REMARK  0 active torsions:
REMARK  status: ('A' for Active; 'I' for Inactive)
ROOT
HETATM    1 CL   LIG     1      22.740  35.146  13.324  1.00  0.00    -0.084 Cl
HETATM    2  C   LIG     1      21.435  34.653  12.261  1.00  0.00     0.034 A 
HETATM    3  C   LIG     1      20.428  33.804  12.735  1.00  0.00     0.024 A 
HETATM    4  C   LIG     1      19.388  33.411  11.887  1.00  0.00     0.002 A 
HETATM    5  C   LIG     1      19.353  33.865  10.564  1.00  0.00     0.000 A 
HETATM    6  C   LIG     1      20.358  34.714  10.089  1.00  0.00     0.002 A 
HETATM    7  C   LIG     1      21.399  35.108  10.937  1.00  0.00     0.024 A 
ENDROOT
TORSDOF 0
ENDMDL
MODEL 14
REMARK VINA RESULT:      -3.6      7.216      8.563
REMARK  0 active torsions:
REMARK  status: ('A' for Active; 'I' for Inactive)
ROOT
HETATM    1 CL   LIG     1      14.859  30.868  20.275  1.00  0.00    -0.084 Cl
HETATM    2  C   LIG     1      14.913  32.144  19.074  1.00  0.00     0.034 A 
HETATM    3  C   LIG     1      15.427  33.402  19.411  1.00  0.00     0.024 A 
HETATM    4  C   LIG     1      15.469  34.420  18.452  1.00  0.00     0.002 A 
HETATM    5  C   LIG     1      14.998  34.182  17.157  1.00  0.00     0.000 A 
HETATM    6  C   LIG     1      14.484  32.925  16.819  1.00  0.00     0.002 A 
HETATM    7  C   LIG     1      14.441  31.907  17.777  1.00  0.00     0.024 A 
ENDROOT
TORSDOF 0
ENDMDL
MODEL 15
REMARK VINA RESULT:      -3.6     12.144     13.281
REMARK  0 active torsions:
REMARK  status: ('A' for Active; 'I' for Inactive)
ROOT
HETATM    1 CL   LIG     1      14.961  31.810  15.625  1.00  0.00    -0.084 Cl
HETATM    2  C   LIG     1      14.553  30.285  14.861  1.00  0.00     0.034 A 
HETATM    3  C   LIG     1      15.563  29.482  14.316  1.00  0.00     0.024 A 
HETATM    4  C   LIG     1      15.238  28.266  13.707  1.00  0.00     0.002 A 
HETATM    5  C   LIG     1      13.903  27.851  13.640  1.00  0.00     0.000 A 
HETATM    6  C   LIG     1      12.894  28.652  14.184  1.00  0.00     0.002 A 
HETATM    7  C   LIG     1      13.218  29.868  14.793  1.00  0.00     0.024 A 
ENDROOT
TORSDOF 0
ENDMDL
MODEL 16
REMARK VINA RESULT:      -3.5     15.932     16.713
REMARK  0 active torsions:
REMARK  status: ('A' for Active; 'I' for Inactive)
ROOT
HETATM    1 CL   LIG     1      19.448  23.180  32.249  1.00  0.00    -0.084 Cl
HETATM    2  C   LIG     1      20.229  23.048  33.814  1.00  0.00     0.034 A 
HETATM    3  C   LIG     1      19.561  22.433  34.880  1.00  0.00     0.024 A 
HETATM    4  C   LIG     1      20.184  22.328  36.128  1.00  0.00     0.002 A 
HETATM    5  C   LIG     1      21.474  22.838  36.312  1.00  0.00     0.000 A 
HETATM    6  C   LIG     1      22.142  23.452  35.247  1.00  0.00     0.002 A 
HETATM    7  C   LIG     1      21.520  23.557  33.999  1.00  0.00     0.024 A 
ENDROOT
TORSDOF 0
ENDMDL
MODEL 17
REMARK VINA RESULT:      -3.5     13.240     14.071
REMARK  0 active torsions:
REMARK  status: ('A' for Active; 'I' for Inactive)
ROOT
HETATM    1 CL   LIG     1      20.770  33.903  12.329  1.00  0.00    -0.084 Cl
HETATM    2  C   LIG     1      22.064  35.083  12.243  1.00  0.00     0.034 A 
HETATM    3  C   LIG     1      22.883  35.308  13.357  1.00  0.00     0.024 A 
HETATM    4  C   LIG     1      23.915  36.249  13.288  1.00  0.00     0.002 A 
HETATM    5  C   LIG     1      24.130  36.967  12.107  1.00  0.00     0.000 A 
HETATM    6  C   LIG     1      23.314  36.743  10.994  1.00  0.00     0.002 A 
HETATM    7  C   LIG     1      22.282  35.802  11.061  1.00  0.00     0.024 A 
ENDROOT
TORSDOF 0
ENDMDL
MODEL 18
REMARK VINA RESULT:      -3.4     13.494     14.387
REMARK  0 active torsions:
REMARK  status: ('A' for Active; 'I' for Inactive)
ROOT
HETATM    1 CL   LIG     1      22.476  36.338  10.160  1.00  0.00    -0.084 Cl
HETATM    2  C   LIG     1      21.287  35.257  10.861  1.00  0.00     0.034 A 
HETATM    3  C   LIG     1      20.103  34.974  10.169  1.00  0.00     0.024 A 
HETATM    4  C   LIG     1      19.155  34.111  10.728  1.00  0.00     0.002 A 
HETATM    5  C   LIG     1      19.388  33.531  11.980  1.00  0.00     0.000 A 
HETATM    6  C   LIG     1      20.571  33.813  12.672  1.00  0.00     0.002 A 
HETATM    7  C   LIG     1      21.520  34.675  12.114  1.00  0.00     0.024 A 
ENDROOT
TORSDOF 0
ENDMDL
MODEL 19
REMARK VINA RESULT:      -3.4     16.508     17.243
REMARK  0 active torsions:
REMARK  status: ('A' for Active; 'I' for Inactive)
ROOT
HETATM    1 CL   LIG     1      22.455  23.553  37.518  1.00  0.00    -0.084 Cl
HETATM    2  C   LIG     1      21.520  23.312  36.054  1.00  0.00     0.034 A 
HETATM    3  C   LIG     1      22.101  23.559  34.804  1.00  0.00     0.024 A 
HETATM    4  C   LIG     1      21.356  23.367  33.636  1.00  0.00     0.002 A 
HETATM    5  C   LIG     1      20.029  22.930  33.716  1.00  0.00     0.000 A 
HETATM    6  C   LIG     1      19.448  22.683  34.964  1.00  0.00     0.002 A 
HETATM    7  C   LIG     1      20.193  22.874  36.132  1.00  0.00     0.024 A 
ENDROOT
TORSDOF 0
ENDMDL
