REMARK  0 active torsions:
REMARK  status: ('A' for Active; 'I' for Inactive)
ROOT
HETATM    1  C   LIG     1       2.217   0.071  -0.122  1.00  0.00     0.048 C 
HETATM    2  C   LIG     1       0.721   0.015  -0.040  1.00  0.00    -0.062 A 
HETATM    3  C   LIG     1      -0.022   1.206  -0.037  1.00  0.00     0.007 A 
HETATM    4  C   LIG     1      -1.418   1.165   0.039  1.00  0.00     0.001 A 
HETATM    5  C   LIG     1      -2.080  -0.064   0.115  1.00  0.00     0.000 A 
HETATM    6  C   LIG     1      -1.347  -1.254   0.113  1.00  0.00     0.001 A 
HETATM    7  C   LIG     1       0.049  -1.217   0.036  1.00  0.00     0.007 A 
ENDROOT
TORSDOF 0
