MODEL 1
REMARK VINA RESULT:      -4.6      0.000      0.000
REMARK  2 active torsions:
REMARK  status: ('A' for Active; 'I' for Inactive)
REMARK    1  A    between atoms: C_2  and  O_3 
REMARK    2  A    between atoms: O_3  and  C_4 
ROOT
HETATM    1  O   LIG     1      17.218  36.420  24.116  1.00  0.00    -0.317 OA
ENDROOT
BRANCH   1   2
HETATM    2  C   LIG     1      16.718  37.587  23.528  1.00  0.00     0.255 C 
HETATM    3  C   LIG     1      17.487  38.236  22.428  1.00  0.00     0.126 C 
HETATM    4  O   LIG     1      15.626  38.087  23.911  1.00  0.00    -0.266 OA
ENDBRANCH   1   2
BRANCH   1   5
HETATM    5  C   LIG     1      17.414  36.266  25.522  1.00  0.00     0.123 C 
HETATM    6  C   LIG     1      18.635  37.070  25.978  1.00  0.00     0.040 C 
HETATM    7  C   LIG     1      17.604  34.783  25.836  1.00  0.00     0.040 C 
ENDBRANCH   1   5
TORSDOF 2
ENDMDL
MODEL 2
REMARK VINA RESULT:      -4.3      1.266      3.453
REMARK  2 active torsions:
REMARK  status: ('A' for Active; 'I' for Inactive)
REMARK    1  A    between atoms: C_2  and  O_3 
REMARK    2  A    between atoms: O_3  and  C_4 
ROOT
HETATM    1  O   LIG     1      17.220  36.725  23.921  1.00  0.00    -0.317 OA
ENDROOT
BRANCH   1   2
HETATM    2  C   LIG     1      17.441  37.360  25.149  1.00  0.00     0.255 C 
HETATM    3  C   LIG     1      18.412  36.765  26.112  1.00  0.00     0.126 C 
HETATM    4  O   LIG     1      16.837  38.427  25.444  1.00  0.00    -0.266 OA
ENDBRANCH   1   2
BRANCH   1   5
HETATM    5  C   LIG     1      16.576  37.354  22.813  1.00  0.00     0.123 C 
HETATM    6  C   LIG     1      15.972  36.298  21.883  1.00  0.00     0.040 C 
HETATM    7  C   LIG     1      17.601  38.202  22.062  1.00  0.00     0.040 C 
ENDBRANCH   1   5
TORSDOF 2
ENDMDL
MODEL 3
REMARK VINA RESULT:      -4.1      1.090      3.401
REMARK  2 active torsions:
REMARK  status: ('A' for Active; 'I' for Inactive)
REMARK    1  A    between atoms: C_2  and  O_3 
REMARK    2  A    between atoms: O_3  and  C_4 
ROOT
HETATM    1  O   LIG     1      16.808  37.128  24.431  1.00  0.00    -0.317 OA
ENDROOT
BRANCH   1   2
HETATM    2  C   LIG     1      17.499  36.192  25.209  1.00  0.00     0.255 C 
HETATM    3  C   LIG     1      18.402  36.672  26.295  1.00  0.00     0.126 C 
HETATM    4  O   LIG     1      17.362  34.955  25.008  1.00  0.00    -0.266 OA
ENDBRANCH   1   2
BRANCH   1   5
HETATM    5  C   LIG     1      17.103  37.384  23.058  1.00  0.00     0.123 C 
HETATM    6  C   LIG     1      17.094  38.891  22.786  1.00  0.00     0.040 C 
HETATM    7  C   LIG     1      16.062  36.679  22.189  1.00  0.00     0.040 C 
ENDBRANCH   1   5
TORSDOF 2
ENDMDL
MODEL 4
REMARK VINA RESULT:      -4.1      2.450      3.324
REMARK  2 active torsions:
REMARK  status: ('A' for Active; 'I' for Inactive)
REMARK    1  A    between atoms: C_2  and  O_3 
REMARK    2  A    between atoms: O_3  and  C_4 
ROOT
HETATM    1  O   LIG     1      15.769  37.014  22.075  1.00  0.00    -0.317 OA
ENDROOT
BRANCH   1   2
HETATM    2  C   LIG     1      16.262  37.991  22.946  1.00  0.00     0.255 C 
HETATM    3  C   LIG     1      17.254  38.983  22.442  1.00  0.00     0.126 C 
HETATM    4  O   LIG     1      15.872  38.046  24.144  1.00  0.00    -0.266 OA
ENDBRANCH   1   2
BRANCH   1   5
HETATM    5  C   LIG     1      16.570  35.964  21.533  1.00  0.00     0.123 C 
HETATM    6  C   LIG     1      15.788  35.202  20.458  1.00  0.00     0.040 C 
HETATM    7  C   LIG     1      16.980  35.021  22.662  1.00  0.00     0.040 C 
ENDBRANCH   1   5
TORSDOF 2
ENDMDL
MODEL 5
REMARK VINA RESULT:      -3.8      3.093      3.903
REMARK  2 active torsions:
REMARK  status: ('A' for Active; 'I' for Inactive)
REMARK    1  A    between atoms: C_2  and  O_3 
REMARK    2  A    between atoms: O_3  and  C_4 
ROOT
HETATM    1  O   LIG     1      17.415  36.097  20.824  1.00  0.00    -0.317 OA
ENDROOT
BRANCH   1   2
HETATM    2  C   LIG     1      18.240  37.189  20.529  1.00  0.00     0.255 C 
HETATM    3  C   LIG     1      19.250  37.065  19.439  1.00  0.00     0.126 C 
HETATM    4  O   LIG     1      18.132  38.272  21.166  1.00  0.00    -0.266 OA
ENDBRANCH   1   2
BRANCH   1   5
HETATM    5  C   LIG     1      16.457  36.096  21.882  1.00  0.00     0.123 C 
HETATM    6  C   LIG     1      16.912  35.162  23.008  1.00  0.00     0.040 C 
HETATM    7  C   LIG     1      15.108  35.644  21.327  1.00  0.00     0.040 C 
ENDBRANCH   1   5
TORSDOF 2
ENDMDL
MODEL 6
REMARK VINA RESULT:      -3.8      3.308      4.547
REMARK  2 active torsions:
REMARK  status: ('A' for Active; 'I' for Inactive)
REMARK    1  A    between atoms: C_2  and  O_3 
REMARK    2  A    between atoms: O_3  and  C_4 
ROOT
HETATM    1  O   LIG     1      18.325  37.032  20.910  1.00  0.00    -0.317 OA
ENDROOT
BRANCH   1   2
HETATM    2  C   LIG     1      17.381  36.001  20.834  1.00  0.00     0.255 C 
HETATM    3  C   LIG     1      17.018  35.254  22.072  1.00  0.00     0.126 C 
HETATM    4  O   LIG     1      16.833  35.705  19.738  1.00  0.00    -0.266 OA
ENDBRANCH   1   2
BRANCH   1   5
HETATM    5  C   LIG     1      17.979  38.408  21.062  1.00  0.00     0.123 C 
HETATM    6  C   LIG     1      18.972  39.291  20.301  1.00  0.00     0.040 C 
HETATM    7  C   LIG     1      17.985  38.759  22.549  1.00  0.00     0.040 C 
ENDBRANCH   1   5
TORSDOF 2
ENDMDL
MODEL 7
REMARK VINA RESULT:      -3.8      4.317      5.054
REMARK  2 active torsions:
REMARK  status: ('A' for Active; 'I' for Inactive)
REMARK    1  A    between atoms: C_2  and  O_3 
REMARK    2  A    between atoms: O_3  and  C_4 
ROOT
HETATM    1  O   LIG     1      16.271  34.753  20.155  1.00  0.00    -0.317 OA
ENDROOT
BRANCH   1   2
HETATM    2  C   LIG     1      15.393  33.736  20.545  1.00  0.00     0.255 C 
HETATM    3  C   LIG     1      15.479  32.404  19.880  1.00  0.00     0.126 C 
HETATM    4  O   LIG     1      14.540  33.931  21.453  1.00  0.00    -0.266 OA
ENDBRANCH   1   2
BRANCH   1   5
HETATM    5  C   LIG     1      16.744  35.769  21.040  1.00  0.00     0.123 C 
HETATM    6  C   LIG     1      17.932  36.506  20.413  1.00  0.00     0.040 C 
HETATM    7  C   LIG     1      17.155  35.122  22.361  1.00  0.00     0.040 C 
ENDBRANCH   1   5
TORSDOF 2
ENDMDL
MODEL 8
REMARK VINA RESULT:      -3.8      2.347      3.399
REMARK  2 active torsions:
REMARK  status: ('A' for Active; 'I' for Inactive)
REMARK    1  A    between atoms: C_2  and  O_3 
REMARK    2  A    between atoms: O_3  and  C_4 
ROOT
HETATM    1  O   LIG     1      16.983  36.422  22.561  1.00  0.00    -0.317 OA
ENDROOT
BRANCH   1   2
HETATM    2  C   LIG     1      16.520  35.980  21.316  1.00  0.00     0.255 C 
HETATM    3  C   LIG     1      15.082  35.616  21.161  1.00  0.00     0.126 C 
HETATM    4  O   LIG     1      17.300  35.894  20.329  1.00  0.00    -0.266 OA
ENDBRANCH   1   2
BRANCH   1   5
HETATM    5  C   LIG     1      16.533  37.623  23.189  1.00  0.00     0.123 C 
HETATM    6  C   LIG     1      17.062  38.846  22.433  1.00  0.00     0.040 C 
HETATM    7  C   LIG     1      17.022  37.638  24.636  1.00  0.00     0.040 C 
ENDBRANCH   1   5
TORSDOF 2
ENDMDL
MODEL 9
REMARK VINA RESULT:      -3.8      4.084      5.000
REMARK  2 active torsions:
REMARK  status: ('A' for Active; 'I' for Inactive)
REMARK    1  A    between atoms: C_2  and  O_3 
REMARK    2  A    between atoms: O_3  and  C_4 
ROOT
HETATM    1  O   LIG     1      16.895  35.941  19.871  1.00  0.00    -0.317 OA
ENDROOT
BRANCH   1   2
HETATM    2  C   LIG     1      15.975  35.061  20.452  1.00  0.00     0.255 C 
HETATM    3  C   LIG     1      14.863  35.612  21.279  1.00  0.00     0.126 C 
HETATM    4  O   LIG     1      16.071  33.816  20.277  1.00  0.00    -0.266 OA
ENDBRANCH   1   2
BRANCH   1   5
HETATM    5  C   LIG     1      18.036  36.456  20.558  1.00  0.00     0.123 C 
HETATM    6  C   LIG     1      17.641  37.668  21.407  1.00  0.00     0.040 C 
HETATM    7  C   LIG     1      19.097  36.847  19.531  1.00  0.00     0.040 C 
ENDBRANCH   1   5
TORSDOF 2
ENDMDL
MODEL 10
REMARK VINA RESULT:      -3.8      2.545      4.307
REMARK  2 active torsions:
REMARK  status: ('A' for Active; 'I' for Inactive)
REMARK    1  A    between atoms: C_2  and  O_3 
REMARK    2  A    between atoms: O_3  and  C_4 
ROOT
HETATM    1  O   LIG     1      17.237  37.329  21.210  1.00  0.00    -0.317 OA
ENDROOT
BRANCH   1   2
HETATM    2  C   LIG     1      16.991  36.708  22.440  1.00  0.00     0.255 C 
HETATM    3  C   LIG     1      16.890  35.222  22.498  1.00  0.00     0.126 C 
HETATM    4  O   LIG     1      16.863  37.388  23.494  1.00  0.00    -0.266 OA
ENDBRANCH   1   2
BRANCH   1   5
HETATM    5  C   LIG     1      18.536  37.734  20.777  1.00  0.00     0.123 C 
HETATM    6  C   LIG     1      18.592  39.256  20.619  1.00  0.00     0.040 C 
HETATM    7  C   LIG     1      18.850  37.049  19.448  1.00  0.00     0.040 C 
ENDBRANCH   1   5
TORSDOF 2
ENDMDL
MODEL 11
REMARK VINA RESULT:      -3.8      8.463      9.088
REMARK  2 active torsions:
REMARK  status: ('A' for Active; 'I' for Inactive)
REMARK    1  A    between atoms: C_2  and  O_3 
REMARK    2  A    between atoms: O_3  and  C_4 
ROOT
HETATM    1  O   LIG     1      15.942  32.500  17.149  1.00  0.00    -0.317 OA
ENDROOT
BRANCH   1   2
HETATM    2  C   LIG     1      16.105  33.253  15.982  1.00  0.00     0.255 C 
HETATM    3  C   LIG     1      16.340  32.551  14.688  1.00  0.00     0.126 C 
HETATM    4  O   LIG     1      16.047  34.513  16.011  1.00  0.00    -0.266 OA
ENDBRANCH   1   2
BRANCH   1   5
HETATM    5  C   LIG     1      14.709  32.407  17.863  1.00  0.00     0.123 C 
HETATM    6  C   LIG     1      14.958  31.906  19.289  1.00  0.00     0.040 C 
HETATM    7  C   LIG     1      13.777  31.453  17.118  1.00  0.00     0.040 C 
ENDBRANCH   1   5
TORSDOF 2
ENDMDL
MODEL 12
REMARK VINA RESULT:      -3.7      8.816      9.642
REMARK  2 active torsions:
REMARK  status: ('A' for Active; 'I' for Inactive)
REMARK    1  A    between atoms: C_2  and  O_3 
REMARK    2  A    between atoms: O_3  and  C_4 
ROOT
HETATM    1  O   LIG     1      13.992  32.143  17.435  1.00  0.00    -0.317 OA
ENDROOT
BRANCH   1   2
HETATM    2  C   LIG     1      14.831  32.403  18.525  1.00  0.00     0.255 C 
HETATM    3  C   LIG     1      14.833  31.464  19.683  1.00  0.00     0.126 C 
HETATM    4  O   LIG     1      15.586  33.413  18.534  1.00  0.00    -0.266 OA
ENDBRANCH   1   2
BRANCH   1   5
HETATM    5  C   LIG     1      14.244  31.118  16.473  1.00  0.00     0.123 C 
HETATM    6  C   LIG     1      15.139  31.652  15.352  1.00  0.00     0.040 C 
HETATM    7  C   LIG     1      12.910  30.635  15.906  1.00  0.00     0.040 C 
ENDBRANCH   1   5
TORSDOF 2
ENDMDL
MODEL 13
REMARK VINA RESULT:      -3.7      7.525      8.559
REMARK  2 active torsions:
REMARK  status: ('A' for Active; 'I' for Inactive)
REMARK    1  A    between atoms: C_2  and  O_3 
REMARK    2  A    between atoms: O_3  and  C_4 
ROOT
HETATM    1  O   LIG     1      15.652  32.321  18.294  1.00  0.00    -0.317 OA
ENDROOT
BRANCH   1   2
HETATM    2  C   LIG     1      15.278  32.415  19.639  1.00  0.00     0.255 C 
HETATM    3  C   LIG     1      15.580  33.665  20.394  1.00  0.00     0.126 C 
HETATM    4  O   LIG     1      14.687  31.461  20.215  1.00  0.00    -0.266 OA
ENDBRANCH   1   2
BRANCH   1   5
HETATM    5  C   LIG     1      14.799  32.691  17.211  1.00  0.00     0.123 C 
HETATM    6  C   LIG     1      13.748  31.604  16.969  1.00  0.00     0.040 C 
HETATM    7  C   LIG     1      15.649  32.898  15.959  1.00  0.00     0.040 C 
ENDBRANCH   1   5
TORSDOF 2
ENDMDL
MODEL 14
REMARK VINA RESULT:      -3.6     11.496     12.811
REMARK  2 active torsions:
REMARK  status: ('A' for Active; 'I' for Inactive)
REMARK    1  A    between atoms: C_2  and  O_3 
REMARK    2  A    between atoms: O_3  and  C_4 
ROOT
HETATM    1  O   LIG     1      18.437  32.916  12.361  1.00  0.00    -0.317 OA
ENDROOT
BRANCH   1   2
HETATM    2  C   LIG     1      17.813  33.751  13.295  1.00  0.00     0.255 C 
HETATM    3  C   LIG     1      17.644  33.276  14.698  1.00  0.00     0.126 C 
HETATM    4  O   LIG     1      17.402  34.897  12.966  1.00  0.00    -0.266 OA
ENDBRANCH   1   2
BRANCH   1   5
HETATM    5  C   LIG     1      19.547  33.320  11.559  1.00  0.00     0.123 C 
HETATM    6  C   LIG     1      19.968  32.182  10.625  1.00  0.00     0.040 C 
HETATM    7  C   LIG     1      20.703  33.712  12.477  1.00  0.00     0.040 C 
ENDBRANCH   1   5
TORSDOF 2
ENDMDL
MODEL 15
REMARK VINA RESULT:      -3.6      7.610      8.016
REMARK  2 active torsions:
REMARK  status: ('A' for Active; 'I' for Inactive)
REMARK    1  A    between atoms: C_2  and  O_3 
REMARK    2  A    between atoms: O_3  and  C_4 
ROOT
HETATM    1  O   LIG     1      15.653  32.585  18.176  1.00  0.00    -0.317 OA
ENDROOT
BRANCH   1   2
HETATM    2  C   LIG     1      14.978  32.546  16.951  1.00  0.00     0.255 C 
HETATM    3  C   LIG     1      15.766  32.563  15.685  1.00  0.00     0.126 C 
HETATM    4  O   LIG     1      13.719  32.491  16.906  1.00  0.00    -0.266 OA
ENDBRANCH   1   2
BRANCH   1   5
HETATM    5  C   LIG     1      14.990  32.641  19.440  1.00  0.00     0.123 C 
HETATM    6  C   LIG     1      15.720  33.608  20.378  1.00  0.00     0.040 C 
HETATM    7  C   LIG     1      14.955  31.238  20.043  1.00  0.00     0.040 C 
ENDBRANCH   1   5
TORSDOF 2
ENDMDL
MODEL 16
REMARK VINA RESULT:      -3.6     11.001     11.774
REMARK  2 active torsions:
REMARK  status: ('A' for Active; 'I' for Inactive)
REMARK    1  A    between atoms: C_2  and  O_3 
REMARK    2  A    between atoms: O_3  and  C_4 
ROOT
HETATM    1  O   LIG     1      13.882  30.613  14.964  1.00  0.00    -0.317 OA
ENDROOT
BRANCH   1   2
HETATM    2  C   LIG     1      13.581  31.004  16.274  1.00  0.00     0.255 C 
HETATM    3  C   LIG     1      14.421  32.044  16.935  1.00  0.00     0.126 C 
HETATM    4  O   LIG     1      12.609  30.494  16.894  1.00  0.00    -0.266 OA
ENDBRANCH   1   2
BRANCH   1   5
HETATM    5  C   LIG     1      15.203  30.309  14.516  1.00  0.00     0.123 C 
HETATM    6  C   LIG     1      15.652  31.326  13.462  1.00  0.00     0.040 C 
HETATM    7  C   LIG     1      15.214  28.897  13.932  1.00  0.00     0.040 C 
ENDBRANCH   1   5
TORSDOF 2
ENDMDL
MODEL 17
REMARK VINA RESULT:      -3.6     10.348     11.201
REMARK  2 active torsions:
REMARK  status: ('A' for Active; 'I' for Inactive)
REMARK    1  A    between atoms: C_2  and  O_3 
REMARK    2  A    between atoms: O_3  and  C_4 
ROOT
HETATM    1  O   LIG     1      15.213  31.722  14.771  1.00  0.00    -0.317 OA
ENDROOT
BRANCH   1   2
HETATM    2  C   LIG     1      15.915  32.540  15.662  1.00  0.00     0.255 C 
HETATM    3  C   LIG     1      15.156  33.387  16.627  1.00  0.00     0.126 C 
HETATM    4  O   LIG     1      17.176  32.563  15.663  1.00  0.00    -0.266 OA
ENDBRANCH   1   2
BRANCH   1   5
HETATM    5  C   LIG     1      14.786  30.396  15.085  1.00  0.00     0.123 C 
HETATM    6  C   LIG     1      15.085  29.452  13.916  1.00  0.00     0.040 C 
HETATM    7  C   LIG     1      13.288  30.416  15.384  1.00  0.00     0.040 C 
ENDBRANCH   1   5
TORSDOF 2
ENDMDL
MODEL 18
REMARK VINA RESULT:      -3.5      9.639     10.416
REMARK  2 active torsions:
REMARK  status: ('A' for Active; 'I' for Inactive)
REMARK    1  A    between atoms: C_2  and  O_3 
REMARK    2  A    between atoms: O_3  and  C_4 
ROOT
HETATM    1  O   LIG     1      15.767  32.148  15.865  1.00  0.00    -0.317 OA
ENDROOT
BRANCH   1   2
HETATM    2  C   LIG     1      15.753  31.860  14.496  1.00  0.00     0.255 C 
HETATM    3  C   LIG     1      15.292  30.517  14.039  1.00  0.00     0.126 C 
HETATM    4  O   LIG     1      16.116  32.721  13.650  1.00  0.00    -0.266 OA
ENDBRANCH   1   2
BRANCH   1   5
HETATM    5  C   LIG     1      14.671  32.745  16.558  1.00  0.00     0.123 C 
HETATM    6  C   LIG     1      15.040  34.160  17.014  1.00  0.00     0.040 C 
HETATM    7  C   LIG     1      14.311  31.874  17.760  1.00  0.00     0.040 C 
ENDBRANCH   1   5
TORSDOF 2
ENDMDL
MODEL 19
REMARK VINA RESULT:      -3.5     10.204     11.001
REMARK  2 active torsions:
REMARK  status: ('A' for Active; 'I' for Inactive)
REMARK    1  A    between atoms: C_2  and  O_3 
REMARK    2  A    between atoms: O_3  and  C_4 
ROOT
HETATM    1  O   LIG     1      16.897  32.061  14.810  1.00  0.00    -0.317 OA
ENDROOT
BRANCH   1   2
HETATM    2  C   LIG     1      17.421  33.350  14.662  1.00  0.00     0.255 C 
HETATM    3  C   LIG     1      18.449  33.602  13.611  1.00  0.00     0.126 C 
HETATM    4  O   LIG     1      17.030  34.296  15.398  1.00  0.00    -0.266 OA
ENDBRANCH   1   2
BRANCH   1   5
HETATM    5  C   LIG     1      15.521  31.740  14.604  1.00  0.00     0.123 C 
HETATM    6  C   LIG     1      14.792  31.645  15.948  1.00  0.00     0.040 C 
HETATM    7  C   LIG     1      15.429  30.414  13.853  1.00  0.00     0.040 C 
ENDBRANCH   1   5
TORSDOF 2
ENDMDL
MODEL 20
REMARK VINA RESULT:      -3.5     11.327     12.317
REMARK  2 active torsions:
REMARK  status: ('A' for Active; 'I' for Inactive)
REMARK    1  A    between atoms: C_2  and  O_3 
REMARK    2  A    between atoms: O_3  and  C_4 
ROOT
HETATM    1  O   LIG     1      16.112  30.531  14.345  1.00  0.00    -0.317 OA
ENDROOT
BRANCH   1   2
HETATM    2  C   LIG     1      15.126  29.541  14.265  1.00  0.00     0.255 C 
HETATM    3  C   LIG     1      13.723  29.876  14.643  1.00  0.00     0.126 C 
HETATM    4  O   LIG     1      15.410  28.377  13.871  1.00  0.00    -0.266 OA
ENDBRANCH   1   2
BRANCH   1   5
HETATM    5  C   LIG     1      15.825  31.929  14.365  1.00  0.00     0.123 C 
HETATM    6  C   LIG     1      16.695  32.663  13.341  1.00  0.00     0.040 C 
HETATM    7  C   LIG     1      16.086  32.468  15.770  1.00  0.00     0.040 C 
ENDBRANCH   1   5
TORSDOF 2
ENDMDL
