MODEL 1
REMARK VINA RESULT:      -6.0      0.000      0.000
REMARK  1 active torsions:
REMARK  status: ('A' for Active; 'I' for Inactive)
REMARK    1  A    between atoms: O_1  and  C_2 
ROOT
HETATM    1  C   LIG     1      17.446  37.612  25.529  1.00  0.00     0.067 A 
HETATM    2  C   LIG     1      17.956  36.760  26.517  1.00  0.00     0.036 A 
HETATM    3  C   LIG     1      18.051  35.385  26.277  1.00  0.00     0.004 A 
HETATM    4  C   LIG     1      17.636  34.858  25.050  1.00  0.00     0.024 A 
HETATM    5  C   LIG     1      17.126  35.705  24.061  1.00  0.00     0.036 A 
HETATM    6 CL   LIG     1      16.606  35.043  22.521  1.00  0.00    -0.084 Cl
HETATM    7  C   LIG     1      17.031  37.082  24.299  1.00  0.00     0.060 A 
ENDROOT
BRANCH   1   8
HETATM    8  O   LIG     1      17.356  38.979  25.781  1.00  0.00    -0.361 OA
HETATM    9  H   LIG     1      17.958  39.643  25.311  1.00  0.00     0.217 HD
ENDBRANCH   1   8
TORSDOF 1
ENDMDL
MODEL 2
REMARK VINA RESULT:      -5.9      4.910      5.724
REMARK  1 active torsions:
REMARK  status: ('A' for Active; 'I' for Inactive)
REMARK    1  A    between atoms: O_1  and  C_2 
ROOT
HETATM    1  C   LIG     1      19.630  38.751  19.790  1.00  0.00     0.067 A 
HETATM    2  C   LIG     1      19.403  37.423  19.407  1.00  0.00     0.036 A 
HETATM    3  C   LIG     1      18.435  36.657  20.067  1.00  0.00     0.004 A 
HETATM    4  C   LIG     1      17.692  37.217  21.111  1.00  0.00     0.024 A 
HETATM    5  C   LIG     1      17.915  38.543  21.496  1.00  0.00     0.036 A 
HETATM    6 CL   LIG     1      16.982  39.245  22.806  1.00  0.00    -0.084 Cl
HETATM    7  C   LIG     1      18.883  39.310  20.837  1.00  0.00     0.060 A 
ENDROOT
BRANCH   1   8
HETATM    8  O   LIG     1      20.596  39.501  19.126  1.00  0.00    -0.361 OA
HETATM    9  H   LIG     1      21.566  39.211  19.101  1.00  0.00     0.217 HD
ENDBRANCH   1   8
TORSDOF 1
ENDMDL
MODEL 3
REMARK VINA RESULT:      -5.5      2.209      2.883
REMARK  1 active torsions:
REMARK  status: ('A' for Active; 'I' for Inactive)
REMARK    1  A    between atoms: O_1  and  C_2 
ROOT
HETATM    1  C   LIG     1      16.743  37.747  23.519  1.00  0.00     0.067 A 
HETATM    2  C   LIG     1      16.577  36.643  22.674  1.00  0.00     0.036 A 
HETATM    3  C   LIG     1      16.901  35.358  23.125  1.00  0.00     0.004 A 
HETATM    4  C   LIG     1      17.392  35.175  24.422  1.00  0.00     0.024 A 
HETATM    5  C   LIG     1      17.559  36.276  25.269  1.00  0.00     0.036 A 
HETATM    6 CL   LIG     1      18.176  36.045  26.896  1.00  0.00    -0.084 Cl
HETATM    7  C   LIG     1      17.235  37.561  24.818  1.00  0.00     0.060 A 
ENDROOT
BRANCH   1   8
HETATM    8  O   LIG     1      16.417  39.020  23.057  1.00  0.00    -0.361 OA
HETATM    9  H   LIG     1      16.939  39.837  23.349  1.00  0.00     0.217 HD
ENDBRANCH   1   8
TORSDOF 1
ENDMDL
MODEL 4
REMARK VINA RESULT:      -5.4      1.965      2.609
REMARK  1 active torsions:
REMARK  status: ('A' for Active; 'I' for Inactive)
REMARK    1  A    between atoms: O_1  and  C_2 
ROOT
HETATM    1  C   LIG     1      17.440  36.244  25.467  1.00  0.00     0.067 A 
HETATM    2  C   LIG     1      17.344  35.043  24.754  1.00  0.00     0.036 A 
HETATM    3  C   LIG     1      17.052  35.060  23.386  1.00  0.00     0.004 A 
HETATM    4  C   LIG     1      16.857  36.278  22.727  1.00  0.00     0.024 A 
HETATM    5  C   LIG     1      16.953  37.481  23.435  1.00  0.00     0.036 A 
HETATM    6 CL   LIG     1      16.708  39.009  22.608  1.00  0.00    -0.084 Cl
HETATM    7  C   LIG     1      17.244  37.465  24.805  1.00  0.00     0.060 A 
ENDROOT
BRANCH   1   8
HETATM    8  O   LIG     1      17.730  36.213  26.829  1.00  0.00    -0.361 OA
HETATM    9  H   LIG     1      18.604  36.573  27.192  1.00  0.00     0.217 HD
ENDBRANCH   1   8
TORSDOF 1
ENDMDL
MODEL 5
REMARK VINA RESULT:      -5.4      3.338      4.073
REMARK  1 active torsions:
REMARK  status: ('A' for Active; 'I' for Inactive)
REMARK    1  A    between atoms: O_1  and  C_2 
ROOT
HETATM    1  C   LIG     1      16.716  37.580  23.019  1.00  0.00     0.067 A 
HETATM    2  C   LIG     1      16.608  36.293  22.476  1.00  0.00     0.036 A 
HETATM    3  C   LIG     1      17.271  35.976  21.285  1.00  0.00     0.004 A 
HETATM    4  C   LIG     1      18.043  36.944  20.634  1.00  0.00     0.024 A 
HETATM    5  C   LIG     1      18.153  38.230  21.173  1.00  0.00     0.036 A 
HETATM    6 CL   LIG     1      19.121  39.444  20.355  1.00  0.00    -0.084 Cl
HETATM    7  C   LIG     1      17.490  38.549  22.365  1.00  0.00     0.060 A 
ENDROOT
BRANCH   1   8
HETATM    8  O   LIG     1      16.050  37.883  24.204  1.00  0.00    -0.361 OA
HETATM    9  H   LIG     1      15.772  38.831  24.426  1.00  0.00     0.217 HD
ENDBRANCH   1   8
TORSDOF 1
ENDMDL
MODEL 6
REMARK VINA RESULT:      -5.3      4.492      5.285
REMARK  1 active torsions:
REMARK  status: ('A' for Active; 'I' for Inactive)
REMARK    1  A    between atoms: O_1  and  C_2 
ROOT
HETATM    1  C   LIG     1      19.501  38.856  20.056  1.00  0.00     0.067 A 
HETATM    2  C   LIG     1      19.091  39.680  21.111  1.00  0.00     0.036 A 
HETATM    3  C   LIG     1      18.086  39.252  21.987  1.00  0.00     0.004 A 
HETATM    4  C   LIG     1      17.491  37.999  21.810  1.00  0.00     0.024 A 
HETATM    5  C   LIG     1      17.898  37.173  20.757  1.00  0.00     0.036 A 
HETATM    6 CL   LIG     1      17.149  35.601  20.535  1.00  0.00    -0.084 Cl
HETATM    7  C   LIG     1      18.903  37.600  19.880  1.00  0.00     0.060 A 
ENDROOT
BRANCH   1   8
HETATM    8  O   LIG     1      20.501  39.294  19.192  1.00  0.00    -0.361 OA
HETATM    9  H   LIG     1      20.618  38.889  18.271  1.00  0.00     0.217 HD
ENDBRANCH   1   8
TORSDOF 1
ENDMDL
MODEL 7
REMARK VINA RESULT:      -5.3      4.655      5.451
REMARK  1 active torsions:
REMARK  status: ('A' for Active; 'I' for Inactive)
REMARK    1  A    between atoms: O_1  and  C_2 
ROOT
HETATM    1  C   LIG     1      17.569  36.547  20.721  1.00  0.00     0.067 A 
HETATM    2  C   LIG     1      17.102  37.292  21.810  1.00  0.00     0.036 A 
HETATM    3  C   LIG     1      17.673  38.534  22.107  1.00  0.00     0.004 A 
HETATM    4  C   LIG     1      18.712  39.035  21.316  1.00  0.00     0.024 A 
HETATM    5  C   LIG     1      19.182  38.293  20.227  1.00  0.00     0.036 A 
HETATM    6 CL   LIG     1      20.487  38.921  19.236  1.00  0.00    -0.084 Cl
HETATM    7  C   LIG     1      18.612  37.050  19.929  1.00  0.00     0.060 A 
ENDROOT
BRANCH   1   8
HETATM    8  O   LIG     1      16.993  35.311  20.436  1.00  0.00    -0.361 OA
HETATM    9  H   LIG     1      15.988  35.199  20.372  1.00  0.00     0.217 HD
ENDBRANCH   1   8
TORSDOF 1
ENDMDL
MODEL 8
REMARK VINA RESULT:      -5.2      2.395      3.172
REMARK  1 active torsions:
REMARK  status: ('A' for Active; 'I' for Inactive)
REMARK    1  A    between atoms: O_1  and  C_2 
ROOT
HETATM    1  C   LIG     1      16.809  36.709  23.103  1.00  0.00     0.067 A 
HETATM    2  C   LIG     1      16.930  38.040  23.520  1.00  0.00     0.036 A 
HETATM    3  C   LIG     1      17.390  38.332  24.809  1.00  0.00     0.004 A 
HETATM    4  C   LIG     1      17.731  37.295  25.683  1.00  0.00     0.024 A 
HETATM    5  C   LIG     1      17.612  35.964  25.269  1.00  0.00     0.036 A 
HETATM    6 CL   LIG     1      18.039  34.662  26.367  1.00  0.00    -0.084 Cl
HETATM    7  C   LIG     1      17.151  35.670  23.980  1.00  0.00     0.060 A 
ENDROOT
BRANCH   1   8
HETATM    8  O   LIG     1      16.349  36.431  21.818  1.00  0.00    -0.361 OA
HETATM    9  H   LIG     1      15.370  36.523  21.576  1.00  0.00     0.217 HD
ENDBRANCH   1   8
TORSDOF 1
ENDMDL
MODEL 9
REMARK VINA RESULT:      -5.2      1.755      2.459
REMARK  1 active torsions:
REMARK  status: ('A' for Active; 'I' for Inactive)
REMARK    1  A    between atoms: O_1  and  C_2 
ROOT
HETATM    1  C   LIG     1      17.800  35.659  25.623  1.00  0.00     0.067 A 
HETATM    2  C   LIG     1      17.896  36.980  26.077  1.00  0.00     0.036 A 
HETATM    3  C   LIG     1      17.478  38.036  25.259  1.00  0.00     0.004 A 
HETATM    4  C   LIG     1      16.963  37.773  23.985  1.00  0.00     0.024 A 
HETATM    5  C   LIG     1      16.865  36.455  23.528  1.00  0.00     0.036 A 
HETATM    6 CL   LIG     1      16.219  36.126  21.930  1.00  0.00    -0.084 Cl
HETATM    7  C   LIG     1      17.283  35.398  24.346  1.00  0.00     0.060 A 
ENDROOT
BRANCH   1   8
HETATM    8  O   LIG     1      18.220  34.618  26.447  1.00  0.00    -0.361 OA
HETATM    9  H   LIG     1      19.204  34.419  26.586  1.00  0.00     0.217 HD
ENDBRANCH   1   8
TORSDOF 1
ENDMDL
MODEL 10
REMARK VINA RESULT:      -5.1      3.306      4.044
REMARK  1 active torsions:
REMARK  status: ('A' for Active; 'I' for Inactive)
REMARK    1  A    between atoms: O_1  and  C_2 
ROOT
HETATM    1  C   LIG     1      17.167  38.455  22.274  1.00  0.00     0.067 A 
HETATM    2  C   LIG     1      18.171  38.847  21.380  1.00  0.00     0.036 A 
HETATM    3  C   LIG     1      18.647  37.946  20.420  1.00  0.00     0.004 A 
HETATM    4  C   LIG     1      18.120  36.652  20.353  1.00  0.00     0.024 A 
HETATM    5  C   LIG     1      17.117  36.257  21.244  1.00  0.00     0.036 A 
HETATM    6 CL   LIG     1      16.457  34.633  21.159  1.00  0.00    -0.084 Cl
HETATM    7  C   LIG     1      16.640  37.158  22.205  1.00  0.00     0.060 A 
ENDROOT
BRANCH   1   8
HETATM    8  O   LIG     1      16.703  39.361  23.224  1.00  0.00    -0.361 OA
HETATM    9  H   LIG     1      17.339  39.849  23.844  1.00  0.00     0.217 HD
ENDBRANCH   1   8
TORSDOF 1
ENDMDL
MODEL 11
REMARK VINA RESULT:      -5.1      4.333      5.350
REMARK  1 active torsions:
REMARK  status: ('A' for Active; 'I' for Inactive)
REMARK    1  A    between atoms: O_1  and  C_2 
ROOT
HETATM    1  C   LIG     1      18.395  37.283  20.074  1.00  0.00     0.067 A 
HETATM    2  C   LIG     1      19.008  38.540  19.996  1.00  0.00     0.036 A 
HETATM    3  C   LIG     1      18.828  39.474  21.022  1.00  0.00     0.004 A 
HETATM    4  C   LIG     1      18.034  39.154  22.128  1.00  0.00     0.024 A 
HETATM    5  C   LIG     1      17.419  37.900  22.210  1.00  0.00     0.036 A 
HETATM    6 CL   LIG     1      16.422  37.500  23.597  1.00  0.00    -0.084 Cl
HETATM    7  C   LIG     1      17.599  36.965  21.183  1.00  0.00     0.060 A 
ENDROOT
BRANCH   1   8
HETATM    8  O   LIG     1      18.582  36.363  19.045  1.00  0.00    -0.361 OA
HETATM    9  H   LIG     1      18.131  35.456  19.059  1.00  0.00     0.217 HD
ENDBRANCH   1   8
TORSDOF 1
ENDMDL
MODEL 12
REMARK VINA RESULT:      -5.0      9.950     10.982
REMARK  1 active torsions:
REMARK  status: ('A' for Active; 'I' for Inactive)
REMARK    1  A    between atoms: O_1  and  C_2 
ROOT
HETATM    1  C   LIG     1      14.157  31.721  16.714  1.00  0.00     0.067 A 
HETATM    2  C   LIG     1      13.714  30.710  15.853  1.00  0.00     0.036 A 
HETATM    3  C   LIG     1      14.424  30.427  14.680  1.00  0.00     0.004 A 
HETATM    4  C   LIG     1      15.577  31.154  14.367  1.00  0.00     0.024 A 
HETATM    5  C   LIG     1      16.022  32.164  15.225  1.00  0.00     0.036 A 
HETATM    6 CL   LIG     1      17.469  33.076  14.831  1.00  0.00    -0.084 Cl
HETATM    7  C   LIG     1      15.313  32.449  16.399  1.00  0.00     0.060 A 
ENDROOT
BRANCH   1   8
HETATM    8  O   LIG     1      13.441  31.993  17.878  1.00  0.00    -0.361 OA
HETATM    9  H   LIG     1      12.435  31.883  17.917  1.00  0.00     0.217 HD
ENDBRANCH   1   8
TORSDOF 1
ENDMDL
MODEL 13
REMARK VINA RESULT:      -5.0      3.306      4.205
REMARK  1 active torsions:
REMARK  status: ('A' for Active; 'I' for Inactive)
REMARK    1  A    between atoms: O_1  and  C_2 
ROOT
HETATM    1  C   LIG     1      18.419  38.722  21.518  1.00  0.00     0.067 A 
HETATM    2  C   LIG     1      17.957  37.613  20.799  1.00  0.00     0.036 A 
HETATM    3  C   LIG     1      17.222  36.613  21.446  1.00  0.00     0.004 A 
HETATM    4  C   LIG     1      16.947  36.720  22.814  1.00  0.00     0.024 A 
HETATM    5  C   LIG     1      17.408  37.827  23.535  1.00  0.00     0.036 A 
HETATM    6 CL   LIG     1      17.064  37.960  25.251  1.00  0.00    -0.084 Cl
HETATM    7  C   LIG     1      18.144  38.827  22.889  1.00  0.00     0.060 A 
ENDROOT
BRANCH   1   8
HETATM    8  O   LIG     1      19.151  39.709  20.862  1.00  0.00    -0.361 OA
HETATM    9  H   LIG     1      20.095  39.538  20.535  1.00  0.00     0.217 HD
ENDBRANCH   1   8
TORSDOF 1
ENDMDL
MODEL 14
REMARK VINA RESULT:      -4.9     10.196     11.100
REMARK  1 active torsions:
REMARK  status: ('A' for Active; 'I' for Inactive)
REMARK    1  A    between atoms: O_1  and  C_2 
ROOT
HETATM    1  C   LIG     1      14.217  31.750  17.024  1.00  0.00     0.067 A 
HETATM    2  C   LIG     1      15.313  32.402  16.446  1.00  0.00     0.036 A 
HETATM    3  C   LIG     1      15.760  32.030  15.173  1.00  0.00     0.004 A 
HETATM    4  C   LIG     1      15.113  31.005  14.476  1.00  0.00     0.024 A 
HETATM    5  C   LIG     1      14.018  30.351  15.050  1.00  0.00     0.036 A 
HETATM    6 CL   LIG     1      13.206  29.064  14.174  1.00  0.00    -0.084 Cl
HETATM    7  C   LIG     1      13.569  30.722  16.323  1.00  0.00     0.060 A 
ENDROOT
BRANCH   1   8
HETATM    8  O   LIG     1      13.783  32.130  18.291  1.00  0.00    -0.361 OA
HETATM    9  H   LIG     1      14.200  32.912  18.781  1.00  0.00     0.217 HD
ENDBRANCH   1   8
TORSDOF 1
ENDMDL
MODEL 15
REMARK VINA RESULT:      -4.9      9.991     10.961
REMARK  1 active torsions:
REMARK  status: ('A' for Active; 'I' for Inactive)
REMARK    1  A    between atoms: O_1  and  C_2 
ROOT
HETATM    1  C   LIG     1      13.379  30.902  16.289  1.00  0.00     0.067 A 
HETATM    2  C   LIG     1      14.178  30.453  15.231  1.00  0.00     0.036 A 
HETATM    3  C   LIG     1      15.299  31.191  14.835  1.00  0.00     0.004 A 
HETATM    4  C   LIG     1      15.623  32.380  15.497  1.00  0.00     0.024 A 
HETATM    5  C   LIG     1      14.827  32.832  16.554  1.00  0.00     0.036 A 
HETATM    6 CL   LIG     1      15.234  34.324  17.383  1.00  0.00    -0.084 Cl
HETATM    7  C   LIG     1      13.705  32.094  16.951  1.00  0.00     0.060 A 
ENDROOT
BRANCH   1   8
HETATM    8  O   LIG     1      12.265  30.158  16.672  1.00  0.00    -0.361 OA
HETATM    9  H   LIG     1      12.225  29.692  17.571  1.00  0.00     0.217 HD
ENDBRANCH   1   8
TORSDOF 1
ENDMDL
MODEL 16
REMARK VINA RESULT:      -4.8     10.137     10.954
REMARK  1 active torsions:
REMARK  status: ('A' for Active; 'I' for Inactive)
REMARK    1  A    between atoms: O_1  and  C_2 
ROOT
HETATM    1  C   LIG     1      14.964  32.536  16.449  1.00  0.00     0.067 A 
HETATM    2  C   LIG     1      13.730  32.168  16.999  1.00  0.00     0.036 A 
HETATM    3  C   LIG     1      13.012  31.096  16.457  1.00  0.00     0.004 A 
HETATM    4  C   LIG     1      13.526  30.389  15.366  1.00  0.00     0.024 A 
HETATM    5  C   LIG     1      14.759  30.753  14.814  1.00  0.00     0.036 A 
HETATM    6 CL   LIG     1      15.403  29.866  13.444  1.00  0.00    -0.084 Cl
HETATM    7  C   LIG     1      15.478  31.826  15.355  1.00  0.00     0.060 A 
ENDROOT
BRANCH   1   8
HETATM    8  O   LIG     1      15.668  33.606  16.997  1.00  0.00    -0.361 OA
HETATM    9  H   LIG     1      15.580  34.543  16.623  1.00  0.00     0.217 HD
ENDBRANCH   1   8
TORSDOF 1
ENDMDL
MODEL 17
REMARK VINA RESULT:      -4.8     10.801     11.869
REMARK  1 active torsions:
REMARK  status: ('A' for Active; 'I' for Inactive)
REMARK    1  A    between atoms: O_1  and  C_2 
ROOT
HETATM    1  C   LIG     1      15.976  31.712  13.844  1.00  0.00     0.067 A 
HETATM    2  C   LIG     1      15.221  30.575  13.530  1.00  0.00     0.036 A 
HETATM    3  C   LIG     1      14.297  30.069  14.451  1.00  0.00     0.004 A 
HETATM    4  C   LIG     1      14.125  30.699  15.687  1.00  0.00     0.024 A 
HETATM    5  C   LIG     1      14.876  31.835  16.005  1.00  0.00     0.036 A 
HETATM    6 CL   LIG     1      14.660  32.625  17.557  1.00  0.00    -0.084 Cl
HETATM    7  C   LIG     1      15.801  32.342  15.084  1.00  0.00     0.060 A 
ENDROOT
BRANCH   1   8
HETATM    8  O   LIG     1      16.893  32.204  12.919  1.00  0.00    -0.361 OA
HETATM    9  H   LIG     1      17.823  31.811  12.835  1.00  0.00     0.217 HD
ENDBRANCH   1   8
TORSDOF 1
ENDMDL
MODEL 18
REMARK VINA RESULT:      -4.8     10.853     11.866
REMARK  1 active torsions:
REMARK  status: ('A' for Active; 'I' for Inactive)
REMARK    1  A    between atoms: O_1  and  C_2 
ROOT
HETATM    1  C   LIG     1      14.177  30.181  14.631  1.00  0.00     0.067 A 
HETATM    2  C   LIG     1      13.374  30.497  15.734  1.00  0.00     0.036 A 
HETATM    3  C   LIG     1      13.743  31.537  16.595  1.00  0.00     0.004 A 
HETATM    4  C   LIG     1      14.914  32.263  16.355  1.00  0.00     0.024 A 
HETATM    5  C   LIG     1      15.718  31.950  15.254  1.00  0.00     0.036 A 
HETATM    6 CL   LIG     1      17.188  32.861  14.954  1.00  0.00    -0.084 Cl
HETATM    7  C   LIG     1      15.351  30.910  14.392  1.00  0.00     0.060 A 
ENDROOT
BRANCH   1   8
HETATM    8  O   LIG     1      13.799  29.143  13.782  1.00  0.00    -0.361 OA
HETATM    9  H   LIG     1      13.433  29.325  12.855  1.00  0.00     0.217 HD
ENDBRANCH   1   8
TORSDOF 1
ENDMDL
MODEL 19
REMARK VINA RESULT:      -4.8     11.421     12.462
REMARK  1 active torsions:
REMARK  status: ('A' for Active; 'I' for Inactive)
REMARK    1  A    between atoms: O_1  and  C_2 
ROOT
HETATM    1  C   LIG     1      13.542  29.632  14.434  1.00  0.00     0.067 A 
HETATM    2  C   LIG     1      14.717  29.880  13.713  1.00  0.00     0.036 A 
HETATM    3  C   LIG     1      15.628  30.841  14.165  1.00  0.00     0.004 A 
HETATM    4  C   LIG     1      15.367  31.557  15.338  1.00  0.00     0.024 A 
HETATM    5  C   LIG     1      14.195  31.312  16.061  1.00  0.00     0.036 A 
HETATM    6 CL   LIG     1      13.867  32.211  17.532  1.00  0.00    -0.084 Cl
HETATM    7  C   LIG     1      13.282  30.351  15.610  1.00  0.00     0.060 A 
ENDROOT
BRANCH   1   8
HETATM    8  O   LIG     1      12.644  28.673  13.973  1.00  0.00    -0.361 OA
HETATM    9  H   LIG     1      11.643  28.799  14.067  1.00  0.00     0.217 HD
ENDBRANCH   1   8
TORSDOF 1
ENDMDL
MODEL 20
REMARK VINA RESULT:      -4.7     10.870     11.724
REMARK  1 active torsions:
REMARK  status: ('A' for Active; 'I' for Inactive)
REMARK    1  A    between atoms: O_1  and  C_2 
ROOT
HETATM    1  C   LIG     1      15.860  31.733  14.746  1.00  0.00     0.067 A 
HETATM    2  C   LIG     1      15.451  32.315  15.952  1.00  0.00     0.036 A 
HETATM    3  C   LIG     1      14.307  31.843  16.606  1.00  0.00     0.004 A 
HETATM    4  C   LIG     1      13.570  30.790  16.056  1.00  0.00     0.024 A 
HETATM    5  C   LIG     1      13.976  30.206  14.851  1.00  0.00     0.036 A 
HETATM    6 CL   LIG     1      13.050  28.884  14.161  1.00  0.00    -0.084 Cl
HETATM    7  C   LIG     1      15.120  30.677  14.196  1.00  0.00     0.060 A 
ENDROOT
BRANCH   1   8
HETATM    8  O   LIG     1      17.000  32.212  14.105  1.00  0.00    -0.361 OA
HETATM    9  H   LIG     1      17.040  32.303  13.096  1.00  0.00     0.217 HD
ENDBRANCH   1   8
TORSDOF 1
ENDMDL
