REMARK  0 active torsions:
REMARK  status: ('A' for Active; 'I' for Inactive)
ROOT
HETATM    1  C   LIG     1      -0.467   2.864  -0.161  1.00  0.00     0.048 C 
HETATM    2  C   LIG     1      -0.233   1.385  -0.060  1.00  0.00    -0.061 A 
HETATM    3  C   LIG     1      -1.303   0.501   0.150  1.00  0.00     0.013 A 
HETATM    4  C   LIG     1      -1.075  -0.880   0.243  1.00  0.00    -0.061 A 
HETATM    5  C   LIG     1      -2.227  -1.825   0.418  1.00  0.00     0.048 C 
HETATM    6  C   LIG     1       0.229  -1.378   0.098  1.00  0.00     0.013 A 
HETATM    7  C   LIG     1       1.307  -0.501  -0.093  1.00  0.00    -0.061 A 
HETATM    8  C   LIG     1       2.695  -1.040  -0.277  1.00  0.00     0.048 C 
HETATM    9  C   LIG     1       1.069   0.879  -0.184  1.00  0.00     0.013 A 
ENDROOT
TORSDOF 0
