REMARK  1 active torsions:
REMARK  status: ('A' for Active; 'I' for Inactive)
REMARK    1  A    between atoms: O_1  and  C_2 
ROOT
HETATM    1  C   LIG     1       1.121   0.084   0.049  1.00  0.00     0.065 A 
HETATM    2  C   LIG     1       0.412  -1.054   0.462  1.00  0.00     0.036 A 
HETATM    3  C   LIG     1      -0.983  -1.083   0.369  1.00  0.00     0.003 A 
HETATM    4  C   LIG     1      -1.674   0.023  -0.135  1.00  0.00     0.000 A 
HETATM    5  C   LIG     1      -0.971   1.159  -0.547  1.00  0.00     0.003 A 
HETATM    6  C   LIG     1       0.425   1.190  -0.455  1.00  0.00     0.036 A 
ENDROOT
BRANCH   1   7
HETATM    7  O   LIG     1       2.510   0.127   0.136  1.00  0.00    -0.361 OA
HETATM    8  H   LIG     1       3.042  -0.657   0.496  1.00  0.00     0.217 HD
ENDBRANCH   1   7
TORSDOF 1
