MODEL 1
REMARK VINA RESULT:      -5.8      0.000      0.000
REMARK  0 active torsions:
REMARK  status: ('A' for Active; 'I' for Inactive)
ROOT
HETATM    1 BR   LIG     1      16.466  37.794  22.806  1.00  0.00    -0.051 Br
HETATM    2  C   LIG     1      17.208  36.859  24.296  1.00  0.00     0.011 A 
HETATM    3  C   LIG     1      17.899  37.561  25.291  1.00  0.00     0.019 A 
HETATM    4  C   LIG     1      18.443  36.876  26.382  1.00  0.00     0.001 A 
HETATM    5  C   LIG     1      18.298  35.488  26.480  1.00  0.00     0.000 A 
HETATM    6  C   LIG     1      17.608  34.786  25.487  1.00  0.00     0.001 A 
HETATM    7  C   LIG     1      17.064  35.470  24.395  1.00  0.00     0.019 A 
ENDROOT
TORSDOF 0
ENDMDL
MODEL 2
REMARK VINA RESULT:      -5.8      0.052      1.832
REMARK  0 active torsions:
REMARK  status: ('A' for Active; 'I' for Inactive)
ROOT
HETATM    1 BR   LIG     1      16.454  37.868  22.870  1.00  0.00    -0.051 Br
HETATM    2  C   LIG     1      17.204  36.896  24.333  1.00  0.00     0.011 A 
HETATM    3  C   LIG     1      17.063  35.505  24.397  1.00  0.00     0.019 A 
HETATM    4  C   LIG     1      17.611  34.793  25.469  1.00  0.00     0.001 A 
HETATM    5  C   LIG     1      18.302  35.472  26.479  1.00  0.00     0.000 A 
HETATM    6  C   LIG     1      18.445  36.862  26.416  1.00  0.00     0.001 A 
HETATM    7  C   LIG     1      17.896  37.575  25.344  1.00  0.00     0.019 A 
ENDROOT
TORSDOF 0
ENDMDL
MODEL 3
REMARK VINA RESULT:      -5.6      1.043      2.071
REMARK  0 active torsions:
REMARK  status: ('A' for Active; 'I' for Inactive)
ROOT
HETATM    1 BR   LIG     1      16.549  35.323  22.318  1.00  0.00    -0.051 Br
HETATM    2  C   LIG     1      17.198  35.814  24.046  1.00  0.00     0.011 A 
HETATM    3  C   LIG     1      17.490  34.824  24.992  1.00  0.00     0.019 A 
HETATM    4  C   LIG     1      17.964  35.184  26.258  1.00  0.00     0.001 A 
HETATM    5  C   LIG     1      18.148  36.533  26.579  1.00  0.00     0.000 A 
HETATM    6  C   LIG     1      17.857  37.522  25.634  1.00  0.00     0.001 A 
HETATM    7  C   LIG     1      17.382  37.164  24.368  1.00  0.00     0.019 A 
ENDROOT
TORSDOF 0
ENDMDL
MODEL 4
REMARK VINA RESULT:      -5.4      4.192      5.434
REMARK  0 active torsions:
REMARK  status: ('A' for Active; 'I' for Inactive)
ROOT
HETATM    1 BR   LIG     1      16.785  35.455  21.568  1.00  0.00    -0.051 Br
HETATM    2  C   LIG     1      17.824  36.953  20.997  1.00  0.00     0.011 A 
HETATM    3  C   LIG     1      18.667  36.839  19.885  1.00  0.00     0.019 A 
HETATM    4  C   LIG     1      19.428  37.936  19.468  1.00  0.00     0.001 A 
HETATM    5  C   LIG     1      19.348  39.148  20.162  1.00  0.00     0.000 A 
HETATM    6  C   LIG     1      18.506  39.263  21.273  1.00  0.00     0.001 A 
HETATM    7  C   LIG     1      17.744  38.166  21.691  1.00  0.00     0.019 A 
ENDROOT
TORSDOF 0
ENDMDL
MODEL 5
REMARK VINA RESULT:      -5.4      4.271      5.287
REMARK  0 active torsions:
REMARK  status: ('A' for Active; 'I' for Inactive)
ROOT
HETATM    1 BR   LIG     1      16.776  35.489  21.362  1.00  0.00    -0.051 Br
HETATM    2  C   LIG     1      17.866  36.985  20.892  1.00  0.00     0.011 A 
HETATM    3  C   LIG     1      17.773  38.177  21.621  1.00  0.00     0.019 A 
HETATM    4  C   LIG     1      18.571  39.273  21.276  1.00  0.00     0.001 A 
HETATM    5  C   LIG     1      19.462  39.179  20.202  1.00  0.00     0.000 A 
HETATM    6  C   LIG     1      19.556  37.989  19.473  1.00  0.00     0.001 A 
HETATM    7  C   LIG     1      18.758  36.892  19.817  1.00  0.00     0.019 A 
ENDROOT
TORSDOF 0
ENDMDL
MODEL 6
REMARK VINA RESULT:      -5.3      4.098      5.426
REMARK  0 active torsions:
REMARK  status: ('A' for Active; 'I' for Inactive)
ROOT
HETATM    1 BR   LIG     1      16.419  37.525  22.914  1.00  0.00    -0.051 Br
HETATM    2  C   LIG     1      17.712  37.792  21.535  1.00  0.00     0.011 A 
HETATM    3  C   LIG     1      18.010  36.755  20.643  1.00  0.00     0.019 A 
HETATM    4  C   LIG     1      18.958  36.950  19.633  1.00  0.00     0.001 A 
HETATM    5  C   LIG     1      19.609  38.183  19.513  1.00  0.00     0.000 A 
HETATM    6  C   LIG     1      19.311  39.220  20.403  1.00  0.00     0.001 A 
HETATM    7  C   LIG     1      18.364  39.026  21.414  1.00  0.00     0.019 A 
ENDROOT
TORSDOF 0
ENDMDL
MODEL 7
REMARK VINA RESULT:      -5.1      3.980      4.584
REMARK  0 active torsions:
REMARK  status: ('A' for Active; 'I' for Inactive)
ROOT
HETATM    1 BR   LIG     1      20.079  38.860  19.450  1.00  0.00    -0.051 Br
HETATM    2  C   LIG     1      18.699  38.040  20.484  1.00  0.00     0.011 A 
HETATM    3  C   LIG     1      18.085  38.749  21.523  1.00  0.00     0.019 A 
HETATM    4  C   LIG     1      17.075  38.147  22.281  1.00  0.00     0.001 A 
HETATM    5  C   LIG     1      16.677  36.836  22.000  1.00  0.00     0.000 A 
HETATM    6  C   LIG     1      17.289  36.126  20.962  1.00  0.00     0.001 A 
HETATM    7  C   LIG     1      18.300  36.727  20.204  1.00  0.00     0.019 A 
ENDROOT
TORSDOF 0
ENDMDL
MODEL 8
REMARK VINA RESULT:      -5.1      3.988      4.906
REMARK  0 active torsions:
REMARK  status: ('A' for Active; 'I' for Inactive)
ROOT
HETATM    1 BR   LIG     1      20.075  38.866  19.445  1.00  0.00    -0.051 Br
HETATM    2  C   LIG     1      18.696  38.040  20.476  1.00  0.00     0.011 A 
HETATM    3  C   LIG     1      18.302  36.726  20.195  1.00  0.00     0.019 A 
HETATM    4  C   LIG     1      17.291  36.122  20.950  1.00  0.00     0.001 A 
HETATM    5  C   LIG     1      16.674  36.830  21.988  1.00  0.00     0.000 A 
HETATM    6  C   LIG     1      17.068  38.142  22.270  1.00  0.00     0.001 A 
HETATM    7  C   LIG     1      18.078  38.748  21.515  1.00  0.00     0.019 A 
ENDROOT
TORSDOF 0
ENDMDL
MODEL 9
REMARK VINA RESULT:      -5.1      2.221      3.693
REMARK  0 active torsions:
REMARK  status: ('A' for Active; 'I' for Inactive)
ROOT
HETATM    1 BR   LIG     1      17.793  35.007  26.207  1.00  0.00    -0.051 Br
HETATM    2  C   LIG     1      17.329  35.912  24.591  1.00  0.00     0.011 A 
HETATM    3  C   LIG     1      17.090  35.180  23.421  1.00  0.00     0.019 A 
HETATM    4  C   LIG     1      16.751  35.843  22.237  1.00  0.00     0.001 A 
HETATM    5  C   LIG     1      16.649  37.239  22.221  1.00  0.00     0.000 A 
HETATM    6  C   LIG     1      16.886  37.970  23.389  1.00  0.00     0.001 A 
HETATM    7  C   LIG     1      17.226  37.308  24.573  1.00  0.00     0.019 A 
ENDROOT
TORSDOF 0
ENDMDL
MODEL 10
REMARK VINA RESULT:      -4.6      9.974     11.029
REMARK  0 active torsions:
REMARK  status: ('A' for Active; 'I' for Inactive)
ROOT
HETATM    1 BR   LIG     1      17.274  33.077  14.849  1.00  0.00    -0.051 Br
HETATM    2  C   LIG     1      15.692  32.143  15.371  1.00  0.00     0.011 A 
HETATM    3  C   LIG     1      14.979  32.552  16.505  1.00  0.00     0.019 A 
HETATM    4  C   LIG     1      13.821  31.867  16.888  1.00  0.00     0.001 A 
HETATM    5  C   LIG     1      13.374  30.773  16.138  1.00  0.00     0.000 A 
HETATM    6  C   LIG     1      14.085  30.365  15.005  1.00  0.00     0.001 A 
HETATM    7  C   LIG     1      15.244  31.049  14.621  1.00  0.00     0.019 A 
ENDROOT
TORSDOF 0
ENDMDL
MODEL 11
REMARK VINA RESULT:      -4.5      2.387      3.202
REMARK  0 active torsions:
REMARK  status: ('A' for Active; 'I' for Inactive)
ROOT
HETATM    1 BR   LIG     1      18.342  39.197  20.973  1.00  0.00    -0.051 Br
HETATM    2  C   LIG     1      17.730  37.588  21.797  1.00  0.00     0.011 A 
HETATM    3  C   LIG     1      17.452  37.564  23.170  1.00  0.00     0.019 A 
HETATM    4  C   LIG     1      17.005  36.384  23.774  1.00  0.00     0.001 A 
HETATM    5  C   LIG     1      16.833  35.227  23.006  1.00  0.00     0.000 A 
HETATM    6  C   LIG     1      17.109  35.250  21.636  1.00  0.00     0.001 A 
HETATM    7  C   LIG     1      17.558  36.429  21.030  1.00  0.00     0.019 A 
ENDROOT
TORSDOF 0
ENDMDL
MODEL 12
REMARK VINA RESULT:      -4.4     10.200     11.140
REMARK  0 active torsions:
REMARK  status: ('A' for Active; 'I' for Inactive)
ROOT
HETATM    1 BR   LIG     1      15.169  29.526  13.731  1.00  0.00    -0.051 Br
HETATM    2  C   LIG     1      14.788  30.837  15.066  1.00  0.00     0.011 A 
HETATM    3  C   LIG     1      15.662  31.914  15.261  1.00  0.00     0.019 A 
HETATM    4  C   LIG     1      15.384  32.874  16.239  1.00  0.00     0.001 A 
HETATM    5  C   LIG     1      14.231  32.759  17.024  1.00  0.00     0.000 A 
HETATM    6  C   LIG     1      13.357  31.685  16.830  1.00  0.00     0.001 A 
HETATM    7  C   LIG     1      13.635  30.724  15.852  1.00  0.00     0.019 A 
ENDROOT
TORSDOF 0
ENDMDL
MODEL 13
REMARK VINA RESULT:      -4.4     10.562     11.810
REMARK  0 active torsions:
REMARK  status: ('A' for Active; 'I' for Inactive)
ROOT
HETATM    1 BR   LIG     1      14.947  33.183  17.142  1.00  0.00    -0.051 Br
HETATM    2  C   LIG     1      14.658  31.749  15.914  1.00  0.00     0.011 A 
HETATM    3  C   LIG     1      13.508  30.958  16.018  1.00  0.00     0.019 A 
HETATM    4  C   LIG     1      13.298  29.907  15.119  1.00  0.00     0.001 A 
HETATM    5  C   LIG     1      14.236  29.647  14.114  1.00  0.00     0.000 A 
HETATM    6  C   LIG     1      15.385  30.437  14.009  1.00  0.00     0.001 A 
HETATM    7  C   LIG     1      15.597  31.488  14.908  1.00  0.00     0.019 A 
ENDROOT
TORSDOF 0
ENDMDL
MODEL 14
REMARK VINA RESULT:      -4.2     10.540     11.776
REMARK  0 active torsions:
REMARK  status: ('A' for Active; 'I' for Inactive)
ROOT
HETATM    1 BR   LIG     1      14.268  31.940  17.844  1.00  0.00    -0.051 Br
HETATM    2  C   LIG     1      14.772  31.574  16.039  1.00  0.00     0.011 A 
HETATM    3  C   LIG     1      14.202  30.492  15.357  1.00  0.00     0.019 A 
HETATM    4  C   LIG     1      14.572  30.223  14.035  1.00  0.00     0.001 A 
HETATM    5  C   LIG     1      15.513  31.036  13.393  1.00  0.00     0.000 A 
HETATM    6  C   LIG     1      16.082  32.117  14.072  1.00  0.00     0.001 A 
HETATM    7  C   LIG     1      15.713  32.387  15.395  1.00  0.00     0.019 A 
ENDROOT
TORSDOF 0
ENDMDL
MODEL 15
REMARK VINA RESULT:      -4.1      2.623      3.884
REMARK  0 active torsions:
REMARK  status: ('A' for Active; 'I' for Inactive)
ROOT
HETATM    1 BR   LIG     1      17.343  37.918  24.616  1.00  0.00    -0.051 Br
HETATM    2  C   LIG     1      16.606  36.802  23.253  1.00  0.00     0.011 A 
HETATM    3  C   LIG     1      15.458  37.206  22.560  1.00  0.00     0.019 A 
HETATM    4  C   LIG     1      14.918  36.387  21.563  1.00  0.00     0.001 A 
HETATM    5  C   LIG     1      15.524  35.164  21.256  1.00  0.00     0.000 A 
HETATM    6  C   LIG     1      16.671  34.760  21.947  1.00  0.00     0.001 A 
HETATM    7  C   LIG     1      17.212  35.577  22.946  1.00  0.00     0.019 A 
ENDROOT
TORSDOF 0
ENDMDL
MODEL 16
REMARK VINA RESULT:      -4.0      3.611      4.374
REMARK  0 active torsions:
REMARK  status: ('A' for Active; 'I' for Inactive)
ROOT
HETATM    1 BR   LIG     1      17.671  38.559  22.671  1.00  0.00    -0.051 Br
HETATM    2  C   LIG     1      16.731  37.024  22.033  1.00  0.00     0.011 A 
HETATM    3  C   LIG     1      17.439  35.926  21.530  1.00  0.00     0.019 A 
HETATM    4  C   LIG     1      16.750  34.803  21.061  1.00  0.00     0.001 A 
HETATM    5  C   LIG     1      15.352  34.775  21.096  1.00  0.00     0.000 A 
HETATM    6  C   LIG     1      14.643  35.870  21.599  1.00  0.00     0.001 A 
HETATM    7  C   LIG     1      15.331  36.995  22.067  1.00  0.00     0.019 A 
ENDROOT
TORSDOF 0
ENDMDL
MODEL 17
REMARK VINA RESULT:      -3.7     10.502     11.680
REMARK  0 active torsions:
REMARK  status: ('A' for Active; 'I' for Inactive)
ROOT
HETATM    1 BR   LIG     1      13.417  29.787  14.865  1.00  0.00    -0.051 Br
HETATM    2  C   LIG     1      14.769  31.136  14.856  1.00  0.00     0.011 A 
HETATM    3  C   LIG     1      15.574  31.314  13.725  1.00  0.00     0.019 A 
HETATM    4  C   LIG     1      16.565  32.302  13.719  1.00  0.00     0.001 A 
HETATM    5  C   LIG     1      16.751  33.113  14.844  1.00  0.00     0.000 A 
HETATM    6  C   LIG     1      15.947  32.935  15.975  1.00  0.00     0.001 A 
HETATM    7  C   LIG     1      14.956  31.947  15.982  1.00  0.00     0.019 A 
ENDROOT
TORSDOF 0
ENDMDL
MODEL 18
REMARK VINA RESULT:      -3.6     13.012     13.911
REMARK  0 active torsions:
REMARK  status: ('A' for Active; 'I' for Inactive)
ROOT
HETATM    1 BR   LIG     1      17.681  33.520  13.460  1.00  0.00    -0.051 Br
HETATM    2  C   LIG     1      19.066  34.121  12.291  1.00  0.00     0.011 A 
HETATM    3  C   LIG     1      18.745  34.623  11.024  1.00  0.00     0.019 A 
HETATM    4  C   LIG     1      19.760  35.063  10.168  1.00  0.00     0.001 A 
HETATM    5  C   LIG     1      21.097  35.002  10.577  1.00  0.00     0.000 A 
HETATM    6  C   LIG     1      21.418  34.502  11.843  1.00  0.00     0.001 A 
HETATM    7  C   LIG     1      20.404  34.061  12.700  1.00  0.00     0.019 A 
ENDROOT
TORSDOF 0
ENDMDL
MODEL 19
REMARK VINA RESULT:      -3.6      5.976      7.416
REMARK  0 active torsions:
REMARK  status: ('A' for Active; 'I' for Inactive)
ROOT
HETATM    1 BR   LIG     1      16.143  34.940  21.659  1.00  0.00    -0.051 Br
HETATM    2  C   LIG     1      15.639  34.055  20.044  1.00  0.00     0.011 A 
HETATM    3  C   LIG     1      15.341  32.687  20.057  1.00  0.00     0.019 A 
HETATM    4  C   LIG     1      14.973  32.039  18.874  1.00  0.00     0.001 A 
HETATM    5  C   LIG     1      14.901  32.758  17.675  1.00  0.00     0.000 A 
HETATM    6  C   LIG     1      15.196  34.125  17.661  1.00  0.00     0.001 A 
HETATM    7  C   LIG     1      15.566  34.774  18.844  1.00  0.00     0.019 A 
ENDROOT
TORSDOF 0
ENDMDL
