REMARK  2 active torsions:
REMARK  status: ('A' for Active; 'I' for Inactive)
REMARK    1  A    between atoms: C_2  and  C_3 
REMARK    2  A    between atoms: C_3  and  C_4 
ROOT
HETATM    1  C   LIG     1       0.320  -0.561   0.497  1.00  0.00     0.081 C 
ENDROOT
BRANCH   1   2
HETATM    2  C   LIG     1       1.543  -0.614  -0.381  1.00  0.00     0.123 C 
HETATM    3  C   LIG     1       2.682   0.334  -0.153  1.00  0.00     0.091 C 
HETATM    4  O   LIG     1       1.612  -1.439  -1.280  1.00  0.00    -0.298 OA
ENDBRANCH   1   2
BRANCH   1   5
HETATM    5  C   LIG     1      -0.795   0.315  -0.113  1.00  0.00    -0.016 C 
HETATM    6  C   LIG     1      -1.385  -0.314  -1.384  1.00  0.00     0.010 C 
HETATM    7  C   LIG     1      -1.907   0.546   0.918  1.00  0.00     0.010 C 
ENDBRANCH   1   5
TORSDOF 2
