REMARK  1 active torsions:
REMARK  status: ('A' for Active; 'I' for Inactive)
REMARK    1  A    between atoms: C_4  and  N_5 
ROOT
HETATM    1 CL   LIG     1       2.464   2.207  -0.735  1.00  0.00    -0.084 Cl
HETATM    2  C   LIG     1       1.353   0.910  -0.332  1.00  0.00     0.036 A 
HETATM    3  C   LIG     1      -0.023   1.160  -0.273  1.00  0.00     0.052 A 
HETATM    4  C   LIG     1      -0.914   0.125   0.049  1.00  0.00     0.027 A 
HETATM    5  C   LIG     1      -0.418  -1.161   0.311  1.00  0.00     0.029 A 
HETATM    6  C   LIG     1       0.957  -1.408   0.251  1.00  0.00     0.004 A 
HETATM    7  C   LIG     1       1.842  -0.375  -0.070  1.00  0.00     0.024 A 
ENDROOT
BRANCH   4   8
HETATM    8  N   LIG     1      -2.320   0.379   0.111  1.00  0.00    -0.399 N 
HETATM    9  H   LIG     1      -2.700   1.333  -0.082  1.00  0.00     0.156 HD
HETATM   10  H   LIG     1      -2.992  -0.384   0.349  1.00  0.00     0.156 HD
ENDBRANCH   4   8
TORSDOF 1
