REMARK  1 active torsions:
REMARK  status: ('A' for Active; 'I' for Inactive)
REMARK    1  A    between atoms: O_1  and  C_2 
ROOT
HETATM    1  C   LIG     1      -0.814  -0.774   0.657  1.00  0.00     0.118 C 
HETATM    2  C   LIG     1      -1.255   0.544  -0.004  1.00  0.00     0.032 C 
HETATM    3  C   LIG     1      -0.096   1.546  -0.065  1.00  0.00     0.002 C 
HETATM    4  C   LIG     1       1.112   0.948  -0.797  1.00  0.00     0.000 C 
HETATM    5  C   LIG     1       1.554  -0.367  -0.143  1.00  0.00     0.002 C 
HETATM    6  C   LIG     1       0.395  -1.369  -0.082  1.00  0.00     0.032 C 
ENDROOT
BRANCH   1   7
HETATM    7  O   LIG     1      -1.869  -1.699   0.629  1.00  0.00    -0.396 OA
HETATM    8  H   LIG     1      -2.520  -1.411   1.321  1.00  0.00     0.210 HD
ENDBRANCH   1   7
TORSDOF 1
