MODEL 1
REMARK VINA RESULT:      -4.7      0.000      0.000
REMARK  0 active torsions:
REMARK  status: ('A' for Active; 'I' for Inactive)
ROOT
HETATM    1 BR   LIG     1      17.184  37.160  24.684  1.00  0.00    -0.091 Br
HETATM    2  C   LIG     1      16.218  37.758  23.102  1.00  0.00     0.058 C 
HETATM    3  C   LIG     1      16.079  36.620  22.075  1.00  0.00     0.016 C 
HETATM    4  C   LIG     1      17.416  36.291  21.395  1.00  0.00     0.001 C 
HETATM    5  C   LIG     1      18.033  37.542  20.759  1.00  0.00     0.000 C 
HETATM    6  C   LIG     1      18.216  38.653  21.798  1.00  0.00     0.001 C 
HETATM    7  C   LIG     1      16.884  38.996  22.480  1.00  0.00     0.016 C 
ENDROOT
TORSDOF 0
ENDMDL
MODEL 2
REMARK VINA RESULT:      -4.6      1.918      2.991
REMARK  0 active torsions:
REMARK  status: ('A' for Active; 'I' for Inactive)
ROOT
HETATM    1 BR   LIG     1      17.994  38.637  22.027  1.00  0.00    -0.091 Br
HETATM    2  C   LIG     1      16.386  37.845  22.791  1.00  0.00     0.058 C 
HETATM    3  C   LIG     1      16.540  37.632  24.307  1.00  0.00     0.016 C 
HETATM    4  C   LIG     1      17.513  36.491  24.633  1.00  0.00     0.001 C 
HETATM    5  C   LIG     1      17.098  35.195  23.930  1.00  0.00     0.000 C 
HETATM    6  C   LIG     1      16.997  35.400  22.415  1.00  0.00     0.001 C 
HETATM    7  C   LIG     1      16.020  36.534  22.075  1.00  0.00     0.016 C 
ENDROOT
TORSDOF 0
ENDMDL
MODEL 3
REMARK VINA RESULT:      -4.4      2.001      2.725
REMARK  0 active torsions:
REMARK  status: ('A' for Active; 'I' for Inactive)
ROOT
HETATM    1 BR   LIG     1      15.047  35.612  21.235  1.00  0.00    -0.091 Br
HETATM    2  C   LIG     1      16.925  35.510  21.742  1.00  0.00     0.058 C 
HETATM    3  C   LIG     1      17.092  35.592  23.269  1.00  0.00     0.016 C 
HETATM    4  C   LIG     1      16.804  37.001  23.806  1.00  0.00     0.001 C 
HETATM    5  C   LIG     1      17.668  38.048  23.096  1.00  0.00     0.000 C 
HETATM    6  C   LIG     1      17.459  37.997  21.579  1.00  0.00     0.001 C 
HETATM    7  C   LIG     1      17.751  36.594  21.029  1.00  0.00     0.016 C 
ENDROOT
TORSDOF 0
ENDMDL
MODEL 4
REMARK VINA RESULT:      -4.2      7.833      8.788
REMARK  0 active torsions:
REMARK  status: ('A' for Active; 'I' for Inactive)
ROOT
HETATM    1 BR   LIG     1      15.087  32.120  18.758  1.00  0.00    -0.091 Br
HETATM    2  C   LIG     1      14.301  32.824  17.120  1.00  0.00     0.058 C 
HETATM    3  C   LIG     1      12.998  32.085  16.770  1.00  0.00     0.016 C 
HETATM    4  C   LIG     1      13.260  30.653  16.281  1.00  0.00     0.001 C 
HETATM    5  C   LIG     1      14.238  30.644  15.102  1.00  0.00     0.000 C 
HETATM    6  C   LIG     1      15.554  31.335  15.474  1.00  0.00     0.001 C 
HETATM    7  C   LIG     1      15.306  32.771  15.957  1.00  0.00     0.016 C 
ENDROOT
TORSDOF 0
ENDMDL
MODEL 5
REMARK VINA RESULT:      -3.9      1.910      2.927
REMARK  0 active torsions:
REMARK  status: ('A' for Active; 'I' for Inactive)
ROOT
HETATM    1 BR   LIG     1      17.116  36.132  21.223  1.00  0.00    -0.091 Br
HETATM    2  C   LIG     1      16.360  37.668  22.154  1.00  0.00     0.058 C 
HETATM    3  C   LIG     1      17.324  38.867  22.116  1.00  0.00     0.016 C 
HETATM    4  C   LIG     1      18.546  38.653  23.020  1.00  0.00     0.001 C 
HETATM    5  C   LIG     1      18.120  38.327  24.455  1.00  0.00     0.000 C 
HETATM    6  C   LIG     1      17.203  37.100  24.491  1.00  0.00     0.001 C 
HETATM    7  C   LIG     1      15.972  37.306  23.597  1.00  0.00     0.016 C 
ENDROOT
TORSDOF 0
ENDMDL
MODEL 6
REMARK VINA RESULT:      -3.5     11.422     12.187
REMARK  0 active torsions:
REMARK  status: ('A' for Active; 'I' for Inactive)
ROOT
HETATM    1 BR   LIG     1      20.070  31.978  10.284  1.00  0.00    -0.091 Br
HETATM    2  C   LIG     1      19.423  33.596  11.156  1.00  0.00     0.058 C 
HETATM    3  C   LIG     1      19.936  34.855  10.435  1.00  0.00     0.016 C 
HETATM    4  C   LIG     1      21.437  35.078  10.662  1.00  0.00     0.001 C 
HETATM    5  C   LIG     1      21.768  35.121  12.158  1.00  0.00     0.000 C 
HETATM    6  C   LIG     1      21.302  33.841  12.860  1.00  0.00     0.001 C 
HETATM    7  C   LIG     1      19.799  33.611  12.647  1.00  0.00     0.016 C 
ENDROOT
TORSDOF 0
ENDMDL
MODEL 7
REMARK VINA RESULT:      -3.5     11.454     12.311
REMARK  0 active torsions:
REMARK  status: ('A' for Active; 'I' for Inactive)
ROOT
HETATM    1 BR   LIG     1      20.839  31.979  10.399  1.00  0.00    -0.091 Br
HETATM    2  C   LIG     1      20.978  33.735  11.230  1.00  0.00     0.058 C 
HETATM    3  C   LIG     1      20.165  33.796  12.535  1.00  0.00     0.016 C 
HETATM    4  C   LIG     1      18.653  33.806  12.272  1.00  0.00     0.001 C 
HETATM    5  C   LIG     1      18.266  34.945  11.323  1.00  0.00     0.000 C 
HETATM    6  C   LIG     1      19.041  34.849  10.005  1.00  0.00     0.001 C 
HETATM    7  C   LIG     1      20.556  34.846  10.254  1.00  0.00     0.016 C 
ENDROOT
TORSDOF 0
ENDMDL
MODEL 8
REMARK VINA RESULT:      -3.5      7.783      8.890
REMARK  0 active torsions:
REMARK  status: ('A' for Active; 'I' for Inactive)
ROOT
HETATM    1 BR   LIG     1      14.678  34.247  16.959  1.00  0.00    -0.091 Br
HETATM    2  C   LIG     1      15.340  32.444  17.287  1.00  0.00     0.058 C 
HETATM    3  C   LIG     1      16.138  31.919  16.081  1.00  0.00     0.016 C 
HETATM    4  C   LIG     1      15.232  31.597  14.886  1.00  0.00     0.001 C 
HETATM    5  C   LIG     1      14.120  30.620  15.284  1.00  0.00     0.000 C 
HETATM    6  C   LIG     1      13.296  31.172  16.451  1.00  0.00     0.001 C 
HETATM    7  C   LIG     1      14.191  31.490  17.657  1.00  0.00     0.016 C 
ENDROOT
TORSDOF 0
ENDMDL
MODEL 9
REMARK VINA RESULT:      -3.5     11.513     12.130
REMARK  0 active torsions:
REMARK  status: ('A' for Active; 'I' for Inactive)
ROOT
HETATM    1 BR   LIG     1      18.290  33.871  12.712  1.00  0.00    -0.091 Br
HETATM    2  C   LIG     1      19.614  33.114  11.500  1.00  0.00     0.058 C 
HETATM    3  C   LIG     1      21.039  33.311  12.045  1.00  0.00     0.016 C 
HETATM    4  C   LIG     1      21.491  34.776  11.964  1.00  0.00     0.001 C 
HETATM    5  C   LIG     1      21.364  35.313  10.535  1.00  0.00     0.000 C 
HETATM    6  C   LIG     1      19.930  35.162  10.017  1.00  0.00     0.001 C 
HETATM    7  C   LIG     1      19.470  33.699  10.085  1.00  0.00     0.016 C 
ENDROOT
TORSDOF 0
ENDMDL
MODEL 10
REMARK VINA RESULT:      -3.4     11.320     12.326
REMARK  0 active torsions:
REMARK  status: ('A' for Active; 'I' for Inactive)
ROOT
HETATM    1 BR   LIG     1      30.065  38.496  21.404  1.00  0.00    -0.091 Br
HETATM    2  C   LIG     1      29.230  39.808  20.231  1.00  0.00     0.058 C 
HETATM    3  C   LIG     1      27.733  39.507  20.041  1.00  0.00     0.016 C 
HETATM    4  C   LIG     1      27.501  38.266  19.168  1.00  0.00     0.001 C 
HETATM    5  C   LIG     1      28.217  38.398  17.820  1.00  0.00     0.000 C 
HETATM    6  C   LIG     1      29.716  38.646  18.016  1.00  0.00     0.001 C 
HETATM    7  C   LIG     1      29.961  39.891  18.881  1.00  0.00     0.016 C 
ENDROOT
TORSDOF 0
ENDMDL
MODEL 11
REMARK VINA RESULT:      -3.3     19.482     20.018
REMARK  0 active torsions:
REMARK  status: ('A' for Active; 'I' for Inactive)
ROOT
HETATM    1 BR   LIG     1      19.545  20.949  35.812  1.00  0.00    -0.091 Br
HETATM    2  C   LIG     1      19.687  22.737  35.050  1.00  0.00     0.058 C 
HETATM    3  C   LIG     1      20.607  22.742  33.817  1.00  0.00     0.016 C 
HETATM    4  C   LIG     1      22.082  22.556  34.197  1.00  0.00     0.001 C 
HETATM    5  C   LIG     1      22.524  23.605  35.222  1.00  0.00     0.000 C 
HETATM    6  C   LIG     1      21.637  23.560  36.471  1.00  0.00     0.001 C 
HETATM    7  C   LIG     1      20.158  23.753  36.104  1.00  0.00     0.016 C 
ENDROOT
TORSDOF 0
ENDMDL
MODEL 12
REMARK VINA RESULT:      -3.2     18.260     18.543
REMARK  0 active torsions:
REMARK  status: ('A' for Active; 'I' for Inactive)
ROOT
HETATM    1 BR   LIG     1      27.588  32.116  37.920  1.00  0.00    -0.091 Br
HETATM    2  C   LIG     1      25.994  31.195  37.282  1.00  0.00     0.058 C 
HETATM    3  C   LIG     1      26.039  29.699  37.639  1.00  0.00     0.016 C 
HETATM    4  C   LIG     1      27.074  28.937  36.799  1.00  0.00     0.001 C 
HETATM    5  C   LIG     1      26.828  29.144  35.300  1.00  0.00     0.000 C 
HETATM    6  C   LIG     1      26.836  30.633  34.943  1.00  0.00     0.001 C 
HETATM    7  C   LIG     1      25.799  31.406  35.771  1.00  0.00     0.016 C 
ENDROOT
TORSDOF 0
ENDMDL
MODEL 13
REMARK VINA RESULT:      -3.2      9.496     10.548
REMARK  0 active torsions:
REMARK  status: ('A' for Active; 'I' for Inactive)
ROOT
HETATM    1 BR   LIG     1      16.036  32.207  13.393  1.00  0.00    -0.091 Br
HETATM    2  C   LIG     1      15.995  30.970  14.898  1.00  0.00     0.058 C 
HETATM    3  C   LIG     1      15.316  29.646  14.507  1.00  0.00     0.016 C 
HETATM    4  C   LIG     1      13.800  29.807  14.324  1.00  0.00     0.001 C 
HETATM    5  C   LIG     1      13.156  30.414  15.575  1.00  0.00     0.000 C 
HETATM    6  C   LIG     1      13.802  31.758  15.929  1.00  0.00     0.001 C 
HETATM    7  C   LIG     1      15.318  31.608  16.122  1.00  0.00     0.016 C 
ENDROOT
TORSDOF 0
ENDMDL
MODEL 14
REMARK VINA RESULT:      -3.2     18.264     18.487
REMARK  0 active torsions:
REMARK  status: ('A' for Active; 'I' for Inactive)
ROOT
HETATM    1 BR   LIG     1      26.220  29.525  38.031  1.00  0.00    -0.091 Br
HETATM    2  C   LIG     1      26.311  31.292  37.214  1.00  0.00     0.058 C 
HETATM    3  C   LIG     1      25.855  31.246  35.745  1.00  0.00     0.016 C 
HETATM    4  C   LIG     1      26.880  30.544  34.845  1.00  0.00     0.001 C 
HETATM    5  C   LIG     1      28.264  31.189  34.977  1.00  0.00     0.000 C 
HETATM    6  C   LIG     1      28.735  31.184  36.434  1.00  0.00     0.001 C 
HETATM    7  C   LIG     1      27.721  31.891  37.345  1.00  0.00     0.016 C 
ENDROOT
TORSDOF 0
ENDMDL
MODEL 15
REMARK VINA RESULT:      -3.1     18.759     19.137
REMARK  0 active torsions:
REMARK  status: ('A' for Active; 'I' for Inactive)
ROOT
HETATM    1 BR   LIG     1      27.437  28.734  36.631  1.00  0.00    -0.091 Br
HETATM    2  C   LIG     1      27.249  30.512  35.857  1.00  0.00     0.058 C 
HETATM    3  C   LIG     1      28.519  31.350  36.080  1.00  0.00     0.016 C 
HETATM    4  C   LIG     1      28.682  31.774  37.546  1.00  0.00     0.001 C 
HETATM    5  C   LIG     1      27.435  32.511  38.048  1.00  0.00     0.000 C 
HETATM    6  C   LIG     1      26.180  31.650  37.872  1.00  0.00     0.001 C 
HETATM    7  C   LIG     1      26.003  31.227  36.407  1.00  0.00     0.016 C 
ENDROOT
TORSDOF 0
ENDMDL
MODEL 16
REMARK VINA RESULT:      -3.1      6.248      7.360
REMARK  0 active torsions:
REMARK  status: ('A' for Active; 'I' for Inactive)
ROOT
HETATM    1 BR   LIG     1      16.203  32.448  15.768  1.00  0.00    -0.091 Br
HETATM    2  C   LIG     1      14.577  32.879  16.751  1.00  0.00     0.058 C 
HETATM    3  C   LIG     1      14.625  34.316  17.297  1.00  0.00     0.016 C 
HETATM    4  C   LIG     1      15.619  34.459  18.458  1.00  0.00     0.001 C 
HETATM    5  C   LIG     1      15.314  33.452  19.572  1.00  0.00     0.000 C 
HETATM    6  C   LIG     1      15.319  32.018  19.032  1.00  0.00     0.001 C 
HETATM    7  C   LIG     1      14.322  31.861  17.875  1.00  0.00     0.016 C 
ENDROOT
TORSDOF 0
ENDMDL
MODEL 17
REMARK VINA RESULT:      -3.0     19.711     20.338
REMARK  0 active torsions:
REMARK  status: ('A' for Active; 'I' for Inactive)
ROOT
HETATM    1 BR   LIG     1      23.033  20.879  34.410  1.00  0.00    -0.091 Br
HETATM    2  C   LIG     1      22.405  22.515  35.262  1.00  0.00     0.058 C 
HETATM    3  C   LIG     1      21.401  22.204  36.385  1.00  0.00     0.016 C 
HETATM    4  C   LIG     1      20.052  21.721  35.835  1.00  0.00     0.001 C 
HETATM    5  C   LIG     1      19.472  22.727  34.835  1.00  0.00     0.000 C 
HETATM    6  C   LIG     1      20.456  22.992  33.691  1.00  0.00     0.001 C 
HETATM    7  C   LIG     1      21.807  23.484  34.228  1.00  0.00     0.016 C 
ENDROOT
TORSDOF 0
ENDMDL
MODEL 18
REMARK VINA RESULT:      -3.0     18.507     18.855
REMARK  0 active torsions:
REMARK  status: ('A' for Active; 'I' for Inactive)
ROOT
HETATM    1 BR   LIG     1      28.929  29.524  37.597  1.00  0.00    -0.091 Br
HETATM    2  C   LIG     1      28.602  31.284  36.828  1.00  0.00     0.058 C 
HETATM    3  C   LIG     1      27.479  32.017  37.581  1.00  0.00     0.016 C 
HETATM    4  C   LIG     1      26.100  31.403  37.300  1.00  0.00     0.001 C 
HETATM    5  C   LIG     1      25.818  31.351  35.794  1.00  0.00     0.000 C 
HETATM    6  C   LIG     1      26.913  30.575  35.057  1.00  0.00     0.001 C 
HETATM    7  C   LIG     1      28.297  31.184  35.324  1.00  0.00     0.016 C 
ENDROOT
TORSDOF 0
ENDMDL
MODEL 19
REMARK VINA RESULT:      -3.0     20.307     20.917
REMARK  0 active torsions:
REMARK  status: ('A' for Active; 'I' for Inactive)
ROOT
HETATM    1 BR   LIG     1      20.370  21.975  33.604  1.00  0.00    -0.091 Br
HETATM    2  C   LIG     1      19.890  22.133  35.486  1.00  0.00     0.058 C 
HETATM    3  C   LIG     1      20.172  23.551  36.011  1.00  0.00     0.016 C 
HETATM    4  C   LIG     1      21.675  23.826  36.152  1.00  0.00     0.001 C 
HETATM    5  C   LIG     1      22.349  22.765  37.029  1.00  0.00     0.000 C 
HETATM    6  C   LIG     1      22.108  21.358  36.471  1.00  0.00     0.001 C 
HETATM    7  C   LIG     1      20.607  21.069  36.333  1.00  0.00     0.016 C 
ENDROOT
TORSDOF 0
ENDMDL
MODEL 20
REMARK VINA RESULT:      -2.9     20.411     20.981
REMARK  0 active torsions:
REMARK  status: ('A' for Active; 'I' for Inactive)
ROOT
HETATM    1 BR   LIG     1      22.640  20.953  34.390  1.00  0.00    -0.091 Br
HETATM    2  C   LIG     1      21.731  21.156  36.101  1.00  0.00     0.058 C 
HETATM    3  C   LIG     1      20.207  21.243  35.911  1.00  0.00     0.016 C 
HETATM    4  C   LIG     1      19.779  22.578  35.285  1.00  0.00     0.001 C 
HETATM    5  C   LIG     1      20.306  23.763  36.101  1.00  0.00     0.000 C 
HETATM    6  C   LIG     1      21.830  23.699  36.243  1.00  0.00     0.001 C 
HETATM    7  C   LIG     1      22.270  22.371  36.875  1.00  0.00     0.016 C 
ENDROOT
TORSDOF 0
ENDMDL
