REMARK  1 active torsions:
REMARK  status: ('A' for Active; 'I' for Inactive)
REMARK    1  A    between atoms: C_7  and  O_8 
ROOT
HETATM    1  C   LIG     1      -2.186  -1.586   0.225  1.00  0.00     0.048 C 
HETATM    2  C   LIG     1      -1.068  -0.597   0.076  1.00  0.00    -0.059 A 
HETATM    3  C   LIG     1       0.272  -1.012   0.134  1.00  0.00     0.013 A 
HETATM    4  C   LIG     1       1.312  -0.080  -0.016  1.00  0.00    -0.059 A 
HETATM    5  C   LIG     1       2.742  -0.522   0.085  1.00  0.00     0.048 C 
HETATM    6  C   LIG     1       1.003   1.277  -0.192  1.00  0.00     0.043 A 
HETATM    7  C   LIG     1      -0.330   1.698  -0.249  1.00  0.00     0.066 A 
HETATM    8  C   LIG     1      -1.363   0.760  -0.118  1.00  0.00     0.043 A 
ENDROOT
BRANCH   7   9
HETATM    9  O   LIG     1      -0.616   3.048  -0.434  1.00  0.00    -0.361 OA
HETATM   10  H   LIG     1      -1.570   3.386  -0.479  1.00  0.00     0.217 HD
ENDBRANCH   7   9
TORSDOF 1
