MODEL 1
REMARK VINA RESULT:      -5.6      0.000      0.000
REMARK  2 active torsions:
REMARK  status: ('A' for Active; 'I' for Inactive)
REMARK    1  A    between atoms: O_1  and  C_2 
REMARK    2  A    between atoms: C_4  and  O_5 
ROOT
HETATM    1  C   LIG     1      19.646  38.752  19.784  1.00  0.00     0.068 A 
HETATM    2  C   LIG     1      18.954  39.363  20.838  1.00  0.00     0.072 A 
HETATM    3  C   LIG     1      17.976  38.654  21.544  1.00  0.00     0.068 A 
HETATM    4  C   LIG     1      17.687  37.327  21.194  1.00  0.00     0.037 A 
HETATM    5  C   LIG     1      18.376  36.715  20.141  1.00  0.00     0.005 A 
HETATM    6  C   LIG     1      19.353  37.425  19.437  1.00  0.00     0.037 A 
ENDROOT
BRANCH   1   7
HETATM    7  O   LIG     1      20.617  39.469  19.090  1.00  0.00    -0.361 OA
HETATM    8  H   LIG     1      21.173  39.039  18.361  1.00  0.00     0.217 HD
ENDBRANCH   1   7
BRANCH   3   9
HETATM    9  O   LIG     1      17.298  39.275  22.591  1.00  0.00    -0.361 OA
HETATM   10  H   LIG     1      17.371  38.938  23.543  1.00  0.00     0.217 HD
ENDBRANCH   3   9
TORSDOF 2
ENDMDL
MODEL 2
REMARK VINA RESULT:      -5.6      0.009      2.961
REMARK  2 active torsions:
REMARK  status: ('A' for Active; 'I' for Inactive)
REMARK    1  A    between atoms: O_1  and  C_2 
REMARK    2  A    between atoms: C_4  and  O_5 
ROOT
HETATM    1  C   LIG     1      17.973  38.652  21.552  1.00  0.00     0.068 A 
HETATM    2  C   LIG     1      18.951  39.363  20.846  1.00  0.00     0.072 A 
HETATM    3  C   LIG     1      19.640  38.757  19.790  1.00  0.00     0.068 A 
HETATM    4  C   LIG     1      19.350  37.430  19.439  1.00  0.00     0.037 A 
HETATM    5  C   LIG     1      18.374  36.718  20.142  1.00  0.00     0.005 A 
HETATM    6  C   LIG     1      17.686  37.325  21.197  1.00  0.00     0.037 A 
ENDROOT
BRANCH   1   7
HETATM    7  O   LIG     1      17.295  39.268  22.601  1.00  0.00    -0.361 OA
HETATM    8  H   LIG     1      17.546  39.097  23.567  1.00  0.00     0.217 HD
ENDBRANCH   1   7
BRANCH   3   9
HETATM    9  O   LIG     1      20.610  39.478  19.097  1.00  0.00    -0.361 OA
HETATM   10  H   LIG     1      20.853  40.426  19.361  1.00  0.00     0.217 HD
ENDBRANCH   3   9
TORSDOF 2
ENDMDL
MODEL 3
REMARK VINA RESULT:      -5.6      4.743      5.509
REMARK  2 active torsions:
REMARK  status: ('A' for Active; 'I' for Inactive)
REMARK    1  A    between atoms: O_1  and  C_2 
REMARK    2  A    between atoms: C_4  and  O_5 
ROOT
HETATM    1  C   LIG     1      17.113  35.652  24.110  1.00  0.00     0.068 A 
HETATM    2  C   LIG     1      17.024  37.035  24.316  1.00  0.00     0.072 A 
HETATM    3  C   LIG     1      17.463  37.598  25.520  1.00  0.00     0.068 A 
HETATM    4  C   LIG     1      17.993  36.773  26.522  1.00  0.00     0.037 A 
HETATM    5  C   LIG     1      18.083  35.393  26.319  1.00  0.00     0.005 A 
HETATM    6  C   LIG     1      17.645  34.832  25.116  1.00  0.00     0.037 A 
ENDROOT
BRANCH   1   7
HETATM    7  O   LIG     1      16.673  35.105  22.907  1.00  0.00    -0.361 OA
HETATM    8  H   LIG     1      16.127  34.253  22.882  1.00  0.00     0.217 HD
ENDBRANCH   1   7
BRANCH   3   9
HETATM    9  O   LIG     1      17.368  38.975  25.709  1.00  0.00    -0.361 OA
HETATM   10  H   LIG     1      16.618  39.515  25.294  1.00  0.00     0.217 HD
ENDBRANCH   3   9
TORSDOF 2
ENDMDL
MODEL 4
REMARK VINA RESULT:      -5.4      1.564      3.273
REMARK  2 active torsions:
REMARK  status: ('A' for Active; 'I' for Inactive)
REMARK    1  A    between atoms: O_1  and  C_2 
REMARK    2  A    between atoms: C_4  and  O_5 
ROOT
HETATM    1  C   LIG     1      18.044  37.043  20.394  1.00  0.00     0.068 A 
HETATM    2  C   LIG     1      19.053  37.596  19.595  1.00  0.00     0.072 A 
HETATM    3  C   LIG     1      19.600  38.844  19.914  1.00  0.00     0.068 A 
HETATM    4  C   LIG     1      19.135  39.543  21.037  1.00  0.00     0.037 A 
HETATM    5  C   LIG     1      18.127  38.993  21.836  1.00  0.00     0.005 A 
HETATM    6  C   LIG     1      17.581  37.746  21.517  1.00  0.00     0.037 A 
ENDROOT
BRANCH   1   7
HETATM    7  O   LIG     1      17.508  35.800  20.065  1.00  0.00    -0.361 OA
HETATM    8  H   LIG     1      16.511  35.667  19.950  1.00  0.00     0.217 HD
ENDBRANCH   1   7
BRANCH   3   9
HETATM    9  O   LIG     1      20.604  39.380  19.110  1.00  0.00    -0.361 OA
HETATM   10  H   LIG     1      20.904  40.342  19.209  1.00  0.00     0.217 HD
ENDBRANCH   3   9
TORSDOF 2
ENDMDL
MODEL 5
REMARK VINA RESULT:      -5.4      1.568      2.311
REMARK  2 active torsions:
REMARK  status: ('A' for Active; 'I' for Inactive)
REMARK    1  A    between atoms: O_1  and  C_2 
REMARK    2  A    between atoms: C_4  and  O_5 
ROOT
HETATM    1  C   LIG     1      19.600  38.836  19.911  1.00  0.00     0.068 A 
HETATM    2  C   LIG     1      19.054  37.587  19.590  1.00  0.00     0.072 A 
HETATM    3  C   LIG     1      18.045  37.032  20.387  1.00  0.00     0.068 A 
HETATM    4  C   LIG     1      17.582  37.731  21.511  1.00  0.00     0.037 A 
HETATM    5  C   LIG     1      18.126  38.978  21.834  1.00  0.00     0.005 A 
HETATM    6  C   LIG     1      19.133  39.531  21.037  1.00  0.00     0.037 A 
ENDROOT
BRANCH   1   7
HETATM    7  O   LIG     1      20.602  39.376  19.110  1.00  0.00    -0.361 OA
HETATM    8  H   LIG     1      20.829  38.978  18.206  1.00  0.00     0.217 HD
ENDBRANCH   1   7
BRANCH   3   9
HETATM    9  O   LIG     1      17.512  35.789  20.054  1.00  0.00    -0.361 OA
HETATM   10  H   LIG     1      16.689  35.706  19.469  1.00  0.00     0.217 HD
ENDBRANCH   3   9
TORSDOF 2
ENDMDL
MODEL 6
REMARK VINA RESULT:      -5.4      1.671      2.120
REMARK  2 active torsions:
REMARK  status: ('A' for Active; 'I' for Inactive)
REMARK    1  A    between atoms: O_1  and  C_2 
REMARK    2  A    between atoms: C_4  and  O_5 
ROOT
HETATM    1  C   LIG     1      18.148  38.701  21.370  1.00  0.00     0.068 A 
HETATM    2  C   LIG     1      17.159  38.900  22.342  1.00  0.00     0.072 A 
HETATM    3  C   LIG     1      16.280  37.863  22.677  1.00  0.00     0.068 A 
HETATM    4  C   LIG     1      16.391  36.622  22.034  1.00  0.00     0.037 A 
HETATM    5  C   LIG     1      17.376  36.421  21.063  1.00  0.00     0.005 A 
HETATM    6  C   LIG     1      18.254  37.458  20.731  1.00  0.00     0.037 A 
ENDROOT
BRANCH   1   7
HETATM    7  O   LIG     1      19.016  39.741  21.048  1.00  0.00    -0.361 OA
HETATM    8  H   LIG     1      19.168  40.026  20.088  1.00  0.00     0.217 HD
ENDBRANCH   1   7
BRANCH   3   9
HETATM    9  O   LIG     1      15.303  38.077  23.646  1.00  0.00    -0.361 OA
HETATM   10  H   LIG     1      15.541  38.168  24.627  1.00  0.00     0.217 HD
ENDBRANCH   3   9
TORSDOF 2
ENDMDL
MODEL 7
REMARK VINA RESULT:      -5.2      1.664      3.531
REMARK  2 active torsions:
REMARK  status: ('A' for Active; 'I' for Inactive)
REMARK    1  A    between atoms: O_1  and  C_2 
REMARK    2  A    between atoms: C_4  and  O_5 
ROOT
HETATM    1  C   LIG     1      16.667  37.861  22.992  1.00  0.00     0.068 A 
HETATM    2  C   LIG     1      17.466  38.925  22.554  1.00  0.00     0.072 A 
HETATM    3  C   LIG     1      18.247  38.792  21.401  1.00  0.00     0.068 A 
HETATM    4  C   LIG     1      18.231  37.587  20.683  1.00  0.00     0.037 A 
HETATM    5  C   LIG     1      17.436  36.523  21.119  1.00  0.00     0.005 A 
HETATM    6  C   LIG     1      16.654  36.658  22.271  1.00  0.00     0.037 A 
ENDROOT
BRANCH   1   7
HETATM    7  O   LIG     1      15.894  38.008  24.141  1.00  0.00    -0.361 OA
HETATM    8  H   LIG     1      16.099  38.722  24.829  1.00  0.00     0.217 HD
ENDBRANCH   1   7
BRANCH   3   9
HETATM    9  O   LIG     1      19.035  39.860  20.978  1.00  0.00    -0.361 OA
HETATM   10  H   LIG     1      19.714  40.293  21.593  1.00  0.00     0.217 HD
ENDBRANCH   3   9
TORSDOF 2
ENDMDL
MODEL 8
REMARK VINA RESULT:      -5.1      3.696      4.650
REMARK  2 active torsions:
REMARK  status: ('A' for Active; 'I' for Inactive)
REMARK    1  A    between atoms: O_1  and  C_2 
REMARK    2  A    between atoms: C_4  and  O_5 
ROOT
HETATM    1  C   LIG     1      16.651  37.600  23.398  1.00  0.00     0.068 A 
HETATM    2  C   LIG     1      17.007  37.510  24.750  1.00  0.00     0.072 A 
HETATM    3  C   LIG     1      17.354  36.274  25.307  1.00  0.00     0.068 A 
HETATM    4  C   LIG     1      17.343  35.122  24.508  1.00  0.00     0.037 A 
HETATM    5  C   LIG     1      16.987  35.209  23.159  1.00  0.00     0.005 A 
HETATM    6  C   LIG     1      16.642  36.445  22.603  1.00  0.00     0.037 A 
ENDROOT
BRANCH   1   7
HETATM    7  O   LIG     1      16.308  38.836  22.857  1.00  0.00    -0.361 OA
HETATM    8  H   LIG     1      16.770  39.199  22.031  1.00  0.00     0.217 HD
ENDBRANCH   1   7
BRANCH   3   9
HETATM    9  O   LIG     1      17.707  36.202  26.653  1.00  0.00    -0.361 OA
HETATM   10  H   LIG     1      17.959  35.322  27.087  1.00  0.00     0.217 HD
ENDBRANCH   3   9
TORSDOF 2
ENDMDL
MODEL 9
REMARK VINA RESULT:      -5.1      9.682     10.606
REMARK  2 active torsions:
REMARK  status: ('A' for Active; 'I' for Inactive)
REMARK    1  A    between atoms: O_1  and  C_2 
REMARK    2  A    between atoms: C_4  and  O_5 
ROOT
HETATM    1  C   LIG     1      13.491  29.875  14.689  1.00  0.00     0.068 A 
HETATM    2  C   LIG     1      13.044  30.464  15.878  1.00  0.00     0.072 A 
HETATM    3  C   LIG     1      13.810  31.452  16.507  1.00  0.00     0.068 A 
HETATM    4  C   LIG     1      15.031  31.851  15.944  1.00  0.00     0.037 A 
HETATM    5  C   LIG     1      15.480  31.263  14.758  1.00  0.00     0.005 A 
HETATM    6  C   LIG     1      14.713  30.277  14.130  1.00  0.00     0.037 A 
ENDROOT
BRANCH   1   7
HETATM    7  O   LIG     1      12.718  28.894  14.073  1.00  0.00    -0.361 OA
HETATM    8  H   LIG     1      11.814  28.624  14.441  1.00  0.00     0.217 HD
ENDBRANCH   1   7
BRANCH   3   9
HETATM    9  O   LIG     1      13.351  32.029  17.689  1.00  0.00    -0.361 OA
HETATM   10  H   LIG     1      12.916  31.473  18.415  1.00  0.00     0.217 HD
ENDBRANCH   3   9
TORSDOF 2
ENDMDL
MODEL 10
REMARK VINA RESULT:      -5.1      9.640     10.743
REMARK  2 active torsions:
REMARK  status: ('A' for Active; 'I' for Inactive)
REMARK    1  A    between atoms: O_1  and  C_2 
REMARK    2  A    between atoms: C_4  and  O_5 
ROOT
HETATM    1  C   LIG     1      13.836  31.468  16.531  1.00  0.00     0.068 A 
HETATM    2  C   LIG     1      13.079  30.477  15.894  1.00  0.00     0.072 A 
HETATM    3  C   LIG     1      13.529  29.907  14.697  1.00  0.00     0.068 A 
HETATM    4  C   LIG     1      14.741  30.332  14.135  1.00  0.00     0.037 A 
HETATM    5  C   LIG     1      15.498  31.322  14.769  1.00  0.00     0.005 A 
HETATM    6  C   LIG     1      15.048  31.890  15.965  1.00  0.00     0.037 A 
ENDROOT
BRANCH   1   7
HETATM    7  O   LIG     1      13.377  32.025  17.722  1.00  0.00    -0.361 OA
HETATM    8  H   LIG     1      13.969  32.086  18.541  1.00  0.00     0.217 HD
ENDBRANCH   1   7
BRANCH   3   9
HETATM    9  O   LIG     1      12.765  28.922  14.075  1.00  0.00    -0.361 OA
HETATM   10  H   LIG     1      12.449  29.022  13.118  1.00  0.00     0.217 HD
ENDBRANCH   3   9
TORSDOF 2
ENDMDL
MODEL 11
REMARK VINA RESULT:      -5.0      2.322      4.056
REMARK  2 active torsions:
REMARK  status: ('A' for Active; 'I' for Inactive)
REMARK    1  A    between atoms: O_1  and  C_2 
REMARK    2  A    between atoms: C_4  and  O_5 
ROOT
HETATM    1  C   LIG     1      16.799  37.908  23.156  1.00  0.00     0.068 A 
HETATM    2  C   LIG     1      16.666  36.835  22.266  1.00  0.00     0.072 A 
HETATM    3  C   LIG     1      17.417  36.799  21.086  1.00  0.00     0.068 A 
HETATM    4  C   LIG     1      18.306  37.845  20.794  1.00  0.00     0.037 A 
HETATM    5  C   LIG     1      18.439  38.918  21.680  1.00  0.00     0.005 A 
HETATM    6  C   LIG     1      17.689  38.951  22.859  1.00  0.00     0.037 A 
ENDROOT
BRANCH   1   7
HETATM    7  O   LIG     1      16.046  37.930  24.327  1.00  0.00    -0.361 OA
HETATM    8  H   LIG     1      15.942  38.776  24.874  1.00  0.00     0.217 HD
ENDBRANCH   1   7
BRANCH   3   9
HETATM    9  O   LIG     1      17.274  35.724  20.212  1.00  0.00    -0.361 OA
HETATM   10  H   LIG     1      16.622  35.755  19.437  1.00  0.00     0.217 HD
ENDBRANCH   3   9
TORSDOF 2
ENDMDL
MODEL 12
REMARK VINA RESULT:      -4.9      8.230      9.301
REMARK  2 active torsions:
REMARK  status: ('A' for Active; 'I' for Inactive)
REMARK    1  A    between atoms: O_1  and  C_2 
REMARK    2  A    between atoms: C_4  and  O_5 
ROOT
HETATM    1  C   LIG     1      13.457  30.986  16.363  1.00  0.00     0.068 A 
HETATM    2  C   LIG     1      13.772  32.078  17.182  1.00  0.00     0.072 A 
HETATM    3  C   LIG     1      14.896  32.866  16.905  1.00  0.00     0.068 A 
HETATM    4  C   LIG     1      15.709  32.559  15.804  1.00  0.00     0.037 A 
HETATM    5  C   LIG     1      15.396  31.469  14.986  1.00  0.00     0.005 A 
HETATM    6  C   LIG     1      14.273  30.683  15.263  1.00  0.00     0.037 A 
ENDROOT
BRANCH   1   7
HETATM    7  O   LIG     1      12.336  30.211  16.649  1.00  0.00    -0.361 OA
HETATM    8  H   LIG     1      11.401  30.532  16.430  1.00  0.00     0.217 HD
ENDBRANCH   1   7
BRANCH   3   9
HETATM    9  O   LIG     1      15.195  33.949  17.729  1.00  0.00    -0.361 OA
HETATM   10  H   LIG     1      15.555  33.817  18.666  1.00  0.00     0.217 HD
ENDBRANCH   3   9
TORSDOF 2
ENDMDL
MODEL 13
REMARK VINA RESULT:      -4.9      8.239      9.173
REMARK  2 active torsions:
REMARK  status: ('A' for Active; 'I' for Inactive)
REMARK    1  A    between atoms: O_1  and  C_2 
REMARK    2  A    between atoms: C_4  and  O_5 
ROOT
HETATM    1  C   LIG     1      14.878  32.902  16.847  1.00  0.00     0.068 A 
HETATM    2  C   LIG     1      13.757  32.115  17.140  1.00  0.00     0.072 A 
HETATM    3  C   LIG     1      13.453  30.999  16.352  1.00  0.00     0.068 A 
HETATM    4  C   LIG     1      14.274  30.669  15.264  1.00  0.00     0.037 A 
HETATM    5  C   LIG     1      15.393  31.454  14.969  1.00  0.00     0.005 A 
HETATM    6  C   LIG     1      15.696  32.568  15.758  1.00  0.00     0.037 A 
ENDROOT
BRANCH   1   7
HETATM    7  O   LIG     1      15.169  34.009  17.640  1.00  0.00    -0.361 OA
HETATM    8  H   LIG     1      15.658  33.914  18.522  1.00  0.00     0.217 HD
ENDBRANCH   1   7
BRANCH   3   9
HETATM    9  O   LIG     1      12.335  30.226  16.657  1.00  0.00    -0.361 OA
HETATM   10  H   LIG     1      11.950  29.567  15.992  1.00  0.00     0.217 HD
ENDBRANCH   3   9
TORSDOF 2
ENDMDL
MODEL 14
REMARK VINA RESULT:      -4.9      8.844      9.693
REMARK  2 active torsions:
REMARK  status: ('A' for Active; 'I' for Inactive)
REMARK    1  A    between atoms: O_1  and  C_2 
REMARK    2  A    between atoms: C_4  and  O_5 
ROOT
HETATM    1  C   LIG     1      15.580  31.479  14.814  1.00  0.00     0.068 A 
HETATM    2  C   LIG     1      15.089  32.008  16.014  1.00  0.00     0.072 A 
HETATM    3  C   LIG     1      13.898  31.520  16.564  1.00  0.00     0.068 A 
HETATM    4  C   LIG     1      13.194  30.498  15.909  1.00  0.00     0.037 A 
HETATM    5  C   LIG     1      13.683  29.969  14.711  1.00  0.00     0.005 A 
HETATM    6  C   LIG     1      14.873  30.457  14.163  1.00  0.00     0.037 A 
ENDROOT
BRANCH   1   7
HETATM    7  O   LIG     1      16.767  31.973  14.278  1.00  0.00    -0.361 OA
HETATM    8  H   LIG     1      17.030  31.791  13.317  1.00  0.00     0.217 HD
ENDBRANCH   1   7
BRANCH   3   9
HETATM    9  O   LIG     1      13.423  32.056  17.759  1.00  0.00    -0.361 OA
HETATM   10  H   LIG     1      12.663  31.621  18.269  1.00  0.00     0.217 HD
ENDBRANCH   3   9
TORSDOF 2
ENDMDL
MODEL 15
REMARK VINA RESULT:      -4.9      8.782     10.074
REMARK  2 active torsions:
REMARK  status: ('A' for Active; 'I' for Inactive)
REMARK    1  A    between atoms: O_1  and  C_2 
REMARK    2  A    between atoms: C_4  and  O_5 
ROOT
HETATM    1  C   LIG     1      13.938  31.531  16.520  1.00  0.00     0.068 A 
HETATM    2  C   LIG     1      15.131  32.068  16.020  1.00  0.00     0.072 A 
HETATM    3  C   LIG     1      15.687  31.569  14.837  1.00  0.00     0.068 A 
HETATM    4  C   LIG     1      15.047  30.527  14.151  1.00  0.00     0.037 A 
HETATM    5  C   LIG     1      13.856  29.989  14.648  1.00  0.00     0.005 A 
HETATM    6  C   LIG     1      13.301  30.489  15.830  1.00  0.00     0.037 A 
ENDROOT
BRANCH   1   7
HETATM    7  O   LIG     1      13.395  32.038  17.698  1.00  0.00    -0.361 OA
HETATM    8  H   LIG     1      12.867  32.902  17.709  1.00  0.00     0.217 HD
ENDBRANCH   1   7
BRANCH   3   9
HETATM    9  O   LIG     1      16.875  32.114  14.352  1.00  0.00    -0.361 OA
HETATM   10  H   LIG     1      17.595  31.533  13.941  1.00  0.00     0.217 HD
ENDBRANCH   3   9
TORSDOF 2
ENDMDL
MODEL 16
REMARK VINA RESULT:      -4.8      1.645      2.419
REMARK  2 active torsions:
REMARK  status: ('A' for Active; 'I' for Inactive)
REMARK    1  A    between atoms: O_1  and  C_2 
REMARK    2  A    between atoms: C_4  and  O_5 
ROOT
HETATM    1  C   LIG     1      18.455  37.278  20.167  1.00  0.00     0.068 A 
HETATM    2  C   LIG     1      17.570  36.842  21.160  1.00  0.00     0.072 A 
HETATM    3  C   LIG     1      17.214  37.695  22.212  1.00  0.00     0.068 A 
HETATM    4  C   LIG     1      17.750  38.990  22.271  1.00  0.00     0.037 A 
HETATM    5  C   LIG     1      18.635  39.427  21.281  1.00  0.00     0.005 A 
HETATM    6  C   LIG     1      18.988  38.574  20.230  1.00  0.00     0.037 A 
ENDROOT
BRANCH   1   7
HETATM    7  O   LIG     1      18.800  36.420  19.126  1.00  0.00    -0.361 OA
HETATM    8  H   LIG     1      18.299  35.553  18.967  1.00  0.00     0.217 HD
ENDBRANCH   1   7
BRANCH   3   9
HETATM    9  O   LIG     1      16.331  37.246  23.192  1.00  0.00    -0.361 OA
HETATM   10  H   LIG     1      15.334  37.403  23.117  1.00  0.00     0.217 HD
ENDBRANCH   3   9
TORSDOF 2
ENDMDL
MODEL 17
REMARK VINA RESULT:      -4.8      9.023     10.359
REMARK  2 active torsions:
REMARK  status: ('A' for Active; 'I' for Inactive)
REMARK    1  A    between atoms: O_1  and  C_2 
REMARK    2  A    between atoms: C_4  and  O_5 
ROOT
HETATM    1  C   LIG     1      13.474  30.880  16.222  1.00  0.00     0.068 A 
HETATM    2  C   LIG     1      14.089  30.404  15.056  1.00  0.00     0.072 A 
HETATM    3  C   LIG     1      15.245  31.023  14.566  1.00  0.00     0.068 A 
HETATM    4  C   LIG     1      15.788  32.123  15.245  1.00  0.00     0.037 A 
HETATM    5  C   LIG     1      15.176  32.599  16.408  1.00  0.00     0.005 A 
HETATM    6  C   LIG     1      14.021  31.980  16.897  1.00  0.00     0.037 A 
ENDROOT
BRANCH   1   7
HETATM    7  O   LIG     1      12.325  30.255  16.698  1.00  0.00    -0.361 OA
HETATM    8  H   LIG     1      11.674  29.795  16.072  1.00  0.00     0.217 HD
ENDBRANCH   1   7
BRANCH   3   9
HETATM    9  O   LIG     1      15.845  30.537  13.406  1.00  0.00    -0.361 OA
HETATM   10  H   LIG     1      16.378  29.676  13.407  1.00  0.00     0.217 HD
ENDBRANCH   3   9
TORSDOF 2
ENDMDL
MODEL 18
REMARK VINA RESULT:      -4.8      2.729      4.041
REMARK  2 active torsions:
REMARK  status: ('A' for Active; 'I' for Inactive)
REMARK    1  A    between atoms: O_1  and  C_2 
REMARK    2  A    between atoms: C_4  and  O_5 
ROOT
HETATM    1  C   LIG     1      16.453  37.833  22.371  1.00  0.00     0.068 A 
HETATM    2  C   LIG     1      15.330  36.996  22.327  1.00  0.00     0.072 A 
HETATM    3  C   LIG     1      15.341  35.843  21.534  1.00  0.00     0.068 A 
HETATM    4  C   LIG     1      16.481  35.526  20.780  1.00  0.00     0.037 A 
HETATM    5  C   LIG     1      17.602  36.360  20.822  1.00  0.00     0.005 A 
HETATM    6  C   LIG     1      17.590  37.511  21.616  1.00  0.00     0.037 A 
ENDROOT
BRANCH   1   7
HETATM    7  O   LIG     1      16.428  38.976  23.165  1.00  0.00    -0.361 OA
HETATM    8  H   LIG     1      16.530  39.901  22.765  1.00  0.00     0.217 HD
ENDBRANCH   1   7
BRANCH   3   9
HETATM    9  O   LIG     1      14.217  35.021  21.501  1.00  0.00    -0.361 OA
HETATM   10  H   LIG     1      13.309  35.376  21.225  1.00  0.00     0.217 HD
ENDBRANCH   3   9
TORSDOF 2
ENDMDL
MODEL 19
REMARK VINA RESULT:      -4.8      8.763      9.665
REMARK  2 active torsions:
REMARK  status: ('A' for Active; 'I' for Inactive)
REMARK    1  A    between atoms: O_1  and  C_2 
REMARK    2  A    between atoms: C_4  and  O_5 
ROOT
HETATM    1  C   LIG     1      15.364  31.349  14.853  1.00  0.00     0.068 A 
HETATM    2  C   LIG     1      14.227  30.609  15.202  1.00  0.00     0.072 A 
HETATM    3  C   LIG     1      13.464  30.974  16.317  1.00  0.00     0.068 A 
HETATM    4  C   LIG     1      13.842  32.083  17.088  1.00  0.00     0.037 A 
HETATM    5  C   LIG     1      14.978  32.822  16.741  1.00  0.00     0.005 A 
HETATM    6  C   LIG     1      15.738  32.457  15.626  1.00  0.00     0.037 A 
ENDROOT
BRANCH   1   7
HETATM    7  O   LIG     1      16.114  30.975  13.740  1.00  0.00    -0.361 OA
HETATM    8  H   LIG     1      16.190  30.006  13.454  1.00  0.00     0.217 HD
ENDBRANCH   1   7
BRANCH   3   9
HETATM    9  O   LIG     1      12.335  30.229  16.651  1.00  0.00    -0.361 OA
HETATM   10  H   LIG     1      11.539  30.653  17.113  1.00  0.00     0.217 HD
ENDBRANCH   3   9
TORSDOF 2
ENDMDL
MODEL 20
REMARK VINA RESULT:      -4.7      8.063      9.266
REMARK  2 active torsions:
REMARK  status: ('A' for Active; 'I' for Inactive)
REMARK    1  A    between atoms: O_1  and  C_2 
REMARK    2  A    between atoms: C_4  and  O_5 
ROOT
HETATM    1  C   LIG     1      14.898  32.801  16.878  1.00  0.00     0.068 A 
HETATM    2  C   LIG     1      15.700  32.558  15.756  1.00  0.00     0.072 A 
HETATM    3  C   LIG     1      15.414  31.485  14.904  1.00  0.00     0.068 A 
HETATM    4  C   LIG     1      14.321  30.650  15.176  1.00  0.00     0.037 A 
HETATM    5  C   LIG     1      13.519  30.891  16.297  1.00  0.00     0.005 A 
HETATM    6  C   LIG     1      13.805  31.963  17.147  1.00  0.00     0.037 A 
ENDROOT
BRANCH   1   7
HETATM    7  O   LIG     1      15.194  33.872  17.718  1.00  0.00    -0.361 OA
HETATM    8  H   LIG     1      15.213  33.766  18.725  1.00  0.00     0.217 HD
ENDBRANCH   1   7
BRANCH   3   9
HETATM    9  O   LIG     1      16.221  31.257  13.791  1.00  0.00    -0.361 OA
HETATM   10  H   LIG     1      15.838  31.242  12.854  1.00  0.00     0.217 HD
ENDBRANCH   3   9
TORSDOF 2
ENDMDL
