MODEL 1
REMARK VINA RESULT:      -3.5      0.000      0.000
REMARK  2 active torsions:
REMARK  status: ('A' for Active; 'I' for Inactive)
REMARK    1  A    between atoms: C_2  and  O_3 
REMARK    2  A    between atoms: O_3  and  C_4 
ROOT
HETATM    1  O   LIG     1      16.270  37.961  24.566  1.00  0.00    -0.364 OA
ENDROOT
BRANCH   1   2
HETATM    2  C   LIG     1      16.415  37.632  23.187  1.00  0.00     0.169 C 
HETATM    3  C   LIG     1      16.991  38.823  22.436  1.00  0.00     0.034 C 
ENDBRANCH   1   2
BRANCH   1   4
HETATM    4  C   LIG     1      17.362  38.090  25.425  1.00  0.00     0.124 C 
HETATM    5  C   LIG     1      17.981  37.006  25.874  1.00  0.00     0.037 C 
ENDBRANCH   1   4
TORSDOF 2
ENDMDL
MODEL 2
REMARK VINA RESULT:      -3.4      0.214      2.980
REMARK  2 active torsions:
REMARK  status: ('A' for Active; 'I' for Inactive)
REMARK    1  A    between atoms: C_2  and  O_3 
REMARK    2  A    between atoms: O_3  and  C_4 
ROOT
HETATM    1  O   LIG     1      16.213  37.841  24.472  1.00  0.00    -0.364 OA
ENDROOT
BRANCH   1   2
HETATM    2  C   LIG     1      17.351  38.210  25.247  1.00  0.00     0.169 C 
HETATM    3  C   LIG     1      17.929  36.978  25.926  1.00  0.00     0.034 C 
ENDBRANCH   1   2
BRANCH   1   4
HETATM    4  C   LIG     1      16.200  37.914  23.078  1.00  0.00     0.124 C 
HETATM    5  C   LIG     1      17.038  38.728  22.452  1.00  0.00     0.037 C 
ENDBRANCH   1   4
TORSDOF 2
ENDMDL
MODEL 3
REMARK VINA RESULT:      -3.3      1.421      2.063
REMARK  2 active torsions:
REMARK  status: ('A' for Active; 'I' for Inactive)
REMARK    1  A    between atoms: C_2  and  O_3 
REMARK    2  A    between atoms: O_3  and  C_4 
ROOT
HETATM    1  O   LIG     1      17.537  37.393  26.073  1.00  0.00    -0.364 OA
ENDROOT
BRANCH   1   2
HETATM    2  C   LIG     1      17.793  37.954  24.788  1.00  0.00     0.169 C 
HETATM    3  C   LIG     1      16.628  37.652  23.858  1.00  0.00     0.034 C 
ENDBRANCH   1   2
BRANCH   1   4
HETATM    4  C   LIG     1      18.338  36.392  26.626  1.00  0.00     0.124 C 
HETATM    5  C   LIG     1      18.151  35.127  26.274  1.00  0.00     0.037 C 
ENDBRANCH   1   4
TORSDOF 2
ENDMDL
MODEL 4
REMARK VINA RESULT:      -3.2      2.675      2.891
REMARK  2 active torsions:
REMARK  status: ('A' for Active; 'I' for Inactive)
REMARK    1  A    between atoms: C_2  and  O_3 
REMARK    2  A    between atoms: O_3  and  C_4 
ROOT
HETATM    1  O   LIG     1      17.314  34.770  25.038  1.00  0.00    -0.364 OA
ENDROOT
BRANCH   1   2
HETATM    2  C   LIG     1      17.141  35.822  24.092  1.00  0.00     0.169 C 
HETATM    3  C   LIG     1      16.957  35.235  22.702  1.00  0.00     0.034 C 
ENDBRANCH   1   2
BRANCH   1   4
HETATM    4  C   LIG     1      18.091  34.916  26.188  1.00  0.00     0.124 C 
HETATM    5  C   LIG     1      18.309  36.124  26.689  1.00  0.00     0.037 C 
ENDBRANCH   1   4
TORSDOF 2
ENDMDL
MODEL 5
REMARK VINA RESULT:      -3.2      2.050      3.243
REMARK  2 active torsions:
REMARK  status: ('A' for Active; 'I' for Inactive)
REMARK    1  A    between atoms: C_2  and  O_3 
REMARK    2  A    between atoms: O_3  and  C_4 
ROOT
HETATM    1  O   LIG     1      17.318  36.205  24.592  1.00  0.00    -0.364 OA
ENDROOT
BRANCH   1   2
HETATM    2  C   LIG     1      17.342  34.898  25.160  1.00  0.00     0.169 C 
HETATM    3  C   LIG     1      18.293  34.873  26.346  1.00  0.00     0.034 C 
ENDBRANCH   1   2
BRANCH   1   4
HETATM    4  C   LIG     1      17.968  37.290  25.182  1.00  0.00     0.124 C 
HETATM    5  C   LIG     1      17.281  38.380  25.499  1.00  0.00     0.037 C 
ENDBRANCH   1   4
TORSDOF 2
ENDMDL
MODEL 6
REMARK VINA RESULT:      -3.1      1.741      3.463
REMARK  2 active torsions:
REMARK  status: ('A' for Active; 'I' for Inactive)
REMARK    1  A    between atoms: C_2  and  O_3 
REMARK    2  A    between atoms: O_3  and  C_4 
ROOT
HETATM    1  O   LIG     1      17.256  36.067  24.412  1.00  0.00    -0.364 OA
ENDROOT
BRANCH   1   2
HETATM    2  C   LIG     1      17.566  37.146  25.291  1.00  0.00     0.169 C 
HETATM    3  C   LIG     1      18.418  36.638  26.443  1.00  0.00     0.034 C 
ENDBRANCH   1   2
BRANCH   1   4
HETATM    4  C   LIG     1      16.909  36.265  23.075  1.00  0.00     0.124 C 
HETATM    5  C   LIG     1      16.954  35.249  22.224  1.00  0.00     0.037 C 
ENDBRANCH   1   4
TORSDOF 2
ENDMDL
MODEL 7
REMARK VINA RESULT:      -3.1      9.058     10.227
REMARK  2 active torsions:
REMARK  status: ('A' for Active; 'I' for Inactive)
REMARK    1  A    between atoms: C_2  and  O_3 
REMARK    2  A    between atoms: O_3  and  C_4 
ROOT
HETATM    1  O   LIG     1      13.858  31.232  17.873  1.00  0.00    -0.364 OA
ENDROOT
BRANCH   1   2
HETATM    2  C   LIG     1      14.730  32.005  18.694  1.00  0.00     0.169 C 
HETATM    3  C   LIG     1      14.884  31.335  20.050  1.00  0.00     0.034 C 
ENDBRANCH   1   2
BRANCH   1   4
HETATM    4  C   LIG     1      13.866  31.319  16.480  1.00  0.00     0.124 C 
HETATM    5  C   LIG     1      13.052  30.553  15.766  1.00  0.00     0.037 C 
ENDBRANCH   1   4
TORSDOF 2
ENDMDL
MODEL 8
REMARK VINA RESULT:      -3.1      8.244      9.006
REMARK  2 active torsions:
REMARK  status: ('A' for Active; 'I' for Inactive)
REMARK    1  A    between atoms: C_2  and  O_3 
REMARK    2  A    between atoms: O_3  and  C_4 
ROOT
HETATM    1  O   LIG     1      14.111  31.180  18.755  1.00  0.00    -0.364 OA
ENDROOT
BRANCH   1   2
HETATM    2  C   LIG     1      14.165  31.841  17.494  1.00  0.00     0.169 C 
HETATM    3  C   LIG     1      13.484  30.985  16.438  1.00  0.00     0.034 C 
ENDBRANCH   1   2
BRANCH   1   4
HETATM    4  C   LIG     1      14.922  31.546  19.830  1.00  0.00     0.124 C 
HETATM    5  C   LIG     1      15.439  32.766  19.881  1.00  0.00     0.037 C 
ENDBRANCH   1   4
TORSDOF 2
ENDMDL
MODEL 9
REMARK VINA RESULT:      -3.0      1.436      1.863
REMARK  2 active torsions:
REMARK  status: ('A' for Active; 'I' for Inactive)
REMARK    1  A    between atoms: C_2  and  O_3 
REMARK    2  A    between atoms: O_3  and  C_4 
ROOT
HETATM    1  O   LIG     1      16.314  37.402  23.557  1.00  0.00    -0.364 OA
ENDROOT
BRANCH   1   2
HETATM    2  C   LIG     1      16.637  36.791  22.310  1.00  0.00     0.169 C 
HETATM    3  C   LIG     1      16.894  35.307  22.520  1.00  0.00     0.034 C 
ENDBRANCH   1   2
BRANCH   1   4
HETATM    4  C   LIG     1      17.261  38.077  24.328  1.00  0.00     0.124 C 
HETATM    5  C   LIG     1      17.443  37.736  25.597  1.00  0.00     0.037 C 
ENDBRANCH   1   4
TORSDOF 2
ENDMDL
MODEL 10
REMARK VINA RESULT:      -2.9      3.954      4.958
REMARK  2 active torsions:
REMARK  status: ('A' for Active; 'I' for Inactive)
REMARK    1  A    between atoms: C_2  and  O_3 
REMARK    2  A    between atoms: O_3  and  C_4 
ROOT
HETATM    1  O   LIG     1      17.887  36.210  19.996  1.00  0.00    -0.364 OA
ENDROOT
BRANCH   1   2
HETATM    2  C   LIG     1      17.284  36.513  21.251  1.00  0.00     0.169 C 
HETATM    3  C   LIG     1      16.998  35.225  22.006  1.00  0.00     0.034 C 
ENDBRANCH   1   2
BRANCH   1   4
HETATM    4  C   LIG     1      18.861  37.024  19.416  1.00  0.00     0.124 C 
HETATM    5  C   LIG     1      19.130  38.210  19.944  1.00  0.00     0.037 C 
ENDBRANCH   1   4
TORSDOF 2
ENDMDL
MODEL 11
REMARK VINA RESULT:      -2.9      3.088      4.135
REMARK  2 active torsions:
REMARK  status: ('A' for Active; 'I' for Inactive)
REMARK    1  A    between atoms: C_2  and  O_3 
REMARK    2  A    between atoms: O_3  and  C_4 
ROOT
HETATM    1  O   LIG     1      18.997  39.168  21.409  1.00  0.00    -0.364 OA
ENDROOT
BRANCH   1   2
HETATM    2  C   LIG     1      19.614  39.054  20.129  1.00  0.00     0.169 C 
HETATM    3  C   LIG     1      19.317  37.684  19.539  1.00  0.00     0.034 C 
ENDBRANCH   1   2
BRANCH   1   4
HETATM    4  C   LIG     1      17.893  38.400  21.780  1.00  0.00     0.124 C 
HETATM    5  C   LIG     1      16.922  38.944  22.500  1.00  0.00     0.037 C 
ENDBRANCH   1   4
TORSDOF 2
ENDMDL
MODEL 12
REMARK VINA RESULT:      -2.9      3.137      4.471
REMARK  2 active torsions:
REMARK  status: ('A' for Active; 'I' for Inactive)
REMARK    1  A    between atoms: C_2  and  O_3 
REMARK    2  A    between atoms: O_3  and  C_4 
ROOT
HETATM    1  O   LIG     1      18.417  37.664  20.700  1.00  0.00    -0.364 OA
ENDROOT
BRANCH   1   2
HETATM    2  C   LIG     1      17.474  37.558  21.763  1.00  0.00     0.169 C 
HETATM    3  C   LIG     1      17.243  38.929  22.380  1.00  0.00     0.034 C 
ENDBRANCH   1   2
BRANCH   1   4
HETATM    4  C   LIG     1      19.019  38.873  20.349  1.00  0.00     0.124 C 
HETATM    5  C   LIG     1      20.075  38.876  19.546  1.00  0.00     0.037 C 
ENDBRANCH   1   4
TORSDOF 2
ENDMDL
MODEL 13
REMARK VINA RESULT:      -2.8      5.274      6.082
REMARK  2 active torsions:
REMARK  status: ('A' for Active; 'I' for Inactive)
REMARK    1  A    between atoms: C_2  and  O_3 
REMARK    2  A    between atoms: O_3  and  C_4 
ROOT
HETATM    1  O   LIG     1      14.978  33.621  21.018  1.00  0.00    -0.364 OA
ENDROOT
BRANCH   1   2
HETATM    2  C   LIG     1      15.409  32.875  19.882  1.00  0.00     0.169 C 
HETATM    3  C   LIG     1      14.871  31.455  19.969  1.00  0.00     0.034 C 
ENDBRANCH   1   2
BRANCH   1   4
HETATM    4  C   LIG     1      15.475  34.891  21.313  1.00  0.00     0.124 C 
HETATM    5  C   LIG     1      16.673  35.019  21.868  1.00  0.00     0.037 C 
ENDBRANCH   1   4
TORSDOF 2
ENDMDL
MODEL 14
REMARK VINA RESULT:      -2.8      1.773      2.988
REMARK  2 active torsions:
REMARK  status: ('A' for Active; 'I' for Inactive)
REMARK    1  A    between atoms: C_2  and  O_3 
REMARK    2  A    between atoms: O_3  and  C_4 
ROOT
HETATM    1  O   LIG     1      16.973  37.607  22.639  1.00  0.00    -0.364 OA
ENDROOT
BRANCH   1   2
HETATM    2  C   LIG     1      16.684  37.591  24.035  1.00  0.00     0.169 C 
HETATM    3  C   LIG     1      17.938  37.936  24.822  1.00  0.00     0.034 C 
ENDBRANCH   1   2
BRANCH   1   4
HETATM    4  C   LIG     1      16.848  36.473  21.835  1.00  0.00     0.124 C 
HETATM    5  C   LIG     1      16.923  35.266  22.378  1.00  0.00     0.037 C 
ENDBRANCH   1   4
TORSDOF 2
ENDMDL
MODEL 15
REMARK VINA RESULT:      -2.8      3.610      3.889
REMARK  2 active torsions:
REMARK  status: ('A' for Active; 'I' for Inactive)
REMARK    1  A    between atoms: C_2  and  O_3 
REMARK    2  A    between atoms: O_3  and  C_4 
ROOT
HETATM    1  O   LIG     1      17.677  37.299  21.190  1.00  0.00    -0.364 OA
ENDROOT
BRANCH   1   2
HETATM    2  C   LIG     1      18.667  37.866  20.336  1.00  0.00     0.169 C 
HETATM    3  C   LIG     1      18.831  39.344  20.655  1.00  0.00     0.034 C 
ENDBRANCH   1   2
BRANCH   1   4
HETATM    4  C   LIG     1      17.226  35.985  21.047  1.00  0.00     0.124 C 
HETATM    5  C   LIG     1      17.018  35.238  22.123  1.00  0.00     0.037 C 
ENDBRANCH   1   4
TORSDOF 2
ENDMDL
MODEL 16
REMARK VINA RESULT:      -2.8      5.212      6.222
REMARK  2 active torsions:
REMARK  status: ('A' for Active; 'I' for Inactive)
REMARK    1  A    between atoms: C_2  and  O_3 
REMARK    2  A    between atoms: O_3  and  C_4 
ROOT
HETATM    1  O   LIG     1      14.973  33.693  21.001  1.00  0.00    -0.364 OA
ENDROOT
BRANCH   1   2
HETATM    2  C   LIG     1      15.408  35.041  21.166  1.00  0.00     0.169 C 
HETATM    3  C   LIG     1      16.737  35.062  21.904  1.00  0.00     0.034 C 
ENDBRANCH   1   2
BRANCH   1   4
HETATM    4  C   LIG     1      15.409  32.889  19.947  1.00  0.00     0.124 C 
HETATM    5  C   LIG     1      15.012  31.625  19.873  1.00  0.00     0.037 C 
ENDBRANCH   1   4
TORSDOF 2
ENDMDL
MODEL 17
REMARK VINA RESULT:      -2.8      2.745      3.722
REMARK  2 active torsions:
REMARK  status: ('A' for Active; 'I' for Inactive)
REMARK    1  A    between atoms: C_2  and  O_3 
REMARK    2  A    between atoms: O_3  and  C_4 
ROOT
HETATM    1  O   LIG     1      17.171  38.275  21.790  1.00  0.00    -0.364 OA
ENDROOT
BRANCH   1   2
HETATM    2  C   LIG     1      17.037  36.947  22.289  1.00  0.00     0.169 C 
HETATM    3  C   LIG     1      17.219  35.953  21.152  1.00  0.00     0.034 C 
ENDBRANCH   1   2
BRANCH   1   4
HETATM    4  C   LIG     1      18.391  38.953  21.781  1.00  0.00     0.124 C 
HETATM    5  C   LIG     1      18.897  39.385  20.634  1.00  0.00     0.037 C 
ENDBRANCH   1   4
TORSDOF 2
ENDMDL
MODEL 18
REMARK VINA RESULT:      -2.7      8.249      9.384
REMARK  2 active torsions:
REMARK  status: ('A' for Active; 'I' for Inactive)
REMARK    1  A    between atoms: C_2  and  O_3 
REMARK    2  A    between atoms: O_3  and  C_4 
ROOT
HETATM    1  O   LIG     1      15.711  32.893  17.437  1.00  0.00    -0.364 OA
ENDROOT
BRANCH   1   2
HETATM    2  C   LIG     1      14.827  32.237  18.343  1.00  0.00     0.169 C 
HETATM    3  C   LIG     1      15.501  32.091  19.699  1.00  0.00     0.034 C 
ENDBRANCH   1   2
BRANCH   1   4
HETATM    4  C   LIG     1      15.618  32.737  16.054  1.00  0.00     0.124 C 
HETATM    5  C   LIG     1      16.683  32.363  15.358  1.00  0.00     0.037 C 
ENDBRANCH   1   4
TORSDOF 2
ENDMDL
MODEL 19
REMARK VINA RESULT:      -2.7     11.252     12.199
REMARK  2 active torsions:
REMARK  status: ('A' for Active; 'I' for Inactive)
REMARK    1  A    between atoms: C_2  and  O_3 
REMARK    2  A    between atoms: O_3  and  C_4 
ROOT
HETATM    1  O   LIG     1      16.223  31.512  13.596  1.00  0.00    -0.364 OA
ENDROOT
BRANCH   1   2
HETATM    2  C   LIG     1      16.262  32.419  14.695  1.00  0.00     0.169 C 
HETATM    3  C   LIG     1      17.618  33.107  14.741  1.00  0.00     0.034 C 
ENDBRANCH   1   2
BRANCH   1   4
HETATM    4  C   LIG     1      15.298  30.471  13.515  1.00  0.00     0.124 C 
HETATM    5  C   LIG     1      14.538  30.180  14.563  1.00  0.00     0.037 C 
ENDBRANCH   1   4
TORSDOF 2
ENDMDL
MODEL 20
REMARK VINA RESULT:      -2.6     11.423     12.320
REMARK  2 active torsions:
REMARK  status: ('A' for Active; 'I' for Inactive)
REMARK    1  A    between atoms: C_2  and  O_3 
REMARK    2  A    between atoms: O_3  and  C_4 
ROOT
HETATM    1  O   LIG     1      16.060  31.025  13.580  1.00  0.00    -0.364 OA
ENDROOT
BRANCH   1   2
HETATM    2  C   LIG     1      15.300  29.832  13.761  1.00  0.00     0.169 C 
HETATM    3  C   LIG     1      14.142  30.102  14.709  1.00  0.00     0.034 C 
ENDBRANCH   1   2
BRANCH   1   4
HETATM    4  C   LIG     1      15.962  32.115  14.446  1.00  0.00     0.124 C 
HETATM    5  C   LIG     1      17.037  32.542  15.095  1.00  0.00     0.037 C 
ENDBRANCH   1   4
TORSDOF 2
ENDMDL
