MODEL 1
REMARK VINA RESULT:      -3.7      0.000      0.000
REMARK  2 active torsions:
REMARK  status: ('A' for Active; 'I' for Inactive)
REMARK    1  A    between atoms: C_2  and  C_3 
REMARK    2  A    between atoms: C_3  and  C_4 
ROOT
HETATM    1  C   LIG     1      17.393  37.843  25.568  1.00  0.00     0.021 C 
ENDROOT
BRANCH   1   2
HETATM    2  C   LIG     1      18.453  36.836  26.033  1.00  0.00     0.086 C 
HETATM    3 BR   LIG     1      17.777  35.017  26.066  1.00  0.00    -0.096 Br
ENDBRANCH   1   2
BRANCH   1   4
HETATM    4  C   LIG     1      16.767  37.490  24.212  1.00  0.00     0.086 C 
HETATM    5 BR   LIG     1      17.402  38.638  22.782  1.00  0.00    -0.096 Br
ENDBRANCH   1   4
TORSDOF 2
ENDMDL
MODEL 2
REMARK VINA RESULT:      -3.7      0.143      3.536
REMARK  2 active torsions:
REMARK  status: ('A' for Active; 'I' for Inactive)
REMARK    1  A    between atoms: C_2  and  C_3 
REMARK    2  A    between atoms: C_3  and  C_4 
ROOT
HETATM    1  C   LIG     1      17.382  37.836  25.508  1.00  0.00     0.021 C 
ENDROOT
BRANCH   1   2
HETATM    2  C   LIG     1      16.793  37.446  24.146  1.00  0.00     0.086 C 
HETATM    3 BR   LIG     1      17.137  38.783  22.783  1.00  0.00    -0.096 Br
ENDBRANCH   1   2
BRANCH   1   4
HETATM    4  C   LIG     1      18.432  36.844  26.026  1.00  0.00     0.086 C 
HETATM    5 BR   LIG     1      17.774  35.019  26.058  1.00  0.00    -0.096 Br
ENDBRANCH   1   4
TORSDOF 2
ENDMDL
MODEL 3
REMARK VINA RESULT:      -3.4      1.986      2.144
REMARK  2 active torsions:
REMARK  status: ('A' for Active; 'I' for Inactive)
REMARK    1  A    between atoms: C_2  and  C_3 
REMARK    2  A    between atoms: C_3  and  C_4 
ROOT
HETATM    1  C   LIG     1      17.172  35.054  24.322  1.00  0.00     0.021 C 
ENDROOT
BRANCH   1   2
HETATM    2  C   LIG     1      17.510  34.921  25.812  1.00  0.00     0.086 C 
HETATM    3 BR   LIG     1      18.381  36.506  26.516  1.00  0.00    -0.096 Br
ENDBRANCH   1   2
BRANCH   1   4
HETATM    4  C   LIG     1      17.094  36.508  23.840  1.00  0.00     0.086 C 
HETATM    5 BR   LIG     1      16.888  36.640  21.915  1.00  0.00    -0.096 Br
ENDBRANCH   1   4
TORSDOF 2
ENDMDL
MODEL 4
REMARK VINA RESULT:      -3.3      1.565      3.752
REMARK  2 active torsions:
REMARK  status: ('A' for Active; 'I' for Inactive)
REMARK    1  A    between atoms: C_2  and  C_3 
REMARK    2  A    between atoms: C_3  and  C_4 
ROOT
HETATM    1  C   LIG     1      16.933  36.559  23.237  1.00  0.00     0.021 C 
ENDROOT
BRANCH   1   2
HETATM    2  C   LIG     1      17.130  37.300  21.908  1.00  0.00     0.086 C 
HETATM    3 BR   LIG     1      18.121  38.954  22.124  1.00  0.00    -0.096 Br
ENDBRANCH   1   2
BRANCH   1   4
HETATM    4  C   LIG     1      16.902  37.490  24.456  1.00  0.00     0.086 C 
HETATM    5 BR   LIG     1      18.125  36.922  25.852  1.00  0.00    -0.096 Br
ENDBRANCH   1   4
TORSDOF 2
ENDMDL
MODEL 5
REMARK VINA RESULT:      -3.2      3.177      3.980
REMARK  2 active torsions:
REMARK  status: ('A' for Active; 'I' for Inactive)
REMARK    1  A    between atoms: C_2  and  C_3 
REMARK    2  A    between atoms: C_3  and  C_4 
ROOT
HETATM    1  C   LIG     1      17.830  38.343  21.588  1.00  0.00     0.021 C 
ENDROOT
BRANCH   1   2
HETATM    2  C   LIG     1      16.942  38.860  22.727  1.00  0.00     0.086 C 
HETATM    3 BR   LIG     1      17.147  37.822  24.353  1.00  0.00    -0.096 Br
ENDBRANCH   1   2
BRANCH   1   4
HETATM    4  C   LIG     1      18.743  39.420  20.988  1.00  0.00     0.086 C 
HETATM    5 BR   LIG     1      19.915  38.714  19.612  1.00  0.00    -0.096 Br
ENDBRANCH   1   4
TORSDOF 2
ENDMDL
MODEL 6
REMARK VINA RESULT:      -3.2      3.103      4.726
REMARK  2 active torsions:
REMARK  status: ('A' for Active; 'I' for Inactive)
REMARK    1  A    between atoms: C_2  and  C_3 
REMARK    2  A    between atoms: C_3  and  C_4 
ROOT
HETATM    1  C   LIG     1      18.218  39.126  21.979  1.00  0.00     0.021 C 
ENDROOT
BRANCH   1   2
HETATM    2  C   LIG     1      18.465  38.196  20.784  1.00  0.00     0.086 C 
HETATM    3 BR   LIG     1      19.928  38.806  19.665  1.00  0.00    -0.096 Br
ENDBRANCH   1   2
BRANCH   1   4
HETATM    4  C   LIG     1      16.965  38.762  22.787  1.00  0.00     0.086 C 
HETATM    5 BR   LIG     1      17.396  38.039  24.535  1.00  0.00    -0.096 Br
ENDBRANCH   1   4
TORSDOF 2
ENDMDL
MODEL 7
REMARK VINA RESULT:      -3.0      3.937      4.917
REMARK  2 active torsions:
REMARK  status: ('A' for Active; 'I' for Inactive)
REMARK    1  A    between atoms: C_2  and  C_3 
REMARK    2  A    between atoms: C_3  and  C_4 
ROOT
HETATM    1  C   LIG     1      17.538  36.504  21.033  1.00  0.00     0.021 C 
ENDROOT
BRANCH   1   2
HETATM    2  C   LIG     1      17.485  37.849  21.770  1.00  0.00     0.086 C 
HETATM    3 BR   LIG     1      18.710  39.152  21.017  1.00  0.00    -0.096 Br
ENDBRANCH   1   2
BRANCH   1   4
HETATM    4  C   LIG     1      17.005  35.330  21.865  1.00  0.00     0.086 C 
HETATM    5 BR   LIG     1      15.556  34.393  20.978  1.00  0.00    -0.096 Br
ENDBRANCH   1   4
TORSDOF 2
ENDMDL
MODEL 8
REMARK VINA RESULT:      -3.0      3.548      3.859
REMARK  2 active torsions:
REMARK  status: ('A' for Active; 'I' for Inactive)
REMARK    1  A    between atoms: C_2  and  C_3 
REMARK    2  A    between atoms: C_3  and  C_4 
ROOT
HETATM    1  C   LIG     1      16.888  37.175  22.455  1.00  0.00     0.021 C 
ENDROOT
BRANCH   1   2
HETATM    2  C   LIG     1      17.277  36.404  21.187  1.00  0.00     0.086 C 
HETATM    3 BR   LIG     1      16.125  34.875  20.868  1.00  0.00    -0.096 Br
ENDBRANCH   1   2
BRANCH   1   4
HETATM    4  C   LIG     1      17.101  38.690  22.339  1.00  0.00     0.086 C 
HETATM    5 BR   LIG     1      18.608  39.139  21.201  1.00  0.00    -0.096 Br
ENDBRANCH   1   4
TORSDOF 2
ENDMDL
MODEL 9
REMARK VINA RESULT:      -2.9      2.688      3.518
REMARK  2 active torsions:
REMARK  status: ('A' for Active; 'I' for Inactive)
REMARK    1  A    between atoms: C_2  and  C_3 
REMARK    2  A    between atoms: C_3  and  C_4 
ROOT
HETATM    1  C   LIG     1      16.483  37.289  22.519  1.00  0.00     0.021 C 
ENDROOT
BRANCH   1   2
HETATM    2  C   LIG     1      16.840  35.798  22.589  1.00  0.00     0.086 C 
HETATM    3 BR   LIG     1      16.117  34.795  21.093  1.00  0.00    -0.096 Br
ENDBRANCH   1   2
BRANCH   1   4
HETATM    4  C   LIG     1      17.441  38.184  23.316  1.00  0.00     0.086 C 
HETATM    5 BR   LIG     1      17.390  37.810  25.220  1.00  0.00    -0.096 Br
ENDBRANCH   1   4
TORSDOF 2
ENDMDL
MODEL 10
REMARK VINA RESULT:      -2.9     12.335     12.710
REMARK  2 active torsions:
REMARK  status: ('A' for Active; 'I' for Inactive)
REMARK    1  A    between atoms: C_2  and  C_3 
REMARK    2  A    between atoms: C_3  and  C_4 
ROOT
HETATM    1  C   LIG     1      15.329  29.981  14.225  1.00  0.00     0.021 C 
ENDROOT
BRANCH   1   2
HETATM    2  C   LIG     1      15.653  31.364  13.645  1.00  0.00     0.086 C 
HETATM    3 BR   LIG     1      16.556  32.509  14.925  1.00  0.00    -0.096 Br
ENDBRANCH   1   2
BRANCH   1   4
HETATM    4  C   LIG     1      13.831  29.755  14.466  1.00  0.00     0.086 C 
HETATM    5 BR   LIG     1      13.180  30.711  16.025  1.00  0.00    -0.096 Br
ENDBRANCH   1   4
TORSDOF 2
ENDMDL
MODEL 11
REMARK VINA RESULT:      -2.9      9.587     10.523
REMARK  2 active torsions:
REMARK  status: ('A' for Active; 'I' for Inactive)
REMARK    1  A    between atoms: C_2  and  C_3 
REMARK    2  A    between atoms: C_3  and  C_4 
ROOT
HETATM    1  C   LIG     1      13.785  31.514  17.104  1.00  0.00     0.021 C 
ENDROOT
BRANCH   1   2
HETATM    2  C   LIG     1      14.120  30.892  15.742  1.00  0.00     0.086 C 
HETATM    3 BR   LIG     1      15.670  31.716  14.914  1.00  0.00    -0.096 Br
ENDBRANCH   1   2
BRANCH   1   4
HETATM    4  C   LIG     1      14.874  32.459  17.628  1.00  0.00     0.086 C 
HETATM    5 BR   LIG     1      15.252  32.180  19.511  1.00  0.00    -0.096 Br
ENDBRANCH   1   4
TORSDOF 2
ENDMDL
MODEL 12
REMARK VINA RESULT:      -2.9      9.958     10.615
REMARK  2 active torsions:
REMARK  status: ('A' for Active; 'I' for Inactive)
REMARK    1  A    between atoms: C_2  and  C_3 
REMARK    2  A    between atoms: C_3  and  C_4 
ROOT
HETATM    1  C   LIG     1      13.602  31.219  16.721  1.00  0.00     0.021 C 
ENDROOT
BRANCH   1   2
HETATM    2  C   LIG     1      14.421  32.411  17.234  1.00  0.00     0.086 C 
HETATM    3 BR   LIG     1      15.063  32.141  19.045  1.00  0.00    -0.096 Br
ENDBRANCH   1   2
BRANCH   1   4
HETATM    4  C   LIG     1      14.140  30.626  15.412  1.00  0.00     0.086 C 
HETATM    5 BR   LIG     1      15.685  31.591  14.743  1.00  0.00    -0.096 Br
ENDBRANCH   1   4
TORSDOF 2
ENDMDL
MODEL 13
REMARK VINA RESULT:      -2.8     11.254     12.030
REMARK  2 active torsions:
REMARK  status: ('A' for Active; 'I' for Inactive)
REMARK    1  A    between atoms: C_2  and  C_3 
REMARK    2  A    between atoms: C_3  and  C_4 
ROOT
HETATM    1  C   LIG     1      15.419  30.874  14.222  1.00  0.00     0.021 C 
ENDROOT
BRANCH   1   2
HETATM    2  C   LIG     1      14.209  30.008  14.595  1.00  0.00     0.086 C 
HETATM    3 BR   LIG     1      13.196  30.751  16.074  1.00  0.00    -0.096 Br
ENDBRANCH   1   2
BRANCH   1   4
HETATM    4  C   LIG     1      15.667  32.030  15.200  1.00  0.00     0.086 C 
HETATM    5 BR   LIG     1      17.265  33.041  14.760  1.00  0.00    -0.096 Br
ENDBRANCH   1   4
TORSDOF 2
ENDMDL
MODEL 14
REMARK VINA RESULT:      -2.8     12.407     13.085
REMARK  2 active torsions:
REMARK  status: ('A' for Active; 'I' for Inactive)
REMARK    1  A    between atoms: C_2  and  C_3 
REMARK    2  A    between atoms: C_3  and  C_4 
ROOT
HETATM    1  C   LIG     1      15.425  30.449  14.358  1.00  0.00     0.021 C 
ENDROOT
BRANCH   1   2
HETATM    2  C   LIG     1      14.919  31.476  15.381  1.00  0.00     0.086 C 
HETATM    3 BR   LIG     1      13.313  30.880  16.293  1.00  0.00    -0.096 Br
ENDBRANCH   1   2
BRANCH   1   4
HETATM    4  C   LIG     1      14.439  29.302  14.106  1.00  0.00     0.086 C 
HETATM    5 BR   LIG     1      15.329  27.674  13.536  1.00  0.00    -0.096 Br
ENDBRANCH   1   4
TORSDOF 2
ENDMDL
MODEL 15
REMARK VINA RESULT:      -2.8     11.376     12.121
REMARK  2 active torsions:
REMARK  status: ('A' for Active; 'I' for Inactive)
REMARK    1  A    between atoms: C_2  and  C_3 
REMARK    2  A    between atoms: C_3  and  C_4 
ROOT
HETATM    1  C   LIG     1      13.514  30.500  15.403  1.00  0.00     0.021 C 
ENDROOT
BRANCH   1   2
HETATM    2  C   LIG     1      14.812  30.524  14.585  1.00  0.00     0.086 C 
HETATM    3 BR   LIG     1      15.239  28.790  13.827  1.00  0.00    -0.096 Br
ENDBRANCH   1   2
BRANCH   1   4
HETATM    4  C   LIG     1      13.681  31.042  16.829  1.00  0.00     0.086 C 
HETATM    5 BR   LIG     1      14.705  32.690  16.878  1.00  0.00    -0.096 Br
ENDBRANCH   1   4
TORSDOF 2
ENDMDL
MODEL 16
REMARK VINA RESULT:      -2.7     10.605     11.455
REMARK  2 active torsions:
REMARK  status: ('A' for Active; 'I' for Inactive)
REMARK    1  A    between atoms: C_2  and  C_3 
REMARK    2  A    between atoms: C_3  and  C_4 
ROOT
HETATM    1  C   LIG     1      16.360  32.306  15.546  1.00  0.00     0.021 C 
ENDROOT
BRANCH   1   2
HETATM    2  C   LIG     1      15.988  32.081  14.075  1.00  0.00     0.086 C 
HETATM    3 BR   LIG     1      15.213  30.328  13.769  1.00  0.00    -0.096 Br
ENDBRANCH   1   2
BRANCH   1   4
HETATM    4  C   LIG     1      15.287  33.064  16.338  1.00  0.00     0.086 C 
HETATM    5 BR   LIG     1      14.008  31.870  17.179  1.00  0.00    -0.096 Br
ENDBRANCH   1   4
TORSDOF 2
ENDMDL
MODEL 17
REMARK VINA RESULT:      -2.7     10.369     10.711
REMARK  2 active torsions:
REMARK  status: ('A' for Active; 'I' for Inactive)
REMARK    1  A    between atoms: C_2  and  C_3 
REMARK    2  A    between atoms: C_3  and  C_4 
ROOT
HETATM    1  C   LIG     1      15.098  32.790  16.611  1.00  0.00     0.021 C 
ENDROOT
BRANCH   1   2
HETATM    2  C   LIG     1      14.067  31.900  17.316  1.00  0.00     0.086 C 
HETATM    3 BR   LIG     1      13.128  30.736  16.080  1.00  0.00    -0.096 Br
ENDBRANCH   1   2
BRANCH   1   4
HETATM    4  C   LIG     1      15.718  32.140  15.367  1.00  0.00     0.086 C 
HETATM    5 BR   LIG     1      17.294  33.086  14.745  1.00  0.00    -0.096 Br
ENDBRANCH   1   4
TORSDOF 2
ENDMDL
MODEL 18
REMARK VINA RESULT:      -2.6     11.182     12.069
REMARK  2 active torsions:
REMARK  status: ('A' for Active; 'I' for Inactive)
REMARK    1  A    between atoms: C_2  and  C_3 
REMARK    2  A    between atoms: C_3  and  C_4 
ROOT
HETATM    1  C   LIG     1      14.944  31.542  15.456  1.00  0.00     0.021 C 
ENDROOT
BRANCH   1   2
HETATM    2  C   LIG     1      15.821  32.707  15.933  1.00  0.00     0.086 C 
HETATM    3 BR   LIG     1      17.284  33.077  14.713  1.00  0.00    -0.096 Br
ENDBRANCH   1   2
BRANCH   1   4
HETATM    4  C   LIG     1      15.329  31.015  14.068  1.00  0.00     0.086 C 
HETATM    5 BR   LIG     1      15.154  29.087  13.933  1.00  0.00    -0.096 Br
ENDBRANCH   1   4
TORSDOF 2
ENDMDL
MODEL 19
REMARK VINA RESULT:      -2.5     11.336     11.955
REMARK  2 active torsions:
REMARK  status: ('A' for Active; 'I' for Inactive)
REMARK    1  A    between atoms: C_2  and  C_3 
REMARK    2  A    between atoms: C_3  and  C_4 
ROOT
HETATM    1  C   LIG     1      16.477  32.357  15.325  1.00  0.00     0.021 C 
ENDROOT
BRANCH   1   2
HETATM    2  C   LIG     1      16.476  32.478  13.795  1.00  0.00     0.086 C 
HETATM    3 BR   LIG     1      17.871  33.661  13.147  1.00  0.00    -0.096 Br
ENDBRANCH   1   2
BRANCH   1   4
HETATM    4  C   LIG     1      15.100  32.025  15.912  1.00  0.00     0.086 C 
HETATM    5 BR   LIG     1      14.278  30.491  15.052  1.00  0.00    -0.096 Br
ENDBRANCH   1   4
TORSDOF 2
ENDMDL
MODEL 20
REMARK VINA RESULT:      -2.4      7.527      8.542
REMARK  2 active torsions:
REMARK  status: ('A' for Active; 'I' for Inactive)
REMARK    1  A    between atoms: C_2  and  C_3 
REMARK    2  A    between atoms: C_3  and  C_4 
ROOT
HETATM    1  C   LIG     1      14.925  32.202  18.641  1.00  0.00     0.021 C 
ENDROOT
BRANCH   1   2
HETATM    2  C   LIG     1      15.028  33.285  17.559  1.00  0.00     0.086 C 
HETATM    3 BR   LIG     1      15.726  32.592  15.886  1.00  0.00    -0.096 Br
ENDBRANCH   1   2
BRANCH   1   4
HETATM    4  C   LIG     1      15.287  32.704  20.045  1.00  0.00     0.086 C 
HETATM    5 BR   LIG     1      15.704  34.599  20.067  1.00  0.00    -0.096 Br
ENDBRANCH   1   4
TORSDOF 2
ENDMDL
