MODEL 1
REMARK VINA RESULT:      -4.2      0.000      0.000
REMARK  2 active torsions:
REMARK  status: ('A' for Active; 'I' for Inactive)
REMARK    1  A    between atoms: C_2  and  C_3 
REMARK    2  A    between atoms: C_3  and  C_4 
ROOT
HETATM    1  C   LIG     1      18.616  36.964  26.098  1.00  0.00     0.026 C 
ENDROOT
BRANCH   1   2
HETATM    2  C   LIG     1      18.291  35.550  26.500  1.00  0.00    -0.037 C 
HETATM    3  C   LIG     1      17.394  34.817  25.833  1.00  0.00     0.007 C 
ENDBRANCH   1   2
BRANCH   1   4
HETATM    4  C   LIG     1      17.405  37.696  25.503  1.00  0.00    -0.001 C 
HETATM    5  C   LIG     1      17.670  38.193  24.082  1.00  0.00     0.005 C 
ENDBRANCH   1   4
TORSDOF 2
ENDMDL
MODEL 2
REMARK VINA RESULT:      -4.1      0.238      2.843
REMARK  2 active torsions:
REMARK  status: ('A' for Active; 'I' for Inactive)
REMARK    1  A    between atoms: C_2  and  C_3 
REMARK    2  A    between atoms: C_3  and  C_4 
ROOT
HETATM    1  C   LIG     1      18.610  36.907  26.155  1.00  0.00     0.026 C 
ENDROOT
BRANCH   1   2
HETATM    2  C   LIG     1      17.444  37.612  25.514  1.00  0.00    -0.037 C 
HETATM    3  C   LIG     1      17.573  38.287  24.368  1.00  0.00     0.007 C 
ENDBRANCH   1   2
BRANCH   1   4
HETATM    4  C   LIG     1      18.304  35.435  26.465  1.00  0.00    -0.001 C 
HETATM    5  C   LIG     1      17.351  34.813  25.445  1.00  0.00     0.005 C 
ENDBRANCH   1   4
TORSDOF 2
ENDMDL
MODEL 3
REMARK VINA RESULT:      -4.0      1.705      2.377
REMARK  2 active torsions:
REMARK  status: ('A' for Active; 'I' for Inactive)
REMARK    1  A    between atoms: C_2  and  C_3 
REMARK    2  A    between atoms: C_3  and  C_4 
ROOT
HETATM    1  C   LIG     1      17.419  34.851  25.231  1.00  0.00     0.026 C 
ENDROOT
BRANCH   1   2
HETATM    2  C   LIG     1      18.050  35.469  26.450  1.00  0.00    -0.037 C 
HETATM    3  C   LIG     1      18.555  36.706  26.431  1.00  0.00     0.007 C 
ENDBRANCH   1   2
BRANCH   1   4
HETATM    4  C   LIG     1      17.142  35.883  24.129  1.00  0.00    -0.001 C 
HETATM    5  C   LIG     1      16.975  35.234  22.755  1.00  0.00     0.005 C 
ENDBRANCH   1   4
TORSDOF 2
ENDMDL
MODEL 4
REMARK VINA RESULT:      -3.7      4.321      5.703
REMARK  2 active torsions:
REMARK  status: ('A' for Active; 'I' for Inactive)
REMARK    1  A    between atoms: C_2  and  C_3 
REMARK    2  A    between atoms: C_3  and  C_4 
ROOT
HETATM    1  C   LIG     1      18.948  39.262  20.670  1.00  0.00     0.026 C 
ENDROOT
BRANCH   1   2
HETATM    2  C   LIG     1      17.998  38.415  21.475  1.00  0.00    -0.037 C 
HETATM    3  C   LIG     1      17.182  38.948  22.389  1.00  0.00     0.007 C 
ENDBRANCH   1   2
BRANCH   1   4
HETATM    4  C   LIG     1      19.697  38.449  19.605  1.00  0.00    -0.001 C 
HETATM    5  C   LIG     1      19.176  37.016  19.497  1.00  0.00     0.005 C 
ENDBRANCH   1   4
TORSDOF 2
ENDMDL
MODEL 5
REMARK VINA RESULT:      -3.6      1.775      2.510
REMARK  2 active torsions:
REMARK  status: ('A' for Active; 'I' for Inactive)
REMARK    1  A    between atoms: C_2  and  C_3 
REMARK    2  A    between atoms: C_3  and  C_4 
ROOT
HETATM    1  C   LIG     1      17.038  37.274  24.163  1.00  0.00     0.026 C 
ENDROOT
BRANCH   1   2
HETATM    2  C   LIG     1      17.111  35.784  23.960  1.00  0.00    -0.037 C 
HETATM    3  C   LIG     1      16.929  35.227  22.759  1.00  0.00     0.007 C 
ENDBRANCH   1   2
BRANCH   1   4
HETATM    4  C   LIG     1      17.432  37.690  25.587  1.00  0.00    -0.001 C 
HETATM    5  C   LIG     1      18.389  36.691  26.239  1.00  0.00     0.005 C 
ENDBRANCH   1   4
TORSDOF 2
ENDMDL
MODEL 6
REMARK VINA RESULT:      -3.6      4.824      6.125
REMARK  2 active torsions:
REMARK  status: ('A' for Active; 'I' for Inactive)
REMARK    1  A    between atoms: C_2  and  C_3 
REMARK    2  A    between atoms: C_3  and  C_4 
ROOT
HETATM    1  C   LIG     1      18.329  38.298  20.989  1.00  0.00     0.026 C 
ENDROOT
BRANCH   1   2
HETATM    2  C   LIG     1      19.321  39.234  20.352  1.00  0.00    -0.037 C 
HETATM    3  C   LIG     1      20.267  38.795  19.516  1.00  0.00     0.007 C 
ENDBRANCH   1   2
BRANCH   1   4
HETATM    4  C   LIG     1      18.300  36.923  20.305  1.00  0.00    -0.001 C 
HETATM    5  C   LIG     1      17.307  35.968  20.967  1.00  0.00     0.005 C 
ENDBRANCH   1   4
TORSDOF 2
ENDMDL
MODEL 7
REMARK VINA RESULT:      -3.6      4.838      5.492
REMARK  2 active torsions:
REMARK  status: ('A' for Active; 'I' for Inactive)
REMARK    1  A    between atoms: C_2  and  C_3 
REMARK    2  A    between atoms: C_3  and  C_4 
ROOT
HETATM    1  C   LIG     1      18.191  38.370  21.127  1.00  0.00     0.026 C 
ENDROOT
BRANCH   1   2
HETATM    2  C   LIG     1      18.227  37.019  20.465  1.00  0.00    -0.037 C 
HETATM    3  C   LIG     1      17.355  36.056  20.781  1.00  0.00     0.007 C 
ENDBRANCH   1   2
BRANCH   1   4
HETATM    4  C   LIG     1      19.135  39.377  20.455  1.00  0.00    -0.001 C 
HETATM    5  C   LIG     1      20.161  38.694  19.551  1.00  0.00     0.005 C 
ENDBRANCH   1   4
TORSDOF 2
ENDMDL
MODEL 8
REMARK VINA RESULT:      -3.5      1.146      3.503
REMARK  2 active torsions:
REMARK  status: ('A' for Active; 'I' for Inactive)
REMARK    1  A    between atoms: C_2  and  C_3 
REMARK    2  A    between atoms: C_3  and  C_4 
ROOT
HETATM    1  C   LIG     1      17.527  38.153  24.753  1.00  0.00     0.026 C 
ENDROOT
BRANCH   1   2
HETATM    2  C   LIG     1      17.076  38.220  23.318  1.00  0.00    -0.037 C 
HETATM    3  C   LIG     1      17.818  38.806  22.374  1.00  0.00     0.007 C 
ENDBRANCH   1   2
BRANCH   1   4
HETATM    4  C   LIG     1      17.515  36.720  25.303  1.00  0.00    -0.001 C 
HETATM    5  C   LIG     1      18.444  36.553  26.506  1.00  0.00     0.005 C 
ENDBRANCH   1   4
TORSDOF 2
ENDMDL
MODEL 9
REMARK VINA RESULT:      -3.5      1.411      2.736
REMARK  2 active torsions:
REMARK  status: ('A' for Active; 'I' for Inactive)
REMARK    1  A    between atoms: C_2  and  C_3 
REMARK    2  A    between atoms: C_3  and  C_4 
ROOT
HETATM    1  C   LIG     1      16.973  37.650  23.724  1.00  0.00     0.026 C 
ENDROOT
BRANCH   1   2
HETATM    2  C   LIG     1      17.404  37.988  25.126  1.00  0.00    -0.037 C 
HETATM    3  C   LIG     1      18.021  37.096  25.908  1.00  0.00     0.007 C 
ENDBRANCH   1   2
BRANCH   1   4
HETATM    4  C   LIG     1      16.950  38.880  22.806  1.00  0.00    -0.001 C 
HETATM    5  C   LIG     1      18.194  38.967  21.923  1.00  0.00     0.005 C 
ENDBRANCH   1   4
TORSDOF 2
ENDMDL
MODEL 10
REMARK VINA RESULT:      -3.5      4.020      5.345
REMARK  2 active torsions:
REMARK  status: ('A' for Active; 'I' for Inactive)
REMARK    1  A    between atoms: C_2  and  C_3 
REMARK    2  A    between atoms: C_3  and  C_4 
ROOT
HETATM    1  C   LIG     1      17.500  38.117  21.952  1.00  0.00     0.026 C 
ENDROOT
BRANCH   1   2
HETATM    2  C   LIG     1      18.473  39.222  21.639  1.00  0.00    -0.037 C 
HETATM    3  C   LIG     1      19.067  39.321  20.446  1.00  0.00     0.007 C 
ENDBRANCH   1   2
BRANCH   1   4
HETATM    4  C   LIG     1      17.658  36.915  21.011  1.00  0.00    -0.001 C 
HETATM    5  C   LIG     1      17.112  35.625  21.622  1.00  0.00     0.005 C 
ENDBRANCH   1   4
TORSDOF 2
ENDMDL
MODEL 11
REMARK VINA RESULT:      -3.4     11.849     12.722
REMARK  2 active torsions:
REMARK  status: ('A' for Active; 'I' for Inactive)
REMARK    1  A    between atoms: C_2  and  C_3 
REMARK    2  A    between atoms: C_3  and  C_4 
ROOT
HETATM    1  C   LIG     1      13.284  30.219  15.160  1.00  0.00     0.026 C 
ENDROOT
BRANCH   1   2
HETATM    2  C   LIG     1      12.944  31.008  16.397  1.00  0.00    -0.037 C 
HETATM    3  C   LIG     1      13.881  31.645  17.105  1.00  0.00     0.007 C 
ENDBRANCH   1   2
BRANCH   1   4
HETATM    4  C   LIG     1      14.735  30.435  14.709  1.00  0.00    -0.001 C 
HETATM    5  C   LIG     1      15.267  29.262  13.886  1.00  0.00     0.005 C 
ENDBRANCH   1   4
TORSDOF 2
ENDMDL
MODEL 12
REMARK VINA RESULT:      -3.4      3.589      4.156
REMARK  2 active torsions:
REMARK  status: ('A' for Active; 'I' for Inactive)
REMARK    1  A    between atoms: C_2  and  C_3 
REMARK    2  A    between atoms: C_3  and  C_4 
ROOT
HETATM    1  C   LIG     1      17.578  37.291  21.272  1.00  0.00     0.026 C 
ENDROOT
BRANCH   1   2
HETATM    2  C   LIG     1      16.819  36.548  22.340  1.00  0.00    -0.037 C 
HETATM    3  C   LIG     1      16.943  35.227  22.503  1.00  0.00     0.007 C 
ENDBRANCH   1   2
BRANCH   1   4
HETATM    4  C   LIG     1      18.045  38.675  21.742  1.00  0.00    -0.001 C 
HETATM    5  C   LIG     1      18.879  39.396  20.683  1.00  0.00     0.005 C 
ENDBRANCH   1   4
TORSDOF 2
ENDMDL
MODEL 13
REMARK VINA RESULT:      -3.4     13.353     13.977
REMARK  2 active torsions:
REMARK  status: ('A' for Active; 'I' for Inactive)
REMARK    1  A    between atoms: C_2  and  C_3 
REMARK    2  A    between atoms: C_3  and  C_4 
ROOT
HETATM    1  C   LIG     1      21.907  35.007  12.599  1.00  0.00     0.026 C 
ENDROOT
BRANCH   1   2
HETATM    2  C   LIG     1      23.097  35.151  13.510  1.00  0.00    -0.037 C 
HETATM    3  C   LIG     1      23.926  36.196  13.426  1.00  0.00     0.007 C 
ENDBRANCH   1   2
BRANCH   1   4
HETATM    4  C   LIG     1      21.200  33.655  12.770  1.00  0.00    -0.001 C 
HETATM    5  C   LIG     1      20.810  33.031  11.429  1.00  0.00     0.005 C 
ENDBRANCH   1   4
TORSDOF 2
ENDMDL
MODEL 14
REMARK VINA RESULT:      -3.4     11.706     12.522
REMARK  2 active torsions:
REMARK  status: ('A' for Active; 'I' for Inactive)
REMARK    1  A    between atoms: C_2  and  C_3 
REMARK    2  A    between atoms: C_3  and  C_4 
ROOT
HETATM    1  C   LIG     1      13.251  30.283  15.297  1.00  0.00     0.026 C 
ENDROOT
BRANCH   1   2
HETATM    2  C   LIG     1      14.657  30.519  14.811  1.00  0.00    -0.037 C 
HETATM    3  C   LIG     1      15.232  29.723  13.905  1.00  0.00     0.007 C 
ENDBRANCH   1   2
BRANCH   1   4
HETATM    4  C   LIG     1      12.880  31.191  16.477  1.00  0.00    -0.001 C 
HETATM    5  C   LIG     1      14.112  31.768  17.174  1.00  0.00     0.005 C 
ENDBRANCH   1   4
TORSDOF 2
ENDMDL
MODEL 15
REMARK VINA RESULT:      -3.3      5.644      7.769
REMARK  2 active torsions:
REMARK  status: ('A' for Active; 'I' for Inactive)
REMARK    1  A    between atoms: C_2  and  C_3 
REMARK    2  A    between atoms: C_3  and  C_4 
ROOT
HETATM    1  C   LIG     1      19.143  38.690  18.825  1.00  0.00     0.026 C 
ENDROOT
BRANCH   1   2
HETATM    2  C   LIG     1      18.573  39.702  17.867  1.00  0.00    -0.037 C 
HETATM    3  C   LIG     1      18.756  39.603  16.547  1.00  0.00     0.007 C 
ENDBRANCH   1   2
BRANCH   1   4
HETATM    4  C   LIG     1      19.328  39.261  20.238  1.00  0.00    -0.001 C 
HETATM    5  C   LIG     1      18.257  38.764  21.209  1.00  0.00     0.005 C 
ENDBRANCH   1   4
TORSDOF 2
ENDMDL
MODEL 16
REMARK VINA RESULT:      -3.3     11.510     11.889
REMARK  2 active torsions:
REMARK  status: ('A' for Active; 'I' for Inactive)
REMARK    1  A    between atoms: C_2  and  C_3 
REMARK    2  A    between atoms: C_3  and  C_4 
ROOT
HETATM    1  C   LIG     1      16.525  45.613  33.119  1.00  0.00     0.026 C 
ENDROOT
BRANCH   1   2
HETATM    2  C   LIG     1      15.573  44.817  33.972  1.00  0.00    -0.037 C 
HETATM    3  C   LIG     1      16.004  43.881  34.823  1.00  0.00     0.007 C 
ENDBRANCH   1   2
BRANCH   1   4
HETATM    4  C   LIG     1      17.902  45.779  33.779  1.00  0.00    -0.001 C 
HETATM    5  C   LIG     1      19.043  45.365  32.850  1.00  0.00     0.005 C 
ENDBRANCH   1   4
TORSDOF 2
ENDMDL
MODEL 17
REMARK VINA RESULT:      -3.3      9.292     10.105
REMARK  2 active torsions:
REMARK  status: ('A' for Active; 'I' for Inactive)
REMARK    1  A    between atoms: C_2  and  C_3 
REMARK    2  A    between atoms: C_3  and  C_4 
ROOT
HETATM    1  C   LIG     1      14.561  32.207  17.504  1.00  0.00     0.026 C 
ENDROOT
BRANCH   1   2
HETATM    2  C   LIG     1      14.692  31.774  18.940  1.00  0.00    -0.037 C 
HETATM    3  C   LIG     1      15.464  32.437  19.807  1.00  0.00     0.007 C 
ENDBRANCH   1   2
BRANCH   1   4
HETATM    4  C   LIG     1      13.183  31.870  16.915  1.00  0.00    -0.001 C 
HETATM    5  C   LIG     1      13.236  30.671  15.969  1.00  0.00     0.005 C 
ENDBRANCH   1   4
TORSDOF 2
ENDMDL
MODEL 18
REMARK VINA RESULT:      -3.2      9.840     10.675
REMARK  2 active torsions:
REMARK  status: ('A' for Active; 'I' for Inactive)
REMARK    1  A    between atoms: C_2  and  C_3 
REMARK    2  A    between atoms: C_3  and  C_4 
ROOT
HETATM    1  C   LIG     1      13.865  31.697  17.420  1.00  0.00     0.026 C 
ENDROOT
BRANCH   1   2
HETATM    2  C   LIG     1      14.108  31.116  16.052  1.00  0.00    -0.037 C 
HETATM    3  C   LIG     1      13.179  30.395  15.418  1.00  0.00     0.007 C 
ENDBRANCH   1   2
BRANCH   1   4
HETATM    4  C   LIG     1      15.057  32.520  17.927  1.00  0.00    -0.001 C 
HETATM    5  C   LIG     1      15.353  32.264  19.404  1.00  0.00     0.005 C 
ENDBRANCH   1   4
TORSDOF 2
ENDMDL
MODEL 19
REMARK VINA RESULT:      -3.2      2.154      3.560
REMARK  2 active torsions:
REMARK  status: ('A' for Active; 'I' for Inactive)
REMARK    1  A    between atoms: C_2  and  C_3 
REMARK    2  A    between atoms: C_3  and  C_4 
ROOT
HETATM    1  C   LIG     1      17.193  38.102  22.541  1.00  0.00     0.026 C 
ENDROOT
BRANCH   1   2
HETATM    2  C   LIG     1      17.824  38.182  23.906  1.00  0.00    -0.037 C 
HETATM    3  C   LIG     1      17.153  37.849  25.012  1.00  0.00     0.007 C 
ENDBRANCH   1   2
BRANCH   1   4
HETATM    4  C   LIG     1      16.325  36.847  22.371  1.00  0.00    -0.001 C 
HETATM    5  C   LIG     1      17.115  35.669  21.799  1.00  0.00     0.005 C 
ENDBRANCH   1   4
TORSDOF 2
ENDMDL
MODEL 20
REMARK VINA RESULT:      -3.1      3.035      4.504
REMARK  2 active torsions:
REMARK  status: ('A' for Active; 'I' for Inactive)
REMARK    1  A    between atoms: C_2  and  C_3 
REMARK    2  A    between atoms: C_3  and  C_4 
ROOT
HETATM    1  C   LIG     1      16.570  36.502  21.948  1.00  0.00     0.026 C 
ENDROOT
BRANCH   1   2
HETATM    2  C   LIG     1      17.384  35.954  20.805  1.00  0.00    -0.037 C 
HETATM    3  C   LIG     1      18.371  36.659  20.243  1.00  0.00     0.007 C 
ENDBRANCH   1   2
BRANCH   1   4
HETATM    4  C   LIG     1      16.962  37.942  22.307  1.00  0.00    -0.001 C 
HETATM    5  C   LIG     1      17.194  38.122  23.807  1.00  0.00     0.005 C 
ENDBRANCH   1   4
TORSDOF 2
ENDMDL
