MODEL 1
REMARK VINA RESULT:      -4.0      0.000      0.000
REMARK  2 active torsions:
REMARK  status: ('A' for Active; 'I' for Inactive)
REMARK    1  A    between atoms: C_2  and  C_3 
REMARK    2  A    between atoms: C_3  and  C_4 
ROOT
HETATM    1  C   LIG     1      18.575  37.165  25.780  1.00  0.00     0.010 C 
ENDROOT
BRANCH   1   2
HETATM    2  C   LIG     1      18.291  36.000  26.737  1.00  0.00    -0.004 C 
HETATM    3  C   LIG     1      17.568  34.864  26.021  1.00  0.00     0.005 C 
ENDBRANCH   1   2
BRANCH   1   4
HETATM    4  C   LIG     1      17.300  37.929  25.412  1.00  0.00     0.085 C 
HETATM    5 BR   LIG     1      16.922  37.810  23.511  1.00  0.00    -0.097 Br
ENDBRANCH   1   4
TORSDOF 2
ENDMDL
MODEL 2
REMARK VINA RESULT:      -3.9      1.277      1.889
REMARK  2 active torsions:
REMARK  status: ('A' for Active; 'I' for Inactive)
REMARK    1  A    between atoms: C_2  and  C_3 
REMARK    2  A    between atoms: C_3  and  C_4 
ROOT
HETATM    1  C   LIG     1      17.367  34.979  24.914  1.00  0.00     0.010 C 
ENDROOT
BRANCH   1   2
HETATM    2  C   LIG     1      18.111  34.909  26.254  1.00  0.00    -0.004 C 
HETATM    3  C   LIG     1      18.465  36.305  26.760  1.00  0.00     0.005 C 
ENDBRANCH   1   2
BRANCH   1   4
HETATM    4  C   LIG     1      17.188  36.420  24.431  1.00  0.00     0.085 C 
HETATM    5 BR   LIG     1      16.753  36.489  22.540  1.00  0.00    -0.097 Br
ENDBRANCH   1   4
TORSDOF 2
ENDMDL
MODEL 3
REMARK VINA RESULT:      -3.7      2.146      3.228
REMARK  2 active torsions:
REMARK  status: ('A' for Active; 'I' for Inactive)
REMARK    1  A    between atoms: C_2  and  C_3 
REMARK    2  A    between atoms: C_3  and  C_4 
ROOT
HETATM    1  C   LIG     1      17.400  37.813  25.531  1.00  0.00     0.010 C 
ENDROOT
BRANCH   1   2
HETATM    2  C   LIG     1      16.919  37.408  24.132  1.00  0.00    -0.004 C 
HETATM    3  C   LIG     1      17.295  38.462  23.095  1.00  0.00     0.005 C 
ENDBRANCH   1   2
BRANCH   1   4
HETATM    4  C   LIG     1      18.430  36.829  26.091  1.00  0.00     0.085 C 
HETATM    5 BR   LIG     1      17.766  35.005  26.056  1.00  0.00    -0.097 Br
ENDBRANCH   1   4
TORSDOF 2
ENDMDL
MODEL 4
REMARK VINA RESULT:      -3.5      5.061      5.685
REMARK  2 active torsions:
REMARK  status: ('A' for Active; 'I' for Inactive)
REMARK    1  A    between atoms: C_2  and  C_3 
REMARK    2  A    between atoms: C_3  and  C_4 
ROOT
HETATM    1  C   LIG     1      18.842  39.370  20.327  1.00  0.00     0.010 C 
ENDROOT
BRANCH   1   2
HETATM    2  C   LIG     1      19.780  38.398  19.600  1.00  0.00    -0.004 C 
HETATM    3  C   LIG     1      19.163  37.005  19.508  1.00  0.00     0.005 C 
ENDBRANCH   1   2
BRANCH   1   4
HETATM    4  C   LIG     1      18.814  39.121  21.837  1.00  0.00     0.085 C 
HETATM    5 BR   LIG     1      17.015  38.744  22.464  1.00  0.00    -0.097 Br
ENDBRANCH   1   4
TORSDOF 2
ENDMDL
MODEL 5
REMARK VINA RESULT:      -3.5      2.688      3.956
REMARK  2 active torsions:
REMARK  status: ('A' for Active; 'I' for Inactive)
REMARK    1  A    between atoms: C_2  and  C_3 
REMARK    2  A    between atoms: C_3  and  C_4 
ROOT
HETATM    1  C   LIG     1      17.178  37.676  23.668  1.00  0.00     0.010 C 
ENDROOT
BRANCH   1   2
HETATM    2  C   LIG     1      17.018  38.936  22.807  1.00  0.00    -0.004 C 
HETATM    3  C   LIG     1      18.165  39.069  21.809  1.00  0.00     0.005 C 
ENDBRANCH   1   2
BRANCH   1   4
HETATM    4  C   LIG     1      17.244  38.005  25.161  1.00  0.00     0.085 C 
HETATM    5 BR   LIG     1      18.309  36.703  26.131  1.00  0.00    -0.097 Br
ENDBRANCH   1   4
TORSDOF 2
ENDMDL
MODEL 6
REMARK VINA RESULT:      -3.5      2.908      3.489
REMARK  2 active torsions:
REMARK  status: ('A' for Active; 'I' for Inactive)
REMARK    1  A    between atoms: C_2  and  C_3 
REMARK    2  A    between atoms: C_3  and  C_4 
ROOT
HETATM    1  C   LIG     1      17.173  35.086  24.233  1.00  0.00     0.010 C 
ENDROOT
BRANCH   1   2
HETATM    2  C   LIG     1      16.949  35.209  22.720  1.00  0.00    -0.004 C 
HETATM    3  C   LIG     1      16.896  36.672  22.290  1.00  0.00     0.005 C 
ENDBRANCH   1   2
BRANCH   1   4
HETATM    4  C   LIG     1      17.338  36.452  24.903  1.00  0.00     0.085 C 
HETATM    5 BR   LIG     1      18.334  36.317  26.564  1.00  0.00    -0.097 Br
ENDBRANCH   1   4
TORSDOF 2
ENDMDL
MODEL 7
REMARK VINA RESULT:      -3.4      5.068      5.844
REMARK  2 active torsions:
REMARK  status: ('A' for Active; 'I' for Inactive)
REMARK    1  A    between atoms: C_2  and  C_3 
REMARK    2  A    between atoms: C_3  and  C_4 
ROOT
HETATM    1  C   LIG     1      18.557  36.825  19.903  1.00  0.00     0.010 C 
ENDROOT
BRANCH   1   2
HETATM    2  C   LIG     1      19.441  38.045  19.615  1.00  0.00    -0.004 C 
HETATM    3  C   LIG     1      19.066  39.221  20.513  1.00  0.00     0.005 C 
ENDBRANCH   1   2
BRANCH   1   4
HETATM    4  C   LIG     1      17.630  37.057  21.099  1.00  0.00     0.085 C 
HETATM    5 BR   LIG     1      16.924  35.385  21.789  1.00  0.00    -0.097 Br
ENDBRANCH   1   4
TORSDOF 2
ENDMDL
MODEL 8
REMARK VINA RESULT:      -3.3      4.423      4.964
REMARK  2 active torsions:
REMARK  status: ('A' for Active; 'I' for Inactive)
REMARK    1  A    between atoms: C_2  and  C_3 
REMARK    2  A    between atoms: C_3  and  C_4 
ROOT
HETATM    1  C   LIG     1      17.951  38.350  21.406  1.00  0.00     0.010 C 
ENDROOT
BRANCH   1   2
HETATM    2  C   LIG     1      17.120  38.866  22.588  1.00  0.00    -0.004 C 
HETATM    3  C   LIG     1      15.908  37.974  22.839  1.00  0.00     0.005 C 
ENDBRANCH   1   2
BRANCH   1   4
HETATM    4  C   LIG     1      18.780  39.462  20.759  1.00  0.00     0.085 C 
HETATM    5 BR   LIG     1      20.126  38.741  19.559  1.00  0.00    -0.097 Br
ENDBRANCH   1   4
TORSDOF 2
ENDMDL
MODEL 9
REMARK VINA RESULT:      -3.3      4.984      5.253
REMARK  2 active torsions:
REMARK  status: ('A' for Active; 'I' for Inactive)
REMARK    1  A    between atoms: C_2  and  C_3 
REMARK    2  A    between atoms: C_3  and  C_4 
ROOT
HETATM    1  C   LIG     1      17.907  37.059  20.830  1.00  0.00     0.010 C 
ENDROOT
BRANCH   1   2
HETATM    2  C   LIG     1      17.014  35.811  20.850  1.00  0.00    -0.004 C 
HETATM    3  C   LIG     1      16.946  35.206  22.248  1.00  0.00     0.005 C 
ENDBRANCH   1   2
BRANCH   1   4
HETATM    4  C   LIG     1      18.841  37.077  19.618  1.00  0.00     0.085 C 
HETATM    5 BR   LIG     1      19.920  38.691  19.573  1.00  0.00    -0.097 Br
ENDBRANCH   1   4
TORSDOF 2
ENDMDL
MODEL 10
REMARK VINA RESULT:      -3.2      5.460      5.867
REMARK  2 active torsions:
REMARK  status: ('A' for Active; 'I' for Inactive)
REMARK    1  A    between atoms: C_2  and  C_3 
REMARK    2  A    between atoms: C_3  and  C_4 
ROOT
HETATM    1  C   LIG     1      16.113  35.122  20.210  1.00  0.00     0.010 C 
ENDROOT
BRANCH   1   2
HETATM    2  C   LIG     1      17.060  35.811  21.201  1.00  0.00    -0.004 C 
HETATM    3  C   LIG     1      16.933  35.205  22.596  1.00  0.00     0.005 C 
ENDBRANCH   1   2
BRANCH   1   4
HETATM    4  C   LIG     1      15.340  33.971  20.859  1.00  0.00     0.085 C 
HETATM    5 BR   LIG     1      15.339  32.389  19.734  1.00  0.00    -0.097 Br
ENDBRANCH   1   4
TORSDOF 2
ENDMDL
MODEL 11
REMARK VINA RESULT:      -3.1     10.140     10.775
REMARK  2 active torsions:
REMARK  status: ('A' for Active; 'I' for Inactive)
REMARK    1  A    between atoms: C_2  and  C_3 
REMARK    2  A    between atoms: C_3  and  C_4 
ROOT
HETATM    1  C   LIG     1      13.538  32.202  17.006  1.00  0.00     0.010 C 
ENDROOT
BRANCH   1   2
HETATM    2  C   LIG     1      13.428  30.762  16.488  1.00  0.00    -0.004 C 
HETATM    3  C   LIG     1      14.253  30.569  15.218  1.00  0.00     0.005 C 
ENDBRANCH   1   2
BRANCH   1   4
HETATM    4  C   LIG     1      14.912  32.489  17.616  1.00  0.00     0.085 C 
HETATM    5 BR   LIG     1      15.016  31.883  19.457  1.00  0.00    -0.097 Br
ENDBRANCH   1   4
TORSDOF 2
ENDMDL
MODEL 12
REMARK VINA RESULT:      -3.1     11.593     12.266
REMARK  2 active torsions:
REMARK  status: ('A' for Active; 'I' for Inactive)
REMARK    1  A    between atoms: C_2  and  C_3 
REMARK    2  A    between atoms: C_3  and  C_4 
ROOT
HETATM    1  C   LIG     1      13.220  30.488  15.648  1.00  0.00     0.010 C 
ENDROOT
BRANCH   1   2
HETATM    2  C   LIG     1      12.895  31.519  16.737  1.00  0.00    -0.004 C 
HETATM    3  C   LIG     1      14.120  31.814  17.598  1.00  0.00     0.005 C 
ENDBRANCH   1   2
BRANCH   1   4
HETATM    4  C   LIG     1      14.581  30.748  14.999  1.00  0.00     0.085 C 
HETATM    5 BR   LIG     1      15.195  29.209  13.988  1.00  0.00    -0.097 Br
ENDBRANCH   1   4
TORSDOF 2
ENDMDL
MODEL 13
REMARK VINA RESULT:      -3.1      3.685      4.675
REMARK  2 active torsions:
REMARK  status: ('A' for Active; 'I' for Inactive)
REMARK    1  A    between atoms: C_2  and  C_3 
REMARK    2  A    between atoms: C_3  and  C_4 
ROOT
HETATM    1  C   LIG     1      17.049  37.265  22.746  1.00  0.00     0.010 C 
ENDROOT
BRANCH   1   2
HETATM    2  C   LIG     1      17.152  38.751  22.381  1.00  0.00    -0.004 C 
HETATM    3  C   LIG     1      18.267  38.993  21.369  1.00  0.00     0.005 C 
ENDBRANCH   1   2
BRANCH   1   4
HETATM    4  C   LIG     1      17.028  36.369  21.505  1.00  0.00     0.085 C 
HETATM    5 BR   LIG     1      15.277  35.579  21.225  1.00  0.00    -0.097 Br
ENDBRANCH   1   4
TORSDOF 2
ENDMDL
MODEL 14
REMARK VINA RESULT:      -3.0     11.331     11.996
REMARK  2 active torsions:
REMARK  status: ('A' for Active; 'I' for Inactive)
REMARK    1  A    between atoms: C_2  and  C_3 
REMARK    2  A    between atoms: C_3  and  C_4 
ROOT
HETATM    1  C   LIG     1      13.535  30.700  15.860  1.00  0.00     0.010 C 
ENDROOT
BRANCH   1   2
HETATM    2  C   LIG     1      14.722  30.747  14.889  1.00  0.00    -0.004 C 
HETATM    3  C   LIG     1      14.857  29.434  14.122  1.00  0.00     0.005 C 
ENDBRANCH   1   2
BRANCH   1   4
HETATM    4  C   LIG     1      13.764  31.583  17.089  1.00  0.00     0.085 C 
HETATM    5 BR   LIG     1      15.052  32.990  16.726  1.00  0.00    -0.097 Br
ENDBRANCH   1   4
TORSDOF 2
ENDMDL
MODEL 15
REMARK VINA RESULT:      -3.0      2.656      3.610
REMARK  2 active torsions:
REMARK  status: ('A' for Active; 'I' for Inactive)
REMARK    1  A    between atoms: C_2  and  C_3 
REMARK    2  A    between atoms: C_3  and  C_4 
ROOT
HETATM    1  C   LIG     1      16.046  37.932  22.869  1.00  0.00     0.010 C 
ENDROOT
BRANCH   1   2
HETATM    2  C   LIG     1      17.419  38.088  23.537  1.00  0.00    -0.004 C 
HETATM    3  C   LIG     1      17.305  37.993  25.056  1.00  0.00     0.005 C 
ENDBRANCH   1   2
BRANCH   1   4
HETATM    4  C   LIG     1      15.918  36.601  22.124  1.00  0.00     0.085 C 
HETATM    5 BR   LIG     1      17.449  36.278  20.974  1.00  0.00    -0.097 Br
ENDBRANCH   1   4
TORSDOF 2
ENDMDL
MODEL 16
REMARK VINA RESULT:      -3.0     11.703     12.295
REMARK  2 active torsions:
REMARK  status: ('A' for Active; 'I' for Inactive)
REMARK    1  A    between atoms: C_2  and  C_3 
REMARK    2  A    between atoms: C_3  and  C_4 
ROOT
HETATM    1  C   LIG     1      15.389  30.863  14.313  1.00  0.00     0.010 C 
ENDROOT
BRANCH   1   2
HETATM    2  C   LIG     1      14.130  30.071  14.690  1.00  0.00    -0.004 C 
HETATM    3  C   LIG     1      13.424  30.698  15.888  1.00  0.00     0.005 C 
ENDBRANCH   1   2
BRANCH   1   4
HETATM    4  C   LIG     1      15.645  32.025  15.275  1.00  0.00     0.085 C 
HETATM    5 BR   LIG     1      17.223  33.037  14.769  1.00  0.00    -0.097 Br
ENDBRANCH   1   4
TORSDOF 2
ENDMDL
MODEL 17
REMARK VINA RESULT:      -2.8     12.174     12.688
REMARK  2 active torsions:
REMARK  status: ('A' for Active; 'I' for Inactive)
REMARK    1  A    between atoms: C_2  and  C_3 
REMARK    2  A    between atoms: C_3  and  C_4 
ROOT
HETATM    1  C   LIG     1      15.672  31.395  13.624  1.00  0.00     0.010 C 
ENDROOT
BRANCH   1   2
HETATM    2  C   LIG     1      14.827  30.352  14.367  1.00  0.00    -0.004 C 
HETATM    3  C   LIG     1      15.205  28.935  13.944  1.00  0.00     0.005 C 
ENDBRANCH   1   2
BRANCH   1   4
HETATM    4  C   LIG     1      16.348  32.376  14.584  1.00  0.00     0.085 C 
HETATM    5 BR   LIG     1      15.349  32.558  16.239  1.00  0.00    -0.097 Br
ENDBRANCH   1   4
TORSDOF 2
ENDMDL
MODEL 18
REMARK VINA RESULT:      -2.7     10.447     11.004
REMARK  2 active torsions:
REMARK  status: ('A' for Active; 'I' for Inactive)
REMARK    1  A    between atoms: C_2  and  C_3 
REMARK    2  A    between atoms: C_3  and  C_4 
ROOT
HETATM    1  C   LIG     1      15.452  32.335  15.886  1.00  0.00     0.010 C 
ENDROOT
BRANCH   1   2
HETATM    2  C   LIG     1      14.499  32.746  17.016  1.00  0.00    -0.004 C 
HETATM    3  C   LIG     1      15.129  32.500  18.384  1.00  0.00     0.005 C 
ENDBRANCH   1   2
BRANCH   1   4
HETATM    4  C   LIG     1      14.911  31.150  15.082  1.00  0.00     0.085 C 
HETATM    5 BR   LIG     1      13.178  30.572  15.741  1.00  0.00    -0.097 Br
ENDBRANCH   1   4
TORSDOF 2
ENDMDL
MODEL 19
REMARK VINA RESULT:      -2.5     14.659     15.442
REMARK  2 active torsions:
REMARK  status: ('A' for Active; 'I' for Inactive)
REMARK    1  A    between atoms: C_2  and  C_3 
REMARK    2  A    between atoms: C_3  and  C_4 
ROOT
HETATM    1  C   LIG     1      26.081  30.616  37.082  1.00  0.00     0.010 C 
ENDROOT
BRANCH   1   2
HETATM    2  C   LIG     1      26.173  31.733  38.129  1.00  0.00    -0.004 C 
HETATM    3  C   LIG     1      27.524  32.440  38.062  1.00  0.00     0.005 C 
ENDBRANCH   1   2
BRANCH   1   4
HETATM    4  C   LIG     1      25.880  31.168  35.669  1.00  0.00     0.085 C 
HETATM    5 BR   LIG     1      27.431  30.842  34.547  1.00  0.00    -0.097 Br
ENDBRANCH   1   4
TORSDOF 2
ENDMDL
MODEL 20
REMARK VINA RESULT:      -2.5     10.825     11.272
REMARK  2 active torsions:
REMARK  status: ('A' for Active; 'I' for Inactive)
REMARK    1  A    between atoms: C_2  and  C_3 
REMARK    2  A    between atoms: C_3  and  C_4 
ROOT
HETATM    1  C   LIG     1      16.501  32.327  15.563  1.00  0.00     0.010 C 
ENDROOT
BRANCH   1   2
HETATM    2  C   LIG     1      15.147  32.548  16.249  1.00  0.00    -0.004 C 
HETATM    3  C   LIG     1      15.064  33.941  16.866  1.00  0.00     0.005 C 
ENDBRANCH   1   2
BRANCH   1   4
HETATM    4  C   LIG     1      16.413  32.509  14.046  1.00  0.00     0.085 C 
HETATM    5 BR   LIG     1      17.854  33.625  13.377  1.00  0.00    -0.097 Br
ENDBRANCH   1   4
TORSDOF 2
ENDMDL
