REMARK  2 active torsions:
REMARK  status: ('A' for Active; 'I' for Inactive)
REMARK    1  A    between atoms: C_2  and  C_3 
REMARK    2  A    between atoms: C_3  and  C_4 
ROOT
HETATM    1  C   LIG     1       0.057  -0.302   0.048  1.00  0.00    -0.001 C 
ENDROOT
BRANCH   1   2
HETATM    2  C   LIG     1      -1.334   0.280  -0.228  1.00  0.00    -0.005 C 
HETATM    3  C   LIG     1      -2.405  -0.805  -0.178  1.00  0.00     0.005 C 
ENDBRANCH   1   2
BRANCH   1   4
HETATM    4  C   LIG     1       1.130   0.792  -0.003  1.00  0.00    -0.005 C 
HETATM    5  C   LIG     1       2.517   0.217   0.271  1.00  0.00     0.005 C 
ENDBRANCH   1   4
TORSDOF 2
