REMARK  2 active torsions:
REMARK  status: ('A' for Active; 'I' for Inactive)
REMARK    1  A    between atoms: C_2  and  C_3 
REMARK    2  A    between atoms: C_3  and  C_4 
ROOT
HETATM    1  C   LIG     1      -0.013  -0.310   0.584  1.00  0.00     0.021 C 
ENDROOT
BRANCH   1   2
HETATM    2  C   LIG     1       1.213  -0.337  -0.338  1.00  0.00     0.086 C 
HETATM    3 BR   LIG     1       2.071   1.398  -0.477  1.00  0.00    -0.096 Br
ENDBRANCH   1   2
BRANCH   1   4
HETATM    4  C   LIG     1      -1.281   0.216  -0.101  1.00  0.00     0.086 C 
HETATM    5 BR   LIG     1      -1.343   2.155  -0.154  1.00  0.00    -0.096 Br
ENDBRANCH   1   4
TORSDOF 2
