REMARK  1 active torsions:
REMARK  status: ('A' for Active; 'I' for Inactive)
REMARK    1  A    between atoms: O_1  and  C_2 
ROOT
HETATM    1  C   LIG     1       0.996  -0.230   0.004  1.00  0.00     0.083 A 
HETATM    2  C   LIG     1       0.273   0.958   0.165  1.00  0.00     0.039 A 
HETATM    3  C   LIG     1      -1.122   0.936   0.104  1.00  0.00     0.022 A 
HETATM    4  C   LIG     1      -1.777  -0.279  -0.118  1.00  0.00     0.116 A 
HETATM    5  N   LIG     1      -1.057  -1.422  -0.273  1.00  0.00    -0.270 NA
HETATM    6  C   LIG     1       0.302  -1.424  -0.216  1.00  0.00     0.152 A 
ENDROOT
BRANCH   1   7
HETATM    7  O   LIG     1       2.388  -0.235   0.061  1.00  0.00    -0.359 OA
HETATM    8  H   LIG     1       2.914   0.616   0.220  1.00  0.00     0.217 HD
ENDBRANCH   1   7
TORSDOF 1
