MODEL 1
REMARK VINA RESULT:      -4.9      0.000      0.000
REMARK  1 active torsions:
REMARK  status: ('A' for Active; 'I' for Inactive)
REMARK    1  A    between atoms: O_1  and  C_2 
ROOT
HETATM    1  C   LIG     1      17.462  37.599  25.557  1.00  0.00     0.083 A 
HETATM    2  C   LIG     1      18.049  36.765  26.516  1.00  0.00     0.039 A 
HETATM    3  C   LIG     1      18.129  35.390  26.286  1.00  0.00     0.022 A 
HETATM    4  C   LIG     1      17.619  34.866  25.094  1.00  0.00     0.116 A 
HETATM    5  N   LIG     1      17.053  35.693  24.175  1.00  0.00    -0.270 NA
HETATM    6  C   LIG     1      16.965  37.035  24.378  1.00  0.00     0.152 A 
ENDROOT
BRANCH   1   7
HETATM    7  O   LIG     1      17.371  38.974  25.762  1.00  0.00    -0.359 OA
HETATM    8  H   LIG     1      17.467  39.631  24.997  1.00  0.00     0.217 HD
ENDBRANCH   1   7
TORSDOF 1
ENDMDL
MODEL 2
REMARK VINA RESULT:      -4.9      5.195      5.970
REMARK  1 active torsions:
REMARK  status: ('A' for Active; 'I' for Inactive)
REMARK    1  A    between atoms: O_1  and  C_2 
ROOT
HETATM    1  C   LIG     1      19.671  38.756  19.746  1.00  0.00     0.083 A 
HETATM    2  C   LIG     1      19.378  37.421  19.444  1.00  0.00     0.039 A 
HETATM    3  C   LIG     1      18.391  36.747  20.166  1.00  0.00     0.022 A 
HETATM    4  C   LIG     1      17.709  37.420  21.184  1.00  0.00     0.116 A 
HETATM    5  N   LIG     1      18.009  38.716  21.463  1.00  0.00    -0.270 NA
HETATM    6  C   LIG     1      18.965  39.393  20.772  1.00  0.00     0.152 A 
ENDROOT
BRANCH   1   7
HETATM    7  O   LIG     1      20.651  39.452  19.041  1.00  0.00    -0.359 OA
HETATM    8  H   LIG     1      20.717  40.462  19.083  1.00  0.00     0.217 HD
ENDBRANCH   1   7
TORSDOF 1
ENDMDL
MODEL 3
REMARK VINA RESULT:      -4.5      2.074      2.551
REMARK  1 active torsions:
REMARK  status: ('A' for Active; 'I' for Inactive)
REMARK    1  A    between atoms: O_1  and  C_2 
ROOT
HETATM    1  C   LIG     1      17.145  35.744  24.125  1.00  0.00     0.083 A 
HETATM    2  C   LIG     1      17.560  34.862  25.130  1.00  0.00     0.039 A 
HETATM    3  C   LIG     1      18.052  35.365  26.336  1.00  0.00     0.022 A 
HETATM    4  C   LIG     1      18.122  36.749  26.521  1.00  0.00     0.116 A 
HETATM    5  N   LIG     1      17.715  37.590  25.533  1.00  0.00    -0.270 NA
HETATM    6  C   LIG     1      17.231  37.121  24.351  1.00  0.00     0.152 A 
ENDROOT
BRANCH   1   7
HETATM    7  O   LIG     1      16.650  35.268  22.913  1.00  0.00    -0.359 OA
HETATM    8  H   LIG     1      16.176  34.374  22.849  1.00  0.00     0.217 HD
ENDBRANCH   1   7
TORSDOF 1
ENDMDL
MODEL 4
REMARK VINA RESULT:      -4.3      1.760      2.466
REMARK  1 active torsions:
REMARK  status: ('A' for Active; 'I' for Inactive)
REMARK    1  A    between atoms: O_1  and  C_2 
ROOT
HETATM    1  C   LIG     1      17.451  36.436  25.585  1.00  0.00     0.083 A 
HETATM    2  C   LIG     1      17.371  35.385  24.664  1.00  0.00     0.039 A 
HETATM    3  C   LIG     1      16.976  35.642  23.349  1.00  0.00     0.022 A 
HETATM    4  C   LIG     1      16.666  36.952  22.973  1.00  0.00     0.116 A 
HETATM    5  N   LIG     1      16.749  37.959  23.882  1.00  0.00    -0.270 NA
HETATM    6  C   LIG     1      17.132  37.732  25.168  1.00  0.00     0.152 A 
ENDROOT
BRANCH   1   7
HETATM    7  O   LIG     1      17.842  36.207  26.902  1.00  0.00    -0.359 OA
HETATM    8  H   LIG     1      17.162  36.089  27.644  1.00  0.00     0.217 HD
ENDBRANCH   1   7
TORSDOF 1
ENDMDL
MODEL 5
REMARK VINA RESULT:      -4.3      1.726      2.936
REMARK  1 active torsions:
REMARK  status: ('A' for Active; 'I' for Inactive)
REMARK    1  A    between atoms: O_1  and  C_2 
ROOT
HETATM    1  C   LIG     1      17.218  38.059  24.341  1.00  0.00     0.083 A 
HETATM    2  C   LIG     1      17.330  38.779  23.145  1.00  0.00     0.039 A 
HETATM    3  C   LIG     1      17.261  38.109  21.922  1.00  0.00     0.022 A 
HETATM    4  C   LIG     1      17.080  36.723  21.911  1.00  0.00     0.116 A 
HETATM    5  N   LIG     1      16.974  36.041  23.083  1.00  0.00    -0.270 NA
HETATM    6  C   LIG     1      17.037  36.673  24.285  1.00  0.00     0.152 A 
ENDROOT
BRANCH   1   7
HETATM    7  O   LIG     1      17.283  38.703  25.574  1.00  0.00    -0.359 OA
HETATM    8  H   LIG     1      16.774  39.560  25.751  1.00  0.00     0.217 HD
ENDBRANCH   1   7
TORSDOF 1
ENDMDL
MODEL 6
REMARK VINA RESULT:      -4.2     10.463     11.223
REMARK  1 active torsions:
REMARK  status: ('A' for Active; 'I' for Inactive)
REMARK    1  A    between atoms: O_1  and  C_2 
ROOT
HETATM    1  C   LIG     1      14.207  31.881  16.702  1.00  0.00     0.083 A 
HETATM    2  C   LIG     1      14.072  30.809  15.811  1.00  0.00     0.039 A 
HETATM    3  C   LIG     1      14.858  30.761  14.658  1.00  0.00     0.022 A 
HETATM    4  C   LIG     1      15.772  31.790  14.411  1.00  0.00     0.116 A 
HETATM    5  N   LIG     1      15.888  32.822  15.288  1.00  0.00    -0.270 NA
HETATM    6  C   LIG     1      15.134  32.889  16.418  1.00  0.00     0.152 A 
ENDROOT
BRANCH   1   7
HETATM    7  O   LIG     1      13.435  31.952  17.860  1.00  0.00    -0.359 OA
HETATM    8  H   LIG     1      13.729  31.504  18.720  1.00  0.00     0.217 HD
ENDBRANCH   1   7
TORSDOF 1
ENDMDL
MODEL 7
REMARK VINA RESULT:      -4.1     10.784     11.577
REMARK  1 active torsions:
REMARK  status: ('A' for Active; 'I' for Inactive)
REMARK    1  A    between atoms: O_1  and  C_2 
ROOT
HETATM    1  C   LIG     1      13.464  30.936  16.264  1.00  0.00     0.083 A 
HETATM    2  C   LIG     1      14.164  30.481  15.140  1.00  0.00     0.039 A 
HETATM    3  C   LIG     1      15.310  31.156  14.715  1.00  0.00     0.022 A 
HETATM    4  C   LIG     1      15.742  32.281  15.423  1.00  0.00     0.116 A 
HETATM    5  N   LIG     1      15.049  32.708  16.512  1.00  0.00    -0.270 NA
HETATM    6  C   LIG     1      13.931  32.065  16.944  1.00  0.00     0.152 A 
ENDROOT
BRANCH   1   7
HETATM    7  O   LIG     1      12.318  30.280  16.709  1.00  0.00    -0.359 OA
HETATM    8  H   LIG     1      11.628  30.751  17.282  1.00  0.00     0.217 HD
ENDBRANCH   1   7
TORSDOF 1
ENDMDL
MODEL 8
REMARK VINA RESULT:      -4.0     10.383     11.136
REMARK  1 active torsions:
REMARK  status: ('A' for Active; 'I' for Inactive)
REMARK    1  A    between atoms: O_1  and  C_2 
ROOT
HETATM    1  C   LIG     1      15.209  32.288  16.122  1.00  0.00     0.083 A 
HETATM    2  C   LIG     1      15.076  31.282  15.157  1.00  0.00     0.039 A 
HETATM    3  C   LIG     1      13.944  30.464  15.159  1.00  0.00     0.022 A 
HETATM    4  C   LIG     1      12.958  30.664  16.129  1.00  0.00     0.116 A 
HETATM    5  N   LIG     1      13.107  31.644  17.059  1.00  0.00    -0.270 NA
HETATM    6  C   LIG     1      14.200  32.454  17.076  1.00  0.00     0.152 A 
ENDROOT
BRANCH   1   7
HETATM    7  O   LIG     1      16.328  33.117  16.142  1.00  0.00    -0.359 OA
HETATM    8  H   LIG     1      16.291  34.046  16.546  1.00  0.00     0.217 HD
ENDBRANCH   1   7
TORSDOF 1
ENDMDL
MODEL 9
REMARK VINA RESULT:      -4.0     12.195     12.957
REMARK  1 active torsions:
REMARK  status: ('A' for Active; 'I' for Inactive)
REMARK    1  A    between atoms: O_1  and  C_2 
ROOT
HETATM    1  C   LIG     1      13.826  29.776  14.455  1.00  0.00     0.083 A 
HETATM    2  C   LIG     1      13.578  30.568  15.582  1.00  0.00     0.039 A 
HETATM    3  C   LIG     1      14.493  31.557  15.951  1.00  0.00     0.022 A 
HETATM    4  C   LIG     1      15.648  31.739  15.185  1.00  0.00     0.116 A 
HETATM    5  N   LIG     1      15.871  30.958  14.094  1.00  0.00    -0.270 NA
HETATM    6  C   LIG     1      14.993  29.991  13.715  1.00  0.00     0.152 A 
ENDROOT
BRANCH   1   7
HETATM    7  O   LIG     1      12.928  28.784  14.065  1.00  0.00    -0.359 OA
HETATM    8  H   LIG     1      13.157  27.801  14.150  1.00  0.00     0.217 HD
ENDBRANCH   1   7
TORSDOF 1
ENDMDL
MODEL 10
REMARK VINA RESULT:      -3.9     10.655     11.378
REMARK  1 active torsions:
REMARK  status: ('A' for Active; 'I' for Inactive)
REMARK    1  A    between atoms: O_1  and  C_2 
ROOT
HETATM    1  C   LIG     1      13.459  30.980  16.345  1.00  0.00     0.083 A 
HETATM    2  C   LIG     1      13.839  32.113  17.075  1.00  0.00     0.039 A 
HETATM    3  C   LIG     1      14.971  32.837  16.695  1.00  0.00     0.022 A 
HETATM    4  C   LIG     1      15.711  32.415  15.586  1.00  0.00     0.116 A 
HETATM    5  N   LIG     1      15.327  31.311  14.892  1.00  0.00    -0.270 NA
HETATM    6  C   LIG     1      14.227  30.592  15.243  1.00  0.00     0.152 A 
ENDROOT
BRANCH   1   7
HETATM    7  O   LIG     1      12.333  30.242  16.703  1.00  0.00    -0.359 OA
HETATM    8  H   LIG     1      12.412  29.374  17.220  1.00  0.00     0.217 HD
ENDBRANCH   1   7
TORSDOF 1
ENDMDL
MODEL 11
REMARK VINA RESULT:      -3.9     10.918     11.686
REMARK  1 active torsions:
REMARK  status: ('A' for Active; 'I' for Inactive)
REMARK    1  A    between atoms: O_1  and  C_2 
ROOT
HETATM    1  C   LIG     1      15.339  31.314  14.808  1.00  0.00     0.083 A 
HETATM    2  C   LIG     1      14.222  30.522  15.100  1.00  0.00     0.039 A 
HETATM    3  C   LIG     1      13.429  30.822  16.209  1.00  0.00     0.022 A 
HETATM    4  C   LIG     1      13.766  31.913  17.015  1.00  0.00     0.116 A 
HETATM    5  N   LIG     1      14.856  32.669  16.716  1.00  0.00    -0.270 NA
HETATM    6  C   LIG     1      15.642  32.397  15.640  1.00  0.00     0.152 A 
ENDROOT
BRANCH   1   7
HETATM    7  O   LIG     1      16.146  31.036  13.707  1.00  0.00    -0.359 OA
HETATM    8  H   LIG     1      17.112  31.340  13.668  1.00  0.00     0.217 HD
ENDBRANCH   1   7
TORSDOF 1
ENDMDL
MODEL 12
REMARK VINA RESULT:      -3.9     11.222     11.979
REMARK  1 active torsions:
REMARK  status: ('A' for Active; 'I' for Inactive)
REMARK    1  A    between atoms: O_1  and  C_2 
ROOT
HETATM    1  C   LIG     1      14.146  30.493  14.933  1.00  0.00     0.083 A 
HETATM    2  C   LIG     1      15.191  31.397  15.159  1.00  0.00     0.039 A 
HETATM    3  C   LIG     1      15.122  32.284  16.236  1.00  0.00     0.022 A 
HETATM    4  C   LIG     1      14.004  32.253  17.075  1.00  0.00     0.116 A 
HETATM    5  N   LIG     1      12.999  31.368  16.839  1.00  0.00    -0.270 NA
HETATM    6  C   LIG     1      13.047  30.495  15.797  1.00  0.00     0.152 A 
ENDROOT
BRANCH   1   7
HETATM    7  O   LIG     1      14.191  29.598  13.866  1.00  0.00    -0.359 OA
HETATM    8  H   LIG     1      14.592  29.859  12.973  1.00  0.00     0.217 HD
ENDBRANCH   1   7
TORSDOF 1
ENDMDL
MODEL 13
REMARK VINA RESULT:      -3.7      8.115      8.995
REMARK  1 active torsions:
REMARK  status: ('A' for Active; 'I' for Inactive)
REMARK    1  A    between atoms: O_1  and  C_2 
ROOT
HETATM    1  C   LIG     1      14.743  31.936  19.057  1.00  0.00     0.083 A 
HETATM    2  C   LIG     1      14.225  31.733  17.772  1.00  0.00     0.039 A 
HETATM    3  C   LIG     1      14.376  32.723  16.798  1.00  0.00     0.022 A 
HETATM    4  C   LIG     1      15.046  33.906  17.124  1.00  0.00     0.116 A 
HETATM    5  N   LIG     1      15.541  34.084  18.378  1.00  0.00    -0.270 NA
HETATM    6  C   LIG     1      15.407  33.133  19.342  1.00  0.00     0.152 A 
ENDROOT
BRANCH   1   7
HETATM    7  O   LIG     1      14.606  30.964  20.046  1.00  0.00    -0.359 OA
HETATM    8  H   LIG     1      13.912  30.230  19.974  1.00  0.00     0.217 HD
ENDBRANCH   1   7
TORSDOF 1
ENDMDL
MODEL 14
REMARK VINA RESULT:      -3.6     11.145     11.859
REMARK  1 active torsions:
REMARK  status: ('A' for Active; 'I' for Inactive)
REMARK    1  A    between atoms: O_1  and  C_2 
ROOT
HETATM    1  C   LIG     1      17.150  32.856  13.605  1.00  0.00     0.083 A 
HETATM    2  C   LIG     1      16.173  31.899  13.902  1.00  0.00     0.039 A 
HETATM    3  C   LIG     1      15.462  31.980  15.102  1.00  0.00     0.022 A 
HETATM    4  C   LIG     1      15.741  33.022  15.992  1.00  0.00     0.116 A 
HETATM    5  N   LIG     1      16.695  33.941  15.686  1.00  0.00    -0.270 NA
HETATM    6  C   LIG     1      17.397  33.882  14.522  1.00  0.00     0.152 A 
ENDROOT
BRANCH   1   7
HETATM    7  O   LIG     1      17.872  32.798  12.415  1.00  0.00    -0.359 OA
HETATM    8  H   LIG     1      17.941  33.598  11.799  1.00  0.00     0.217 HD
ENDBRANCH   1   7
TORSDOF 1
ENDMDL
MODEL 15
REMARK VINA RESULT:      -3.6     13.417     14.054
REMARK  1 active torsions:
REMARK  status: ('A' for Active; 'I' for Inactive)
REMARK    1  A    between atoms: O_1  and  C_2 
ROOT
HETATM    1  C   LIG     1      18.455  34.296  12.050  1.00  0.00     0.083 A 
HETATM    2  C   LIG     1      19.469  33.885  12.923  1.00  0.00     0.039 A 
HETATM    3  C   LIG     1      20.807  34.007  12.541  1.00  0.00     0.022 A 
HETATM    4  C   LIG     1      21.113  34.541  11.285  1.00  0.00     0.116 A 
HETATM    5  N   LIG     1      20.113  34.934  10.451  1.00  0.00    -0.270 NA
HETATM    6  C   LIG     1      18.804  34.826  10.804  1.00  0.00     0.152 A 
ENDROOT
BRANCH   1   7
HETATM    7  O   LIG     1      17.113  34.186  12.408  1.00  0.00    -0.359 OA
HETATM    8  H   LIG     1      16.738  34.676  13.211  1.00  0.00     0.217 HD
ENDBRANCH   1   7
TORSDOF 1
ENDMDL
MODEL 16
REMARK VINA RESULT:      -3.4      7.800      8.520
REMARK  1 active torsions:
REMARK  status: ('A' for Active; 'I' for Inactive)
REMARK    1  A    between atoms: O_1  and  C_2 
ROOT
HETATM    1  C   LIG     1      14.839  32.615  17.646  1.00  0.00     0.083 A 
HETATM    2  C   LIG     1      14.872  31.971  18.889  1.00  0.00     0.039 A 
HETATM    3  C   LIG     1      15.281  32.673  20.024  1.00  0.00     0.022 A 
HETATM    4  C   LIG     1      15.653  34.015  19.900  1.00  0.00     0.116 A 
HETATM    5  N   LIG     1      15.615  34.622  18.684  1.00  0.00    -0.270 NA
HETATM    6  C   LIG     1      15.219  33.958  17.565  1.00  0.00     0.152 A 
ENDROOT
BRANCH   1   7
HETATM    7  O   LIG     1      14.434  31.936  16.498  1.00  0.00    -0.359 OA
HETATM    8  H   LIG     1      14.791  31.015  16.275  1.00  0.00     0.217 HD
ENDBRANCH   1   7
TORSDOF 1
ENDMDL
MODEL 17
REMARK VINA RESULT:      -3.3     11.239     12.019
REMARK  1 active torsions:
REMARK  status: ('A' for Active; 'I' for Inactive)
REMARK    1  A    between atoms: O_1  and  C_2 
ROOT
HETATM    1  C   LIG     1      15.645  31.827  14.639  1.00  0.00     0.083 A 
HETATM    2  C   LIG     1      16.199  32.112  13.385  1.00  0.00     0.039 A 
HETATM    3  C   LIG     1      17.204  33.076  13.273  1.00  0.00     0.022 A 
HETATM    4  C   LIG     1      17.641  33.744  14.421  1.00  0.00     0.116 A 
HETATM    5  N   LIG     1      17.089  33.454  15.629  1.00  0.00    -0.270 NA
HETATM    6  C   LIG     1      16.111  32.518  15.762  1.00  0.00     0.152 A 
ENDROOT
BRANCH   1   7
HETATM    7  O   LIG     1      14.642  30.870  14.778  1.00  0.00    -0.359 OA
HETATM    8  H   LIG     1      14.420  30.224  14.030  1.00  0.00     0.217 HD
ENDBRANCH   1   7
TORSDOF 1
ENDMDL
MODEL 18
REMARK VINA RESULT:      -3.3     19.904     20.423
REMARK  1 active torsions:
REMARK  status: ('A' for Active; 'I' for Inactive)
REMARK    1  A    between atoms: O_1  and  C_2 
ROOT
HETATM    1  C   LIG     1      16.223  19.697  15.318  1.00  0.00     0.083 A 
HETATM    2  C   LIG     1      15.457  19.074  16.310  1.00  0.00     0.039 A 
HETATM    3  C   LIG     1      14.310  18.359  15.955  1.00  0.00     0.022 A 
HETATM    4  C   LIG     1      13.945  18.278  14.608  1.00  0.00     0.116 A 
HETATM    5  N   LIG     1      14.702  18.891  13.660  1.00  0.00    -0.270 NA
HETATM    6  C   LIG     1      15.823  19.591  13.982  1.00  0.00     0.152 A 
ENDROOT
BRANCH   1   7
HETATM    7  O   LIG     1      17.371  20.415  15.645  1.00  0.00    -0.359 OA
HETATM    8  H   LIG     1      17.939  20.169  16.447  1.00  0.00     0.217 HD
ENDBRANCH   1   7
TORSDOF 1
ENDMDL
MODEL 19
REMARK VINA RESULT:      -3.2     13.605     14.344
REMARK  1 active torsions:
REMARK  status: ('A' for Active; 'I' for Inactive)
REMARK    1  A    between atoms: O_1  and  C_2 
ROOT
HETATM    1  C   LIG     1      20.938  34.285  12.266  1.00  0.00     0.083 A 
HETATM    2  C   LIG     1      21.148  34.759  10.966  1.00  0.00     0.039 A 
HETATM    3  C   LIG     1      20.054  35.084  10.161  1.00  0.00     0.022 A 
HETATM    4  C   LIG     1      18.761  34.928  10.669  1.00  0.00     0.116 A 
HETATM    5  N   LIG     1      18.578  34.465  11.934  1.00  0.00    -0.270 NA
HETATM    6  C   LIG     1      19.629  34.144  12.737  1.00  0.00     0.152 A 
ENDROOT
BRANCH   1   7
HETATM    7  O   LIG     1      22.012  33.954  13.090  1.00  0.00    -0.359 OA
HETATM    8  H   LIG     1      22.960  34.226  12.857  1.00  0.00     0.217 HD
ENDBRANCH   1   7
TORSDOF 1
ENDMDL
MODEL 20
REMARK VINA RESULT:      -2.9     20.428     20.920
REMARK  1 active torsions:
REMARK  status: ('A' for Active; 'I' for Inactive)
REMARK    1  A    between atoms: O_1  and  C_2 
ROOT
HETATM    1  C   LIG     1      13.810  18.603  14.598  1.00  0.00     0.083 A 
HETATM    2  C   LIG     1      14.179  18.389  15.931  1.00  0.00     0.039 A 
HETATM    3  C   LIG     1      15.452  18.762  16.368  1.00  0.00     0.022 A 
HETATM    4  C   LIG     1      16.342  19.346  15.462  1.00  0.00     0.116 A 
HETATM    5  N   LIG     1      15.965  19.545  14.170  1.00  0.00    -0.270 NA
HETATM    6  C   LIG     1      14.730  19.191  13.723  1.00  0.00     0.152 A 
ENDROOT
BRANCH   1   7
HETATM    7  O   LIG     1      12.546  18.241  14.137  1.00  0.00    -0.359 OA
HETATM    8  H   LIG     1      12.332  17.286  13.876  1.00  0.00     0.217 HD
ENDBRANCH   1   7
TORSDOF 1
ENDMDL
