REMARK  0 active torsions:
REMARK  status: ('A' for Active; 'I' for Inactive)
ROOT
HETATM    1  C   LIG     1       2.277  -0.168  -0.268  1.00  0.00     0.044 C 
HETATM    2  C   LIG     1       0.929   0.374   0.216  1.00  0.00     0.244 C 
HETATM    3  C   LIG     1       0.157  -0.705   1.020  1.00  0.00     0.304 C 
HETATM    4  N   LIG     1      -0.850  -1.346   0.168  1.00  0.00     0.087 N 
HETATM    5  C   LIG     1      -1.876  -0.376  -0.248  1.00  0.00     0.299 C 
HETATM    6  C   LIG     1      -1.264   0.989  -0.624  1.00  0.00     0.300 C 
HETATM    7  N   LIG     1       0.157   0.838  -0.953  1.00  0.00     0.091 N 
HETATM    8  H   LIG     1      -1.320  -2.097   0.726  1.00  0.00     0.316 HD
HETATM    9  H   LIG     1       0.522   1.777  -1.238  1.00  0.00     0.316 HD
ENDROOT
TORSDOF 0
