MODEL 1
REMARK VINA RESULT:      -3.6      0.000      0.000
REMARK  2 active torsions:
REMARK  status: ('A' for Active; 'I' for Inactive)
REMARK    1  A    between atoms: C_2  and  C_3 
REMARK    2  A    between atoms: C_3  and  C_4 
ROOT
HETATM    1  C   LIG     1      17.384  37.806  25.568  1.00  0.00     0.026 C 
ENDROOT
BRANCH   1   2
HETATM    2  C   LIG     1      16.888  37.474  24.159  1.00  0.00     0.115 C 
HETATM    3 CL   LIG     1      17.747  38.473  22.960  1.00  0.00    -0.130 Cl
ENDBRANCH   1   2
BRANCH   1   4
HETATM    4  C   LIG     1      18.459  36.825  26.043  1.00  0.00     0.086 C 
HETATM    5 BR   LIG     1      17.791  35.003  26.089  1.00  0.00    -0.096 Br
ENDBRANCH   1   4
TORSDOF 2
ENDMDL
MODEL 2
REMARK VINA RESULT:      -3.5      2.986      3.383
REMARK  2 active torsions:
REMARK  status: ('A' for Active; 'I' for Inactive)
REMARK    1  A    between atoms: C_2  and  C_3 
REMARK    2  A    between atoms: C_3  and  C_4 
ROOT
HETATM    1  C   LIG     1      17.615  37.536  25.709  1.00  0.00     0.026 C 
ENDROOT
BRANCH   1   2
HETATM    2  C   LIG     1      18.363  36.486  26.533  1.00  0.00     0.115 C 
HETATM    3 CL   LIG     1      17.875  34.851  26.022  1.00  0.00    -0.130 Cl
ENDBRANCH   1   2
BRANCH   1   4
HETATM    4  C   LIG     1      17.152  36.982  24.359  1.00  0.00     0.086 C 
HETATM    5 BR   LIG     1      17.196  38.344  22.977  1.00  0.00    -0.096 Br
ENDBRANCH   1   4
TORSDOF 2
ENDMDL
MODEL 3
REMARK VINA RESULT:      -3.4      1.839      2.029
REMARK  2 active torsions:
REMARK  status: ('A' for Active; 'I' for Inactive)
REMARK    1  A    between atoms: C_2  and  C_3 
REMARK    2  A    between atoms: C_3  and  C_4 
ROOT
HETATM    1  C   LIG     1      17.587  37.926  23.837  1.00  0.00     0.026 C 
ENDROOT
BRANCH   1   2
HETATM    2  C   LIG     1      16.554  37.134  23.032  1.00  0.00     0.115 C 
HETATM    3 CL   LIG     1      17.003  35.410  22.997  1.00  0.00    -0.130 Cl
ENDBRANCH   1   2
BRANCH   1   4
HETATM    4  C   LIG     1      17.265  37.934  25.333  1.00  0.00     0.086 C 
HETATM    5 BR   LIG     1      18.320  36.620  26.296  1.00  0.00    -0.096 Br
ENDBRANCH   1   4
TORSDOF 2
ENDMDL
MODEL 4
REMARK VINA RESULT:      -3.3      2.456      2.981
REMARK  2 active torsions:
REMARK  status: ('A' for Active; 'I' for Inactive)
REMARK    1  A    between atoms: C_2  and  C_3 
REMARK    2  A    between atoms: C_3  and  C_4 
ROOT
HETATM    1  C   LIG     1      17.543  37.989  23.888  1.00  0.00     0.026 C 
ENDROOT
BRANCH   1   2
HETATM    2  C   LIG     1      17.323  37.865  25.397  1.00  0.00     0.115 C 
HETATM    3 CL   LIG     1      18.566  36.806  26.107  1.00  0.00    -0.130 Cl
ENDBRANCH   1   2
BRANCH   1   4
HETATM    4  C   LIG     1      16.428  37.311  23.088  1.00  0.00     0.086 C 
HETATM    5 BR   LIG     1      16.905  35.495  22.598  1.00  0.00    -0.096 Br
ENDBRANCH   1   4
TORSDOF 2
ENDMDL
MODEL 5
REMARK VINA RESULT:      -3.2      2.688      3.138
REMARK  2 active torsions:
REMARK  status: ('A' for Active; 'I' for Inactive)
REMARK    1  A    between atoms: C_2  and  C_3 
REMARK    2  A    between atoms: C_3  and  C_4 
ROOT
HETATM    1  C   LIG     1      17.343  37.827  22.166  1.00  0.00     0.026 C 
ENDROOT
BRANCH   1   2
HETATM    2  C   LIG     1      18.100  39.157  22.200  1.00  0.00     0.115 C 
HETATM    3 CL   LIG     1      18.880  39.454  20.627  1.00  0.00    -0.130 Cl
ENDBRANCH   1   2
BRANCH   1   4
HETATM    4  C   LIG     1      16.423  37.659  23.378  1.00  0.00     0.086 C 
HETATM    5 BR   LIG     1      17.379  37.940  25.043  1.00  0.00    -0.096 Br
ENDBRANCH   1   4
TORSDOF 2
ENDMDL
MODEL 6
REMARK VINA RESULT:      -3.2      3.757      4.157
REMARK  2 active torsions:
REMARK  status: ('A' for Active; 'I' for Inactive)
REMARK    1  A    between atoms: C_2  and  C_3 
REMARK    2  A    between atoms: C_3  and  C_4 
ROOT
HETATM    1  C   LIG     1      17.033  38.577  22.437  1.00  0.00     0.026 C 
ENDROOT
BRANCH   1   2
HETATM    2  C   LIG     1      16.865  37.541  23.550  1.00  0.00     0.115 C 
HETATM    3 CL   LIG     1      17.318  38.254  25.118  1.00  0.00    -0.130 Cl
ENDBRANCH   1   2
BRANCH   1   4
HETATM    4  C   LIG     1      18.491  39.017  22.279  1.00  0.00     0.086 C 
HETATM    5 BR   LIG     1      18.967  39.250  20.412  1.00  0.00    -0.096 Br
ENDBRANCH   1   4
TORSDOF 2
ENDMDL
MODEL 7
REMARK VINA RESULT:      -3.1      4.620      4.865
REMARK  2 active torsions:
REMARK  status: ('A' for Active; 'I' for Inactive)
REMARK    1  A    between atoms: C_2  and  C_3 
REMARK    2  A    between atoms: C_3  and  C_4 
ROOT
HETATM    1  C   LIG     1      17.578  38.109  21.880  1.00  0.00     0.026 C 
ENDROOT
BRANCH   1   2
HETATM    2  C   LIG     1      17.761  36.923  20.931  1.00  0.00     0.115 C 
HETATM    3 CL   LIG     1      17.166  35.430  21.701  1.00  0.00    -0.130 Cl
ENDBRANCH   1   2
BRANCH   1   4
HETATM    4  C   LIG     1      18.546  39.252  21.563  1.00  0.00     0.086 C 
HETATM    5 BR   LIG     1      19.563  38.897  19.949  1.00  0.00    -0.096 Br
ENDBRANCH   1   4
TORSDOF 2
ENDMDL
MODEL 8
REMARK VINA RESULT:      -3.0      4.174      4.421
REMARK  2 active torsions:
REMARK  status: ('A' for Active; 'I' for Inactive)
REMARK    1  A    between atoms: C_2  and  C_3 
REMARK    2  A    between atoms: C_3  and  C_4 
ROOT
HETATM    1  C   LIG     1      17.518  36.401  20.849  1.00  0.00     0.026 C 
ENDROOT
BRANCH   1   2
HETATM    2  C   LIG     1      16.413  36.102  21.864  1.00  0.00     0.115 C 
HETATM    3 CL   LIG     1      17.059  35.103  23.190  1.00  0.00    -0.130 Cl
ENDBRANCH   1   2
BRANCH   1   4
HETATM    4  C   LIG     1      18.109  37.801  21.040  1.00  0.00     0.086 C 
HETATM    5 BR   LIG     1      17.174  38.786  22.426  1.00  0.00    -0.096 Br
ENDBRANCH   1   4
TORSDOF 2
ENDMDL
MODEL 9
REMARK VINA RESULT:      -2.9      9.910     10.486
REMARK  2 active torsions:
REMARK  status: ('A' for Active; 'I' for Inactive)
REMARK    1  A    between atoms: C_2  and  C_3 
REMARK    2  A    between atoms: C_3  and  C_4 
ROOT
HETATM    1  C   LIG     1      13.872  31.495  17.195  1.00  0.00     0.026 C 
ENDROOT
BRANCH   1   2
HETATM    2  C   LIG     1      14.372  31.092  15.806  1.00  0.00     0.115 C 
HETATM    3 CL   LIG     1      13.177  30.038  15.011  1.00  0.00    -0.130 Cl
ENDBRANCH   1   2
BRANCH   1   4
HETATM    4  C   LIG     1      14.852  32.430  17.909  1.00  0.00     0.086 C 
HETATM    5 BR   LIG     1      15.157  31.877  19.744  1.00  0.00    -0.096 Br
ENDBRANCH   1   4
TORSDOF 2
ENDMDL
MODEL 10
REMARK VINA RESULT:      -2.9     12.933     13.031
REMARK  2 active torsions:
REMARK  status: ('A' for Active; 'I' for Inactive)
REMARK    1  A    between atoms: C_2  and  C_3 
REMARK    2  A    between atoms: C_3  and  C_4 
ROOT
HETATM    1  C   LIG     1      14.990  29.599  14.250  1.00  0.00     0.026 C 
ENDROOT
BRANCH   1   2
HETATM    2  C   LIG     1      13.472  29.546  14.436  1.00  0.00     0.115 C 
HETATM    3 CL   LIG     1      12.994  30.558  15.822  1.00  0.00    -0.130 Cl
ENDBRANCH   1   2
BRANCH   1   4
HETATM    4  C   LIG     1      15.432  30.855  13.495  1.00  0.00     0.086 C 
HETATM    5 BR   LIG     1      16.176  32.184  14.698  1.00  0.00    -0.096 Br
ENDBRANCH   1   4
TORSDOF 2
ENDMDL
MODEL 11
REMARK VINA RESULT:      -2.9      3.803      4.055
REMARK  2 active torsions:
REMARK  status: ('A' for Active; 'I' for Inactive)
REMARK    1  A    between atoms: C_2  and  C_3 
REMARK    2  A    between atoms: C_3  and  C_4 
ROOT
HETATM    1  C   LIG     1      17.552  37.385  21.379  1.00  0.00     0.026 C 
ENDROOT
BRANCH   1   2
HETATM    2  C   LIG     1      17.861  38.842  21.730  1.00  0.00     0.115 C 
HETATM    3 CL   LIG     1      18.951  39.543  20.508  1.00  0.00    -0.130 Cl
ENDBRANCH   1   2
BRANCH   1   4
HETATM    4  C   LIG     1      16.487  36.787  22.302  1.00  0.00     0.086 C 
HETATM    5 BR   LIG     1      15.285  35.609  21.335  1.00  0.00    -0.096 Br
ENDBRANCH   1   4
TORSDOF 2
ENDMDL
MODEL 12
REMARK VINA RESULT:      -2.8     12.259     12.530
REMARK  2 active torsions:
REMARK  status: ('A' for Active; 'I' for Inactive)
REMARK    1  A    between atoms: C_2  and  C_3 
REMARK    2  A    between atoms: C_3  and  C_4 
ROOT
HETATM    1  C   LIG     1      15.306  29.957  14.231  1.00  0.00     0.026 C 
ENDROOT
BRANCH   1   2
HETATM    2  C   LIG     1      15.656  31.404  13.879  1.00  0.00     0.115 C 
HETATM    3 CL   LIG     1      16.633  32.128  15.182  1.00  0.00    -0.130 Cl
ENDBRANCH   1   2
BRANCH   1   4
HETATM    4  C   LIG     1      13.807  29.775  14.483  1.00  0.00     0.086 C 
HETATM    5 BR   LIG     1      13.226  30.741  16.062  1.00  0.00    -0.096 Br
ENDBRANCH   1   4
TORSDOF 2
ENDMDL
MODEL 13
REMARK VINA RESULT:      -2.8      4.603      5.047
REMARK  2 active torsions:
REMARK  status: ('A' for Active; 'I' for Inactive)
REMARK    1  A    between atoms: C_2  and  C_3 
REMARK    2  A    between atoms: C_3  and  C_4 
ROOT
HETATM    1  C   LIG     1      18.251  37.202  20.661  1.00  0.00     0.026 C 
ENDROOT
BRANCH   1   2
HETATM    2  C   LIG     1      18.878  37.159  19.266  1.00  0.00     0.115 C 
HETATM    3 CL   LIG     1      19.109  38.815  18.651  1.00  0.00    -0.130 Cl
ENDBRANCH   1   2
BRANCH   1   4
HETATM    4  C   LIG     1      18.228  38.621  21.235  1.00  0.00     0.086 C 
HETATM    5 BR   LIG     1      16.892  38.803  22.631  1.00  0.00    -0.096 Br
ENDBRANCH   1   4
TORSDOF 2
ENDMDL
MODEL 14
REMARK VINA RESULT:      -2.8     10.590     11.060
REMARK  2 active torsions:
REMARK  status: ('A' for Active; 'I' for Inactive)
REMARK    1  A    between atoms: C_2  and  C_3 
REMARK    2  A    between atoms: C_3  and  C_4 
ROOT
HETATM    1  C   LIG     1      13.710  31.650  16.970  1.00  0.00     0.026 C 
ENDROOT
BRANCH   1   2
HETATM    2  C   LIG     1      14.960  32.368  16.457  1.00  0.00     0.115 C 
HETATM    3 CL   LIG     1      14.914  34.085  16.933  1.00  0.00    -0.130 Cl
ENDBRANCH   1   2
BRANCH   1   4
HETATM    4  C   LIG     1      13.165  30.649  15.948  1.00  0.00     0.086 C 
HETATM    5 BR   LIG     1      14.501  30.187  14.619  1.00  0.00    -0.096 Br
ENDBRANCH   1   4
TORSDOF 2
ENDMDL
MODEL 15
REMARK VINA RESULT:      -2.8     12.743     13.329
REMARK  2 active torsions:
REMARK  status: ('A' for Active; 'I' for Inactive)
REMARK    1  A    between atoms: C_2  and  C_3 
REMARK    2  A    between atoms: C_3  and  C_4 
ROOT
HETATM    1  C   LIG     1      15.056  30.313  13.879  1.00  0.00     0.026 C 
ENDROOT
BRANCH   1   2
HETATM    2  C   LIG     1      14.346  28.966  14.025  1.00  0.00     0.115 C 
HETATM    3 CL   LIG     1      15.503  27.636  13.763  1.00  0.00    -0.130 Cl
ENDBRANCH   1   2
BRANCH   1   4
HETATM    4  C   LIG     1      14.920  31.173  15.138  1.00  0.00     0.086 C 
HETATM    5 BR   LIG     1      13.279  30.779  16.096  1.00  0.00    -0.096 Br
ENDBRANCH   1   4
TORSDOF 2
ENDMDL
MODEL 16
REMARK VINA RESULT:      -2.7     11.626     12.235
REMARK  2 active torsions:
REMARK  status: ('A' for Active; 'I' for Inactive)
REMARK    1  A    between atoms: C_2  and  C_3 
REMARK    2  A    between atoms: C_3  and  C_4 
ROOT
HETATM    1  C   LIG     1      13.480  30.280  15.052  1.00  0.00     0.026 C 
ENDROOT
BRANCH   1   2
HETATM    2  C   LIG     1      14.904  29.917  14.629  1.00  0.00     0.115 C 
HETATM    3 CL   LIG     1      15.410  30.935  13.258  1.00  0.00    -0.130 Cl
ENDBRANCH   1   2
BRANCH   1   4
HETATM    4  C   LIG     1      13.430  30.848  16.473  1.00  0.00     0.086 C 
HETATM    5 BR   LIG     1      14.675  32.320  16.696  1.00  0.00    -0.096 Br
ENDBRANCH   1   4
TORSDOF 2
ENDMDL
MODEL 17
REMARK VINA RESULT:      -2.7     13.680     14.193
REMARK  2 active torsions:
REMARK  status: ('A' for Active; 'I' for Inactive)
REMARK    1  A    between atoms: C_2  and  C_3 
REMARK    2  A    between atoms: C_3  and  C_4 
ROOT
HETATM    1  C   LIG     1      21.003  34.342  11.628  1.00  0.00     0.026 C 
ENDROOT
BRANCH   1   2
HETATM    2  C   LIG     1      21.687  34.048  12.965  1.00  0.00     0.115 C 
HETATM    3 CL   LIG     1      22.843  35.346  13.355  1.00  0.00    -0.130 Cl
ENDBRANCH   1   2
BRANCH   1   4
HETATM    4  C   LIG     1      19.952  33.286  11.277  1.00  0.00     0.086 C 
HETATM    5 BR   LIG     1      20.741  31.777  10.347  1.00  0.00    -0.096 Br
ENDBRANCH   1   4
TORSDOF 2
ENDMDL
MODEL 18
REMARK VINA RESULT:      -2.7     10.350     10.658
REMARK  2 active torsions:
REMARK  status: ('A' for Active; 'I' for Inactive)
REMARK    1  A    between atoms: C_2  and  C_3 
REMARK    2  A    between atoms: C_3  and  C_4 
ROOT
HETATM    1  C   LIG     1      15.191  32.689  16.826  1.00  0.00     0.026 C 
ENDROOT
BRANCH   1   2
HETATM    2  C   LIG     1      15.604  32.192  15.440  1.00  0.00     0.115 C 
HETATM    3 CL   LIG     1      17.310  32.599  15.130  1.00  0.00    -0.130 Cl
ENDBRANCH   1   2
BRANCH   1   4
HETATM    4  C   LIG     1      13.995  31.912  17.382  1.00  0.00     0.086 C 
HETATM    5 BR   LIG     1      13.225  30.736  16.045  1.00  0.00    -0.096 Br
ENDBRANCH   1   4
TORSDOF 2
ENDMDL
MODEL 19
REMARK VINA RESULT:      -2.7     11.736     12.316
REMARK  2 active torsions:
REMARK  status: ('A' for Active; 'I' for Inactive)
REMARK    1  A    between atoms: C_2  and  C_3 
REMARK    2  A    between atoms: C_3  and  C_4 
ROOT
HETATM    1  C   LIG     1      15.958  31.428  14.840  1.00  0.00     0.026 C 
ENDROOT
BRANCH   1   2
HETATM    2  C   LIG     1      15.133  30.703  13.776  1.00  0.00     0.115 C 
HETATM    3 CL   LIG     1      15.381  28.944  13.908  1.00  0.00    -0.130 Cl
ENDBRANCH   1   2
BRANCH   1   4
HETATM    4  C   LIG     1      15.073  32.082  15.905  1.00  0.00     0.086 C 
HETATM    5 BR   LIG     1      13.562  30.955  16.366  1.00  0.00    -0.096 Br
ENDBRANCH   1   4
TORSDOF 2
ENDMDL
MODEL 20
REMARK VINA RESULT:      -2.6     11.374     12.008
REMARK  2 active torsions:
REMARK  status: ('A' for Active; 'I' for Inactive)
REMARK    1  A    between atoms: C_2  and  C_3 
REMARK    2  A    between atoms: C_3  and  C_4 
ROOT
HETATM    1  C   LIG     1      14.875  31.387  15.428  1.00  0.00     0.026 C 
ENDROOT
BRANCH   1   2
HETATM    2  C   LIG     1      15.650  32.636  15.853  1.00  0.00     0.115 C 
HETATM    3 CL   LIG     1      17.291  32.598  15.160  1.00  0.00    -0.130 Cl
ENDBRANCH   1   2
BRANCH   1   4
HETATM    4  C   LIG     1      15.282  30.906  14.033  1.00  0.00     0.086 C 
HETATM    5 BR   LIG     1      15.198  28.973  13.893  1.00  0.00    -0.096 Br
ENDBRANCH   1   4
TORSDOF 2
ENDMDL
