REMARK  0 active torsions:
REMARK  status: ('A' for Active; 'I' for Inactive)
ROOT
HETATM    1  C   LIG     1       2.159  -0.077  -0.134  1.00  0.00     0.310 C 
HETATM    2  N   LIG     1       0.729   0.066  -0.444  1.00  0.00     0.088 N 
HETATM    3  C   LIG     1       0.024  -1.213  -0.230  1.00  0.00     0.298 C 
HETATM    4  C   LIG     1      -1.504  -1.019  -0.307  1.00  0.00     0.198 C 
HETATM    5  O   LIG     1      -1.830   0.254  -0.828  1.00  0.00    -0.388 OA
HETATM    6  C   LIG     1      -1.378   1.263   0.058  1.00  0.00     0.198 C 
HETATM    7  C   LIG     1       0.125   1.123   0.385  1.00  0.00     0.298 C 
ENDROOT
TORSDOF 0
