MODEL 1
REMARK VINA RESULT:      -4.1      0.000      0.000
REMARK  0 active torsions:
REMARK  status: ('A' for Active; 'I' for Inactive)
ROOT
HETATM    1  C   LIG     1      17.426  35.052  25.115  1.00  0.00     0.087 A 
HETATM    2  C   LIG     1      18.136  34.903  26.289  1.00  0.00     0.018 A 
HETATM    3  C   LIG     1      18.416  36.178  26.742  1.00  0.00     0.018 A 
HETATM    4  C   LIG     1      17.867  37.049  25.824  1.00  0.00     0.087 A 
HETATM    5  N   LIG     1      17.266  36.359  24.838  1.00  0.00    -0.375 N 
HETATM    6  H   LIG     1      16.770  36.762  24.013  1.00  0.00     0.164 HD
ENDROOT
TORSDOF 0
ENDMDL
MODEL 2
REMARK VINA RESULT:      -4.1      0.025      1.624
REMARK  0 active torsions:
REMARK  status: ('A' for Active; 'I' for Inactive)
ROOT
HETATM    1  C   LIG     1      17.887  37.057  25.795  1.00  0.00     0.087 A 
HETATM    2  C   LIG     1      18.415  36.192  26.733  1.00  0.00     0.018 A 
HETATM    3  C   LIG     1      18.118  34.915  26.298  1.00  0.00     0.018 A 
HETATM    4  C   LIG     1      17.422  35.056  25.115  1.00  0.00     0.087 A 
HETATM    5  N   LIG     1      17.285  36.360  24.815  1.00  0.00    -0.375 N 
HETATM    6  H   LIG     1      16.802  36.756  23.979  1.00  0.00     0.164 HD
ENDROOT
TORSDOF 0
ENDMDL
MODEL 3
REMARK VINA RESULT:      -4.0      0.864      1.641
REMARK  0 active torsions:
REMARK  status: ('A' for Active; 'I' for Inactive)
ROOT
HETATM    1  C   LIG     1      18.275  36.217  26.806  1.00  0.00     0.087 A 
HETATM    2  C   LIG     1      18.206  34.937  26.295  1.00  0.00     0.018 A 
HETATM    3  C   LIG     1      17.507  35.028  25.106  1.00  0.00     0.018 A 
HETATM    4  C   LIG     1      17.181  36.358  24.945  1.00  0.00     0.087 A 
HETATM    5  N   LIG     1      17.650  37.076  25.981  1.00  0.00    -0.375 N 
HETATM    6  H   LIG     1      17.549  38.106  26.119  1.00  0.00     0.164 HD
ENDROOT
TORSDOF 0
ENDMDL
MODEL 4
REMARK VINA RESULT:      -3.5      6.018      6.521
REMARK  0 active torsions:
REMARK  status: ('A' for Active; 'I' for Inactive)
ROOT
HETATM    1  C   LIG     1      18.493  38.933  20.991  1.00  0.00     0.087 A 
HETATM    2  C   LIG     1      18.423  37.646  20.498  1.00  0.00     0.018 A 
HETATM    3  C   LIG     1      19.403  37.544  19.529  1.00  0.00     0.018 A 
HETATM    4  C   LIG     1      20.028  38.773  19.474  1.00  0.00     0.087 A 
HETATM    5  N   LIG     1      19.470  39.613  20.365  1.00  0.00    -0.375 N 
HETATM    6  H   LIG     1      19.745  40.605  20.537  1.00  0.00     0.164 HD
ENDROOT
TORSDOF 0
ENDMDL
MODEL 5
REMARK VINA RESULT:      -3.3      5.706      6.205
REMARK  0 active torsions:
REMARK  status: ('A' for Active; 'I' for Inactive)
ROOT
HETATM    1  C   LIG     1      19.176  37.240  19.554  1.00  0.00     0.087 A 
HETATM    2  C   LIG     1      19.793  38.474  19.540  1.00  0.00     0.018 A 
HETATM    3  C   LIG     1      19.202  39.219  20.543  1.00  0.00     0.018 A 
HETATM    4  C   LIG     1      18.250  38.407  21.124  1.00  0.00     0.087 A 
HETATM    5  N   LIG     1      18.239  37.205  20.519  1.00  0.00    -0.375 N 
HETATM    6  H   LIG     1      17.621  36.398  20.754  1.00  0.00     0.164 HD
ENDROOT
TORSDOF 0
ENDMDL
MODEL 6
REMARK VINA RESULT:      -3.2      6.561      7.220
REMARK  0 active torsions:
REMARK  status: ('A' for Active; 'I' for Inactive)
ROOT
HETATM    1  C   LIG     1      13.921  31.319  28.334  1.00  0.00     0.087 A 
HETATM    2  C   LIG     1      13.444  32.293  27.480  1.00  0.00     0.018 A 
HETATM    3  C   LIG     1      12.558  31.664  26.626  1.00  0.00     0.018 A 
HETATM    4  C   LIG     1      12.534  30.336  26.996  1.00  0.00     0.087 A 
HETATM    5  N   LIG     1      13.364  30.132  28.035  1.00  0.00    -0.375 N 
HETATM    6  H   LIG     1      13.542  29.224  28.517  1.00  0.00     0.164 HD
ENDROOT
TORSDOF 0
ENDMDL
MODEL 7
REMARK VINA RESULT:      -3.2      5.219      5.702
REMARK  0 active torsions:
REMARK  status: ('A' for Active; 'I' for Inactive)
ROOT
HETATM    1  C   LIG     1      17.882  36.511  20.574  1.00  0.00     0.087 A 
HETATM    2  C   LIG     1      18.827  36.850  19.627  1.00  0.00     0.018 A 
HETATM    3  C   LIG     1      19.193  38.156  19.889  1.00  0.00     0.018 A 
HETATM    4  C   LIG     1      18.456  38.556  20.984  1.00  0.00     0.087 A 
HETATM    5  N   LIG     1      17.661  37.552  21.396  1.00  0.00    -0.375 N 
HETATM    6  H   LIG     1      16.997  37.577  22.201  1.00  0.00     0.164 HD
ENDROOT
TORSDOF 0
ENDMDL
MODEL 8
REMARK VINA RESULT:      -3.2      3.033      3.972
REMARK  0 active torsions:
REMARK  status: ('A' for Active; 'I' for Inactive)
ROOT
HETATM    1  C   LIG     1      17.604  38.220  24.298  1.00  0.00     0.087 A 
HETATM    2  C   LIG     1      18.064  38.595  23.051  1.00  0.00     0.018 A 
HETATM    3  C   LIG     1      17.014  38.405  22.173  1.00  0.00     0.018 A 
HETATM    4  C   LIG     1      15.961  37.922  22.922  1.00  0.00     0.087 A 
HETATM    5  N   LIG     1      16.325  37.812  24.212  1.00  0.00    -0.375 N 
HETATM    6  H   LIG     1      15.728  37.474  24.998  1.00  0.00     0.164 HD
ENDROOT
TORSDOF 0
ENDMDL
MODEL 9
REMARK VINA RESULT:      -3.2     10.331     11.312
REMARK  0 active torsions:
REMARK  status: ('A' for Active; 'I' for Inactive)
ROOT
HETATM    1  C   LIG     1      14.011  32.351  17.077  1.00  0.00     0.087 A 
HETATM    2  C   LIG     1      14.818  31.817  16.093  1.00  0.00     0.018 A 
HETATM    3  C   LIG     1      14.109  30.773  15.530  1.00  0.00     0.018 A 
HETATM    4  C   LIG     1      12.902  30.715  16.195  1.00  0.00     0.087 A 
HETATM    5  N   LIG     1      12.848  31.677  17.134  1.00  0.00    -0.375 N 
HETATM    6  H   LIG     1      12.054  31.865  17.784  1.00  0.00     0.164 HD
ENDROOT
TORSDOF 0
ENDMDL
MODEL 10
REMARK VINA RESULT:      -3.2      4.302      4.311
REMARK  0 active torsions:
REMARK  status: ('A' for Active; 'I' for Inactive)
ROOT
HETATM    1  C   LIG     1      15.641  37.163  22.474  1.00  0.00     0.087 A 
HETATM    2  C   LIG     1      16.851  36.952  21.845  1.00  0.00     0.018 A 
HETATM    3  C   LIG     1      17.568  38.126  21.972  1.00  0.00     0.018 A 
HETATM    4  C   LIG     1      16.765  39.002  22.672  1.00  0.00     0.087 A 
HETATM    5  N   LIG     1      15.595  38.411  22.975  1.00  0.00    -0.375 N 
HETATM    6  H   LIG     1      14.801  38.840  23.499  1.00  0.00     0.164 HD
ENDROOT
TORSDOF 0
ENDMDL
MODEL 11
REMARK VINA RESULT:      -3.2      7.097      8.111
REMARK  0 active torsions:
REMARK  status: ('A' for Active; 'I' for Inactive)
ROOT
HETATM    1  C   LIG     1      14.928  32.893  17.927  1.00  0.00     0.087 A 
HETATM    2  C   LIG     1      14.567  31.676  18.471  1.00  0.00     0.018 A 
HETATM    3  C   LIG     1      14.884  31.738  19.814  1.00  0.00     0.018 A 
HETATM    4  C   LIG     1      15.424  32.988  20.032  1.00  0.00     0.087 A 
HETATM    5  N   LIG     1      15.449  33.686  18.881  1.00  0.00    -0.375 N 
HETATM    6  H   LIG     1      15.804  34.658  18.753  1.00  0.00     0.164 HD
ENDROOT
TORSDOF 0
ENDMDL
MODEL 12
REMARK VINA RESULT:      -3.1      4.442      4.814
REMARK  0 active torsions:
REMARK  status: ('A' for Active; 'I' for Inactive)
ROOT
HETATM    1  C   LIG     1      15.327  34.474  21.153  1.00  0.00     0.087 A 
HETATM    2  C   LIG     1      16.571  34.864  21.608  1.00  0.00     0.018 A 
HETATM    3  C   LIG     1      16.437  36.170  22.041  1.00  0.00     0.018 A 
HETATM    4  C   LIG     1      15.120  36.519  21.831  1.00  0.00     0.087 A 
HETATM    5  N   LIG     1      14.450  35.485  21.291  1.00  0.00    -0.375 N 
HETATM    6  H   LIG     1      13.440  35.469  21.029  1.00  0.00     0.164 HD
ENDROOT
TORSDOF 0
ENDMDL
MODEL 13
REMARK VINA RESULT:      -3.0     12.731     13.343
REMARK  0 active torsions:
REMARK  status: ('A' for Active; 'I' for Inactive)
ROOT
HETATM    1  C   LIG     1      15.304  30.103  13.959  1.00  0.00     0.087 A 
HETATM    2  C   LIG     1      14.830  30.900  14.982  1.00  0.00     0.018 A 
HETATM    3  C   LIG     1      13.571  30.426  15.295  1.00  0.00     0.018 A 
HETATM    4  C   LIG     1      13.331  29.362  14.450  1.00  0.00     0.087 A 
HETATM    5  N   LIG     1      14.388  29.171  13.640  1.00  0.00    -0.375 N 
HETATM    6  H   LIG     1      14.480  28.437  12.904  1.00  0.00     0.164 HD
ENDROOT
TORSDOF 0
ENDMDL
MODEL 14
REMARK VINA RESULT:      -3.0      4.807      5.460
REMARK  0 active torsions:
REMARK  status: ('A' for Active; 'I' for Inactive)
ROOT
HETATM    1  C   LIG     1      18.767  38.118  20.358  1.00  0.00     0.087 A 
HETATM    2  C   LIG     1      17.988  38.407  21.460  1.00  0.00     0.018 A 
HETATM    3  C   LIG     1      17.247  37.271  21.724  1.00  0.00     0.018 A 
HETATM    4  C   LIG     1      17.606  36.340  20.772  1.00  0.00     0.087 A 
HETATM    5  N   LIG     1      18.531  36.860  19.945  1.00  0.00    -0.375 N 
HETATM    6  H   LIG     1      18.980  36.378  19.136  1.00  0.00     0.164 HD
ENDROOT
TORSDOF 0
ENDMDL
MODEL 15
REMARK VINA RESULT:      -3.0      3.329      4.054
REMARK  0 active torsions:
REMARK  status: ('A' for Active; 'I' for Inactive)
ROOT
HETATM    1  C   LIG     1      16.866  35.731  23.065  1.00  0.00     0.087 A 
HETATM    2  C   LIG     1      17.068  35.133  21.837  1.00  0.00     0.018 A 
HETATM    3  C   LIG     1      17.374  36.149  20.953  1.00  0.00     0.018 A 
HETATM    4  C   LIG     1      17.345  37.322  21.679  1.00  0.00     0.087 A 
HETATM    5  N   LIG     1      17.036  37.061  22.962  1.00  0.00    -0.375 N 
HETATM    6  H   LIG     1      16.945  37.760  23.732  1.00  0.00     0.164 HD
ENDROOT
TORSDOF 0
ENDMDL
MODEL 16
REMARK VINA RESULT:      -3.0      4.072      4.718
REMARK  0 active torsions:
REMARK  status: ('A' for Active; 'I' for Inactive)
ROOT
HETATM    1  C   LIG     1      16.411  37.705  22.674  1.00  0.00     0.087 A 
HETATM    2  C   LIG     1      16.933  38.981  22.608  1.00  0.00     0.018 A 
HETATM    3  C   LIG     1      17.922  38.950  21.644  1.00  0.00     0.018 A 
HETATM    4  C   LIG     1      17.961  37.657  21.164  1.00  0.00     0.087 A 
HETATM    5  N   LIG     1      17.040  36.905  21.794  1.00  0.00    -0.375 N 
HETATM    6  H   LIG     1      16.849  35.892  21.631  1.00  0.00     0.164 HD
ENDROOT
TORSDOF 0
ENDMDL
MODEL 17
REMARK VINA RESULT:      -3.0      1.731      2.487
REMARK  0 active torsions:
REMARK  status: ('A' for Active; 'I' for Inactive)
ROOT
HETATM    1  C   LIG     1      17.044  37.038  23.232  1.00  0.00     0.087 A 
HETATM    2  C   LIG     1      17.263  38.127  24.051  1.00  0.00     0.018 A 
HETATM    3  C   LIG     1      17.540  37.623  25.307  1.00  0.00     0.018 A 
HETATM    4  C   LIG     1      17.478  36.250  25.200  1.00  0.00     0.087 A 
HETATM    5  N   LIG     1      17.176  35.900  23.937  1.00  0.00    -0.375 N 
HETATM    6  H   LIG     1      17.065  34.929  23.572  1.00  0.00     0.164 HD
ENDROOT
TORSDOF 0
ENDMDL
MODEL 18
REMARK VINA RESULT:      -2.8     11.656     12.665
REMARK  0 active torsions:
REMARK  status: ('A' for Active; 'I' for Inactive)
ROOT
HETATM    1  C   LIG     1      14.707  31.479  15.664  1.00  0.00     0.087 A 
HETATM    2  C   LIG     1      13.736  30.512  15.498  1.00  0.00     0.018 A 
HETATM    3  C   LIG     1      14.077  29.805  14.361  1.00  0.00     0.018 A 
HETATM    4  C   LIG     1      15.241  30.371  13.883  1.00  0.00     0.087 A 
HETATM    5  N   LIG     1      15.619  31.387  14.679  1.00  0.00    -0.375 N 
HETATM    6  H   LIG     1      16.461  31.991  14.556  1.00  0.00     0.164 HD
ENDROOT
TORSDOF 0
ENDMDL
MODEL 19
REMARK VINA RESULT:      -2.8      9.600     10.606
REMARK  0 active torsions:
REMARK  status: ('A' for Active; 'I' for Inactive)
ROOT
HETATM    1  C   LIG     1      15.616  32.169  15.611  1.00  0.00     0.087 A 
HETATM    2  C   LIG     1      14.549  31.294  15.621  1.00  0.00     0.018 A 
HETATM    3  C   LIG     1      13.939  31.435  16.853  1.00  0.00     0.018 A 
HETATM    4  C   LIG     1      14.659  32.390  17.539  1.00  0.00     0.087 A 
HETATM    5  N   LIG     1      15.678  32.832  16.780  1.00  0.00    -0.375 N 
HETATM    6  H   LIG     1      16.382  33.554  17.047  1.00  0.00     0.164 HD
ENDROOT
TORSDOF 0
ENDMDL
MODEL 20
REMARK VINA RESULT:      -2.8     11.618     12.184
REMARK  0 active torsions:
REMARK  status: ('A' for Active; 'I' for Inactive)
ROOT
HETATM    1  C   LIG     1      15.957  31.936  14.207  1.00  0.00     0.087 A 
HETATM    2  C   LIG     1      16.753  32.391  15.239  1.00  0.00     0.018 A 
HETATM    3  C   LIG     1      17.687  33.234  14.670  1.00  0.00     0.018 A 
HETATM    4  C   LIG     1      17.422  33.257  13.316  1.00  0.00     0.087 A 
HETATM    5  N   LIG     1      16.368  32.466  13.041  1.00  0.00    -0.375 N 
HETATM    6  H   LIG     1      15.950  32.296  12.101  1.00  0.00     0.164 HD
ENDROOT
TORSDOF 0
ENDMDL
