REMARK  0 active torsions:
REMARK  status: ('A' for Active; 'I' for Inactive)
ROOT
HETATM    1  C   LIG     1       0.574   0.861   0.236  1.00  0.00     0.028 C 
HETATM    2  C   LIG     1      -0.882   0.590   0.035  1.00  0.00     0.028 C 
HETATM    3  C   LIG     1      -0.952  -0.923   0.061  1.00  0.00     0.167 C 
HETATM    4  O   LIG     1       0.309  -1.457  -0.272  1.00  0.00    -0.391 OA
HETATM    5  C   LIG     1       1.231  -0.391  -0.306  1.00  0.00     0.167 C 
ENDROOT
TORSDOF 0
