REMARK  2 active torsions:
REMARK  status: ('A' for Active; 'I' for Inactive)
REMARK    1  A    between atoms: O_2  and  C_3 
REMARK    2  A    between atoms: C_3  and  O_4 
ROOT
HETATM    1  C   LIG     1      -0.002   0.006   0.017  1.00  0.00     0.336 C 
ENDROOT
BRANCH   1   2
HETATM    2  O   LIG     1      -1.141  -0.165   0.832  1.00  0.00    -0.372 OA
HETATM    3  C   LIG     1      -2.241  -0.537   0.032  1.00  0.00     0.204 C 
ENDBRANCH   1   2
BRANCH   1   4
HETATM    4  O   LIG     1       1.081   0.376   0.843  1.00  0.00    -0.372 OA
HETATM    5  C   LIG     1       2.236   0.555   0.054  1.00  0.00     0.204 C 
ENDBRANCH   1   4
TORSDOF 2
