MODEL 1
REMARK VINA RESULT:      -3.6      0.000      0.000
REMARK  2 active torsions:
REMARK  status: ('A' for Active; 'I' for Inactive)
REMARK    1  A    between atoms: C_1  and  O_2 
REMARK    2  A    between atoms: O_2  and  C_3 
ROOT
HETATM    1  O   LIG     1      17.513  37.449  25.979  1.00  0.00    -0.329 OA
ENDROOT
BRANCH   1   2
HETATM    2  C   LIG     1      17.079  37.388  24.653  1.00  0.00     0.398 C 
HETATM    3  O   LIG     1      16.029  37.979  24.284  1.00  0.00    -0.276 OA
ENDBRANCH   1   2
BRANCH   1   4
HETATM    4  C   LIG     1      18.353  36.454  26.556  1.00  0.00     0.173 C 
HETATM    5  C   LIG     1      17.869  35.074  26.141  1.00  0.00     0.034 C 
ENDBRANCH   1   4
TORSDOF 2
ENDMDL
MODEL 2
REMARK VINA RESULT:      -3.3      1.347      1.944
REMARK  2 active torsions:
REMARK  status: ('A' for Active; 'I' for Inactive)
REMARK    1  A    between atoms: C_1  and  O_2 
REMARK    2  A    between atoms: O_2  and  C_3 
ROOT
HETATM    1  O   LIG     1      16.286  37.778  24.604  1.00  0.00    -0.329 OA
ENDROOT
BRANCH   1   2
HETATM    2  C   LIG     1      16.235  37.957  23.221  1.00  0.00     0.398 C 
HETATM    3  O   LIG     1      15.968  39.082  22.719  1.00  0.00    -0.276 OA
ENDBRANCH   1   2
BRANCH   1   4
HETATM    4  C   LIG     1      17.415  38.159  25.385  1.00  0.00     0.173 C 
HETATM    5  C   LIG     1      18.077  36.918  25.964  1.00  0.00     0.034 C 
ENDBRANCH   1   4
TORSDOF 2
ENDMDL
MODEL 3
REMARK VINA RESULT:      -3.2      1.903      3.103
REMARK  2 active torsions:
REMARK  status: ('A' for Active; 'I' for Inactive)
REMARK    1  A    between atoms: C_1  and  O_2 
REMARK    2  A    between atoms: O_2  and  C_3 
ROOT
HETATM    1  O   LIG     1      16.072  37.994  24.334  1.00  0.00    -0.329 OA
ENDROOT
BRANCH   1   2
HETATM    2  C   LIG     1      17.305  38.126  24.974  1.00  0.00     0.398 C 
HETATM    3  O   LIG     1      17.561  37.490  26.032  1.00  0.00    -0.276 OA
ENDBRANCH   1   2
BRANCH   1   4
HETATM    4  C   LIG     1      15.958  37.752  22.934  1.00  0.00     0.173 C 
HETATM    5  C   LIG     1      16.815  36.554  22.553  1.00  0.00     0.034 C 
ENDBRANCH   1   4
TORSDOF 2
ENDMDL
MODEL 4
REMARK VINA RESULT:      -3.1      8.437      8.954
REMARK  2 active torsions:
REMARK  status: ('A' for Active; 'I' for Inactive)
REMARK    1  A    between atoms: C_1  and  O_2 
REMARK    2  A    between atoms: O_2  and  C_3 
ROOT
HETATM    1  O   LIG     1      15.516  32.748  17.510  1.00  0.00    -0.329 OA
ENDROOT
BRANCH   1   2
HETATM    2  C   LIG     1      15.100  33.930  16.895  1.00  0.00     0.398 C 
HETATM    3  O   LIG     1      15.926  34.692  16.324  1.00  0.00    -0.276 OA
ENDBRANCH   1   2
BRANCH   1   4
HETATM    4  C   LIG     1      14.728  32.076  18.490  1.00  0.00     0.173 C 
HETATM    5  C   LIG     1      15.507  31.982  19.793  1.00  0.00     0.034 C 
ENDBRANCH   1   4
TORSDOF 2
ENDMDL
MODEL 5
REMARK VINA RESULT:      -3.0      2.510      3.514
REMARK  2 active torsions:
REMARK  status: ('A' for Active; 'I' for Inactive)
REMARK    1  A    between atoms: C_1  and  O_2 
REMARK    2  A    between atoms: O_2  and  C_3 
ROOT
HETATM    1  O   LIG     1      16.966  37.550  22.213  1.00  0.00    -0.329 OA
ENDROOT
BRANCH   1   2
HETATM    2  C   LIG     1      16.855  37.385  23.595  1.00  0.00     0.398 C 
HETATM    3  O   LIG     1      15.999  38.027  24.261  1.00  0.00    -0.276 OA
ENDBRANCH   1   2
BRANCH   1   4
HETATM    4  C   LIG     1      17.203  36.459  21.328  1.00  0.00     0.173 C 
HETATM    5  C   LIG     1      16.975  35.147  22.063  1.00  0.00     0.034 C 
ENDBRANCH   1   4
TORSDOF 2
ENDMDL
MODEL 6
REMARK VINA RESULT:      -2.9      1.835      3.147
REMARK  2 active torsions:
REMARK  status: ('A' for Active; 'I' for Inactive)
REMARK    1  A    between atoms: C_1  and  O_2 
REMARK    2  A    between atoms: O_2  and  C_3 
ROOT
HETATM    1  O   LIG     1      17.490  35.668  24.592  1.00  0.00    -0.329 OA
ENDROOT
BRANCH   1   2
HETATM    2  C   LIG     1      17.436  34.973  25.801  1.00  0.00     0.398 C 
HETATM    3  O   LIG     1      18.489  34.659  26.420  1.00  0.00    -0.276 OA
ENDBRANCH   1   2
BRANCH   1   4
HETATM    4  C   LIG     1      16.918  36.963  24.426  1.00  0.00     0.173 C 
HETATM    5  C   LIG     1      17.497  37.913  25.463  1.00  0.00     0.034 C 
ENDBRANCH   1   4
TORSDOF 2
ENDMDL
MODEL 7
REMARK VINA RESULT:      -2.9      9.119      9.798
REMARK  2 active torsions:
REMARK  status: ('A' for Active; 'I' for Inactive)
REMARK    1  A    between atoms: C_1  and  O_2 
REMARK    2  A    between atoms: O_2  and  C_3 
ROOT
HETATM    1  O   LIG     1      14.145  31.316  18.519  1.00  0.00    -0.329 OA
ENDROOT
BRANCH   1   2
HETATM    2  C   LIG     1      15.011  31.911  19.439  1.00  0.00     0.398 C 
HETATM    3  O   LIG     1      15.568  33.014  19.191  1.00  0.00    -0.276 OA
ENDBRANCH   1   2
BRANCH   1   4
HETATM    4  C   LIG     1      13.887  31.879  17.236  1.00  0.00     0.173 C 
HETATM    5  C   LIG     1      13.232  30.836  16.344  1.00  0.00     0.034 C 
ENDBRANCH   1   4
TORSDOF 2
ENDMDL
MODEL 8
REMARK VINA RESULT:      -2.9      9.676     10.386
REMARK  2 active torsions:
REMARK  status: ('A' for Active; 'I' for Inactive)
REMARK    1  A    between atoms: C_1  and  O_2 
REMARK    2  A    between atoms: O_2  and  C_3 
ROOT
HETATM    1  O   LIG     1      14.744  32.643  16.473  1.00  0.00    -0.329 OA
ENDROOT
BRANCH   1   2
HETATM    2  C   LIG     1      15.023  33.947  16.884  1.00  0.00     0.398 C 
HETATM    3  O   LIG     1      15.938  34.621  16.337  1.00  0.00    -0.276 OA
ENDBRANCH   1   2
BRANCH   1   4
HETATM    4  C   LIG     1      13.880  31.778  17.204  1.00  0.00     0.173 C 
HETATM    5  C   LIG     1      13.159  30.845  16.243  1.00  0.00     0.034 C 
ENDBRANCH   1   4
TORSDOF 2
ENDMDL
MODEL 9
REMARK VINA RESULT:      -2.8      8.581      9.109
REMARK  2 active torsions:
REMARK  status: ('A' for Active; 'I' for Inactive)
REMARK    1  A    between atoms: C_1  and  O_2 
REMARK    2  A    between atoms: O_2  and  C_3 
ROOT
HETATM    1  O   LIG     1      14.145  31.158  18.782  1.00  0.00    -0.329 OA
ENDROOT
BRANCH   1   2
HETATM    2  C   LIG     1      14.219  31.952  17.637  1.00  0.00     0.398 C 
HETATM    3  O   LIG     1      13.187  32.226  16.967  1.00  0.00    -0.276 OA
ENDBRANCH   1   2
BRANCH   1   4
HETATM    4  C   LIG     1      14.920  31.421  19.948  1.00  0.00     0.173 C 
HETATM    5  C   LIG     1      15.424  32.856  19.913  1.00  0.00     0.034 C 
ENDBRANCH   1   4
TORSDOF 2
ENDMDL
MODEL 10
REMARK VINA RESULT:      -2.8     13.100     13.358
REMARK  2 active torsions:
REMARK  status: ('A' for Active; 'I' for Inactive)
REMARK    1  A    between atoms: C_1  and  O_2 
REMARK    2  A    between atoms: O_2  and  C_3 
ROOT
HETATM    1  O   LIG     1      19.312  34.430  13.074  1.00  0.00    -0.329 OA
ENDROOT
BRANCH   1   2
HETATM    2  C   LIG     1      17.975  34.229  12.726  1.00  0.00     0.398 C 
HETATM    3  O   LIG     1      17.246  35.189  12.360  1.00  0.00    -0.276 OA
ENDBRANCH   1   2
BRANCH   1   4
HETATM    4  C   LIG     1      20.388  34.111  12.197  1.00  0.00     0.173 C 
HETATM    5  C   LIG     1      21.697  34.603  12.795  1.00  0.00     0.034 C 
ENDBRANCH   1   4
TORSDOF 2
ENDMDL
MODEL 11
REMARK VINA RESULT:      -2.8      2.513      3.990
REMARK  2 active torsions:
REMARK  status: ('A' for Active; 'I' for Inactive)
REMARK    1  A    between atoms: C_1  and  O_2 
REMARK    2  A    between atoms: O_2  and  C_3 
ROOT
HETATM    1  O   LIG     1      17.195  37.535  22.400  1.00  0.00    -0.329 OA
ENDROOT
BRANCH   1   2
HETATM    2  C   LIG     1      17.250  37.742  23.780  1.00  0.00     0.398 C 
HETATM    3  O   LIG     1      16.201  37.931  24.452  1.00  0.00    -0.276 OA
ENDBRANCH   1   2
BRANCH   1   4
HETATM    4  C   LIG     1      17.653  38.503  21.461  1.00  0.00     0.173 C 
HETATM    5  C   LIG     1      18.938  39.138  21.969  1.00  0.00     0.034 C 
ENDBRANCH   1   4
TORSDOF 2
ENDMDL
MODEL 12
REMARK VINA RESULT:      -2.7      9.910     10.615
REMARK  2 active torsions:
REMARK  status: ('A' for Active; 'I' for Inactive)
REMARK    1  A    between atoms: C_1  and  O_2 
REMARK    2  A    between atoms: O_2  and  C_3 
ROOT
HETATM    1  O   LIG     1      16.091  32.584  16.619  1.00  0.00    -0.329 OA
ENDROOT
BRANCH   1   2
HETATM    2  C   LIG     1      15.033  33.454  16.888  1.00  0.00     0.398 C 
HETATM    3  O   LIG     1      15.097  34.674  16.577  1.00  0.00    -0.276 OA
ENDBRANCH   1   2
BRANCH   1   4
HETATM    4  C   LIG     1      16.614  32.398  15.307  1.00  0.00     0.173 C 
HETATM    5  C   LIG     1      15.681  31.501  14.508  1.00  0.00     0.034 C 
ENDBRANCH   1   4
TORSDOF 2
ENDMDL
MODEL 13
REMARK VINA RESULT:      -2.7     11.904     12.522
REMARK  2 active torsions:
REMARK  status: ('A' for Active; 'I' for Inactive)
REMARK    1  A    between atoms: C_1  and  O_2 
REMARK    2  A    between atoms: O_2  and  C_3 
ROOT
HETATM    1  O   LIG     1      16.557  31.199  14.527  1.00  0.00    -0.329 OA
ENDROOT
BRANCH   1   2
HETATM    2  C   LIG     1      16.665  32.393  15.242  1.00  0.00     0.398 C 
HETATM    3  O   LIG     1      17.765  33.003  15.329  1.00  0.00    -0.276 OA
ENDBRANCH   1   2
BRANCH   1   4
HETATM    4  C   LIG     1      15.401  30.864  13.765  1.00  0.00     0.173 C 
HETATM    5  C   LIG     1      15.045  29.403  13.993  1.00  0.00     0.034 C 
ENDBRANCH   1   4
TORSDOF 2
ENDMDL
MODEL 14
REMARK VINA RESULT:      -2.6      5.750      6.414
REMARK  2 active torsions:
REMARK  status: ('A' for Active; 'I' for Inactive)
REMARK    1  A    between atoms: C_1  and  O_2 
REMARK    2  A    between atoms: O_2  and  C_3 
ROOT
HETATM    1  O   LIG     1      16.073  34.154  20.058  1.00  0.00    -0.329 OA
ENDROOT
BRANCH   1   2
HETATM    2  C   LIG     1      15.319  32.979  20.075  1.00  0.00     0.398 C 
HETATM    3  O   LIG     1      15.824  31.876  19.733  1.00  0.00    -0.276 OA
ENDBRANCH   1   2
BRANCH   1   4
HETATM    4  C   LIG     1      15.872  35.207  20.997  1.00  0.00     0.173 C 
HETATM    5  C   LIG     1      16.976  35.176  22.042  1.00  0.00     0.034 C 
ENDBRANCH   1   4
TORSDOF 2
ENDMDL
MODEL 15
REMARK VINA RESULT:      -2.6     10.153     10.724
REMARK  2 active torsions:
REMARK  status: ('A' for Active; 'I' for Inactive)
REMARK    1  A    between atoms: C_1  and  O_2 
REMARK    2  A    between atoms: O_2  and  C_3 
ROOT
HETATM    1  O   LIG     1      15.704  33.446  15.695  1.00  0.00    -0.329 OA
ENDROOT
BRANCH   1   2
HETATM    2  C   LIG     1      16.473  32.345  15.314  1.00  0.00     0.398 C 
HETATM    3  O   LIG     1      17.733  32.397  15.319  1.00  0.00    -0.276 OA
ENDBRANCH   1   2
BRANCH   1   4
HETATM    4  C   LIG     1      14.852  33.427  16.837  1.00  0.00     0.173 C 
HETATM    5  C   LIG     1      14.207  32.056  16.969  1.00  0.00     0.034 C 
ENDBRANCH   1   4
TORSDOF 2
ENDMDL
MODEL 16
REMARK VINA RESULT:      -2.6     11.511     12.167
REMARK  2 active torsions:
REMARK  status: ('A' for Active; 'I' for Inactive)
REMARK    1  A    between atoms: C_1  and  O_2 
REMARK    2  A    between atoms: O_2  and  C_3 
ROOT
HETATM    1  O   LIG     1      14.474  31.219  15.813  1.00  0.00    -0.329 OA
ENDROOT
BRANCH   1   2
HETATM    2  C   LIG     1      13.758  31.528  16.971  1.00  0.00     0.398 C 
HETATM    3  O   LIG     1      12.497  31.522  16.978  1.00  0.00    -0.276 OA
ENDBRANCH   1   2
BRANCH   1   4
HETATM    4  C   LIG     1      14.036  30.235  14.881  1.00  0.00     0.173 C 
HETATM    5  C   LIG     1      15.172  29.891  13.930  1.00  0.00     0.034 C 
ENDBRANCH   1   4
TORSDOF 2
ENDMDL
MODEL 17
REMARK VINA RESULT:      -2.6     12.285     12.913
REMARK  2 active torsions:
REMARK  status: ('A' for Active; 'I' for Inactive)
REMARK    1  A    between atoms: C_1  and  O_2 
REMARK    2  A    between atoms: O_2  and  C_3 
ROOT
HETATM    1  O   LIG     1      14.930  31.131  14.700  1.00  0.00    -0.329 OA
ENDROOT
BRANCH   1   2
HETATM    2  C   LIG     1      15.533  31.150  13.441  1.00  0.00     0.398 C 
HETATM    3  O   LIG     1      16.566  31.839  13.225  1.00  0.00    -0.276 OA
ENDBRANCH   1   2
BRANCH   1   4
HETATM    4  C   LIG     1      13.879  30.228  15.032  1.00  0.00     0.173 C 
HETATM    5  C   LIG     1      13.042  30.811  16.160  1.00  0.00     0.034 C 
ENDBRANCH   1   4
TORSDOF 2
ENDMDL
MODEL 18
REMARK VINA RESULT:      -2.6      3.719      4.658
REMARK  2 active torsions:
REMARK  status: ('A' for Active; 'I' for Inactive)
REMARK    1  A    between atoms: C_1  and  O_2 
REMARK    2  A    between atoms: O_2  and  C_3 
ROOT
HETATM    1  O   LIG     1      17.131  36.443  22.130  1.00  0.00    -0.329 OA
ENDROOT
BRANCH   1   2
HETATM    2  C   LIG     1      17.487  36.246  20.794  1.00  0.00     0.398 C 
HETATM    3  O   LIG     1      16.805  35.499  20.042  1.00  0.00    -0.276 OA
ENDBRANCH   1   2
BRANCH   1   4
HETATM    4  C   LIG     1      16.668  37.697  22.621  1.00  0.00     0.173 C 
HETATM    5  C   LIG     1      17.463  38.823  21.978  1.00  0.00     0.034 C 
ENDBRANCH   1   4
TORSDOF 2
ENDMDL
MODEL 19
REMARK VINA RESULT:      -2.4     16.045     16.299
REMARK  2 active torsions:
REMARK  status: ('A' for Active; 'I' for Inactive)
REMARK    1  A    between atoms: C_1  and  O_2 
REMARK    2  A    between atoms: O_2  and  C_3 
ROOT
HETATM    1  O   LIG     1       4.480  40.862  34.353  1.00  0.00    -0.329 OA
ENDROOT
BRANCH   1   2
HETATM    2  C   LIG     1       4.840  40.802  35.700  1.00  0.00     0.398 C 
HETATM    3  O   LIG     1       5.988  40.416  36.051  1.00  0.00    -0.276 OA
ENDBRANCH   1   2
BRANCH   1   4
HETATM    4  C   LIG     1       3.744  39.825  33.710  1.00  0.00     0.173 C 
HETATM    5  C   LIG     1       3.450  40.224  32.272  1.00  0.00     0.034 C 
ENDBRANCH   1   4
TORSDOF 2
ENDMDL
MODEL 20
REMARK VINA RESULT:      -2.3      9.649     10.232
REMARK  2 active torsions:
REMARK  status: ('A' for Active; 'I' for Inactive)
REMARK    1  A    between atoms: C_1  and  O_2 
REMARK    2  A    between atoms: O_2  and  C_3 
ROOT
HETATM    1  O   LIG     1      15.038  32.724  17.726  1.00  0.00    -0.329 OA
ENDROOT
BRANCH   1   2
HETATM    2  C   LIG     1      14.142  31.657  17.806  1.00  0.00     0.398 C 
HETATM    3  O   LIG     1      13.038  31.685  17.197  1.00  0.00    -0.276 OA
ENDBRANCH   1   2
BRANCH   1   4
HETATM    4  C   LIG     1      15.260  33.449  16.519  1.00  0.00     0.173 C 
HETATM    5  C   LIG     1      16.131  32.626  15.583  1.00  0.00     0.034 C 
ENDBRANCH   1   4
TORSDOF 2
ENDMDL
