REMARK  2 active torsions:
REMARK  status: ('A' for Active; 'I' for Inactive)
REMARK    1  A    between atoms: C_2  and  O_3 
REMARK    2  A    between atoms: O_3  and  C_4 
ROOT
HETATM    1  O   LIG     1       0.306  -0.508  -0.025  1.00  0.00    -0.364 OA
ENDROOT
BRANCH   1   2
HETATM    2  C   LIG     1      -0.967  -0.114  -0.531  1.00  0.00     0.169 C 
HETATM    3  C   LIG     1      -1.981  -0.086   0.602  1.00  0.00     0.034 C 
ENDBRANCH   1   2
BRANCH   1   4
HETATM    4  C   LIG     1       1.436   0.305  -0.123  1.00  0.00     0.124 C 
HETATM    5  C   LIG     1       2.595  -0.113   0.368  1.00  0.00     0.037 C 
ENDBRANCH   1   4
TORSDOF 2
