REMARK  3 active torsions:
REMARK  status: ('A' for Active; 'I' for Inactive)
REMARK    1  A    between atoms: C_2  and  C_3 
REMARK    2  A    between atoms: C_3  and  C_4 
REMARK    3  A    between atoms: C_4  and  S_5 
ROOT
HETATM    1  C   LIG     1       0.345   0.011   0.385  1.00  0.00     0.009 C 
ENDROOT
BRANCH   1   2
HETATM    2  C   LIG     1      -0.859  -0.157  -0.549  1.00  0.00    -0.004 C 
HETATM    3  C   LIG     1      -2.115   0.466   0.054  1.00  0.00     0.005 C 
ENDBRANCH   1   2
BRANCH   1   4
HETATM    4  C   LIG     1       1.602  -0.614  -0.222  1.00  0.00     0.070 C 
BRANCH   4   5
HETATM    5  S   LIG     1       3.015  -0.425   0.909  1.00  0.00    -0.182 SA
HETATM    6  H   LIG     1       3.064   0.972   0.742  1.00  0.00     0.101 HD
ENDBRANCH   4   5
ENDBRANCH   1   4
TORSDOF 3
