MODEL 1
REMARK VINA RESULT:      -4.7      0.000      0.000
REMARK  3 active torsions:
REMARK  status: ('A' for Active; 'I' for Inactive)
REMARK    1  A    between atoms: C_2  and  O_3 
REMARK    2  A    between atoms: O_3  and  C_4 
REMARK    3  A    between atoms: C_4  and  C_5 
ROOT
HETATM    1  O   LIG     1      17.512  37.068  24.436  1.00  0.00    -0.322 OA
ENDROOT
BRANCH   1   2
HETATM    2  C   LIG     1      16.711  37.774  23.532  1.00  0.00     0.254 C 
HETATM    3  C   LIG     1      17.271  38.179  22.211  1.00  0.00     0.126 C 
HETATM    4  O   LIG     1      15.518  38.069  23.818  1.00  0.00    -0.266 OA
ENDBRANCH   1   2
BRANCH   1   5
HETATM    5  C   LIG     1      17.608  37.394  25.822  1.00  0.00     0.178 C 
BRANCH   5   6
HETATM    6  C   LIG     1      18.423  36.341  26.584  1.00  0.00     0.022 C 
HETATM    7  C   LIG     1      18.018  34.921  26.198  1.00  0.00     0.007 C 
ENDBRANCH   5   6
ENDBRANCH   1   5
TORSDOF 3
ENDMDL
MODEL 2
REMARK VINA RESULT:      -4.3      1.567      3.472
REMARK  3 active torsions:
REMARK  status: ('A' for Active; 'I' for Inactive)
REMARK    1  A    between atoms: C_2  and  O_3 
REMARK    2  A    between atoms: O_3  and  C_4 
REMARK    3  A    between atoms: C_4  and  C_5 
ROOT
HETATM    1  O   LIG     1      17.235  36.778  24.122  1.00  0.00    -0.322 OA
ENDROOT
BRANCH   1   2
HETATM    2  C   LIG     1      17.534  37.430  25.323  1.00  0.00     0.254 C 
HETATM    3  C   LIG     1      18.358  36.734  26.353  1.00  0.00     0.126 C 
HETATM    4  O   LIG     1      17.120  38.600  25.545  1.00  0.00    -0.266 OA
ENDBRANCH   1   2
BRANCH   1   5
HETATM    5  C   LIG     1      16.622  37.427  23.007  1.00  0.00     0.178 C 
BRANCH   5   6
HETATM    6  C   LIG     1      16.808  36.613  21.720  1.00  0.00     0.022 C 
HETATM    7  C   LIG     1      16.990  35.125  22.011  1.00  0.00     0.007 C 
ENDBRANCH   5   6
ENDBRANCH   1   5
TORSDOF 3
ENDMDL
MODEL 3
REMARK VINA RESULT:      -4.1      2.635      4.205
REMARK  3 active torsions:
REMARK  status: ('A' for Active; 'I' for Inactive)
REMARK    1  A    between atoms: C_2  and  O_3 
REMARK    2  A    between atoms: O_3  and  C_4 
REMARK    3  A    between atoms: C_4  and  C_5 
ROOT
HETATM    1  O   LIG     1      16.996  38.765  22.164  1.00  0.00    -0.322 OA
ENDROOT
BRANCH   1   2
HETATM    2  C   LIG     1      16.518  37.754  23.005  1.00  0.00     0.254 C 
HETATM    3  C   LIG     1      16.809  36.327  22.681  1.00  0.00     0.126 C 
HETATM    4  O   LIG     1      15.848  38.033  24.036  1.00  0.00    -0.266 OA
ENDBRANCH   1   2
BRANCH   1   5
HETATM    5  C   LIG     1      18.375  39.118  22.065  1.00  0.00     0.178 C 
BRANCH   5   6
HETATM    6  C   LIG     1      18.810  39.251  20.600  1.00  0.00     0.022 C 
HETATM    7  C   LIG     1      18.963  37.890  19.926  1.00  0.00     0.007 C 
ENDBRANCH   5   6
ENDBRANCH   1   5
TORSDOF 3
ENDMDL
MODEL 4
REMARK VINA RESULT:      -4.1      1.332      3.968
REMARK  3 active torsions:
REMARK  status: ('A' for Active; 'I' for Inactive)
REMARK    1  A    between atoms: C_2  and  O_3 
REMARK    2  A    between atoms: O_3  and  C_4 
REMARK    3  A    between atoms: C_4  and  C_5 
ROOT
HETATM    1  O   LIG     1      17.241  36.146  24.318  1.00  0.00    -0.322 OA
ENDROOT
BRANCH   1   2
HETATM    2  C   LIG     1      17.580  35.740  25.613  1.00  0.00     0.254 C 
HETATM    3  C   LIG     1      18.456  36.608  26.451  1.00  0.00     0.126 C 
HETATM    4  O   LIG     1      17.149  34.652  26.084  1.00  0.00    -0.266 OA
ENDBRANCH   1   2
BRANCH   1   5
HETATM    5  C   LIG     1      16.903  37.490  23.978  1.00  0.00     0.178 C 
BRANCH   5   6
HETATM    6  C   LIG     1      16.827  37.676  22.457  1.00  0.00     0.022 C 
HETATM    7  C   LIG     1      17.653  38.872  21.990  1.00  0.00     0.007 C 
ENDBRANCH   5   6
ENDBRANCH   1   5
TORSDOF 3
ENDMDL
MODEL 5
REMARK VINA RESULT:      -4.0      8.193      9.346
REMARK  3 active torsions:
REMARK  status: ('A' for Active; 'I' for Inactive)
REMARK    1  A    between atoms: C_2  and  O_3 
REMARK    2  A    between atoms: O_3  and  C_4 
REMARK    3  A    between atoms: C_4  and  C_5 
ROOT
HETATM    1  O   LIG     1      15.540  32.509  17.942  1.00  0.00    -0.322 OA
ENDROOT
BRANCH   1   2
HETATM    2  C   LIG     1      15.429  32.490  19.337  1.00  0.00     0.254 C 
HETATM    3  C   LIG     1      14.824  31.305  20.011  1.00  0.00     0.126 C 
HETATM    4  O   LIG     1      15.839  33.458  20.033  1.00  0.00    -0.266 OA
ENDBRANCH   1   2
BRANCH   1   5
HETATM    5  C   LIG     1      14.418  32.617  17.066  1.00  0.00     0.178 C 
BRANCH   5   6
HETATM    6  C   LIG     1      14.344  31.419  16.110  1.00  0.00     0.022 C 
HETATM    7  C   LIG     1      12.986  30.725  16.175  1.00  0.00     0.007 C 
ENDBRANCH   5   6
ENDBRANCH   1   5
TORSDOF 3
ENDMDL
MODEL 6
REMARK VINA RESULT:      -3.8     10.601     11.808
REMARK  3 active torsions:
REMARK  status: ('A' for Active; 'I' for Inactive)
REMARK    1  A    between atoms: C_2  and  O_3 
REMARK    2  A    between atoms: O_3  and  C_4 
REMARK    3  A    between atoms: C_4  and  C_5 
ROOT
HETATM    1  O   LIG     1      16.530  31.148  14.539  1.00  0.00    -0.322 OA
ENDROOT
BRANCH   1   2
HETATM    2  C   LIG     1      16.729  32.319  15.279  1.00  0.00     0.254 C 
HETATM    3  C   LIG     1      15.612  32.869  16.100  1.00  0.00     0.126 C 
HETATM    4  O   LIG     1      17.842  32.912  15.266  1.00  0.00    -0.266 OA
ENDBRANCH   1   2
BRANCH   1   5
HETATM    5  C   LIG     1      15.365  30.903  13.752  1.00  0.00     0.178 C 
BRANCH   5   6
HETATM    6  C   LIG     1      14.568  29.711  14.296  1.00  0.00     0.022 C 
HETATM    7  C   LIG     1      13.340  30.162  15.084  1.00  0.00     0.007 C 
ENDBRANCH   5   6
ENDBRANCH   1   5
TORSDOF 3
ENDMDL
MODEL 7
REMARK VINA RESULT:      -3.8      8.497      9.777
REMARK  3 active torsions:
REMARK  status: ('A' for Active; 'I' for Inactive)
REMARK    1  A    between atoms: C_2  and  O_3 
REMARK    2  A    between atoms: O_3  and  C_4 
REMARK    3  A    between atoms: C_4  and  C_5 
ROOT
HETATM    1  O   LIG     1      15.414  32.891  17.853  1.00  0.00    -0.322 OA
ENDROOT
BRANCH   1   2
HETATM    2  C   LIG     1      14.637  31.904  18.469  1.00  0.00     0.254 C 
HETATM    3  C   LIG     1      14.915  31.525  19.884  1.00  0.00     0.126 C 
HETATM    4  O   LIG     1      13.701  31.334  17.845  1.00  0.00    -0.266 OA
ENDBRANCH   1   2
BRANCH   1   5
HETATM    5  C   LIG     1      15.279  33.253  16.478  1.00  0.00     0.178 C 
BRANCH   5   6
HETATM    6  C   LIG     1      16.251  32.458  15.597  1.00  0.00     0.022 C 
HETATM    7  C   LIG     1      15.526  31.418  14.747  1.00  0.00     0.007 C 
ENDBRANCH   5   6
ENDBRANCH   1   5
TORSDOF 3
ENDMDL
MODEL 8
REMARK VINA RESULT:      -3.7      9.031      9.919
REMARK  3 active torsions:
REMARK  status: ('A' for Active; 'I' for Inactive)
REMARK    1  A    between atoms: C_2  and  O_3 
REMARK    2  A    between atoms: O_3  and  C_4 
REMARK    3  A    between atoms: C_4  and  C_5 
ROOT
HETATM    1  O   LIG     1      15.839  32.376  17.140  1.00  0.00    -0.322 OA
ENDROOT
BRANCH   1   2
HETATM    2  C   LIG     1      16.031  33.190  16.018  1.00  0.00     0.254 C 
HETATM    3  C   LIG     1      16.313  32.564  14.694  1.00  0.00     0.126 C 
HETATM    4  O   LIG     1      15.962  34.446  16.109  1.00  0.00    -0.266 OA
ENDBRANCH   1   2
BRANCH   1   5
HETATM    5  C   LIG     1      14.609  32.307  17.860  1.00  0.00     0.178 C 
BRANCH   5   6
HETATM    6  C   LIG     1      13.416  32.156  16.908  1.00  0.00     0.022 C 
HETATM    7  C   LIG     1      13.306  30.737  16.356  1.00  0.00     0.007 C 
ENDBRANCH   5   6
ENDBRANCH   1   5
TORSDOF 3
ENDMDL
MODEL 9
REMARK VINA RESULT:      -3.7     10.284     10.921
REMARK  3 active torsions:
REMARK  status: ('A' for Active; 'I' for Inactive)
REMARK    1  A    between atoms: C_2  and  O_3 
REMARK    2  A    between atoms: O_3  and  C_4 
REMARK    3  A    between atoms: C_4  and  C_5 
ROOT
HETATM    1  O   LIG     1      17.165  33.150  15.550  1.00  0.00    -0.322 OA
ENDROOT
BRANCH   1   2
HETATM    2  C   LIG     1      17.548  34.128  14.626  1.00  0.00     0.254 C 
HETATM    3  C   LIG     1      18.322  33.733  13.414  1.00  0.00     0.126 C 
HETATM    4  O   LIG     1      17.243  35.339  14.801  1.00  0.00    -0.266 OA
ENDBRANCH   1   2
BRANCH   1   5
HETATM    5  C   LIG     1      15.837  32.635  15.646  1.00  0.00     0.178 C 
BRANCH   5   6
HETATM    6  C   LIG     1      15.635  31.442  14.704  1.00  0.00     0.022 C 
HETATM    7  C   LIG     1      14.413  30.613  15.091  1.00  0.00     0.007 C 
ENDBRANCH   5   6
ENDBRANCH   1   5
TORSDOF 3
ENDMDL
MODEL 10
REMARK VINA RESULT:      -3.7      3.089      4.212
REMARK  3 active torsions:
REMARK  status: ('A' for Active; 'I' for Inactive)
REMARK    1  A    between atoms: C_2  and  O_3 
REMARK    2  A    between atoms: O_3  and  C_4 
REMARK    3  A    between atoms: C_4  and  C_5 
ROOT
HETATM    1  O   LIG     1      17.205  36.504  22.196  1.00  0.00    -0.322 OA
ENDROOT
BRANCH   1   2
HETATM    2  C   LIG     1      16.880  35.737  21.071  1.00  0.00     0.254 C 
HETATM    3  C   LIG     1      15.882  34.636  21.194  1.00  0.00     0.126 C 
HETATM    4  O   LIG     1      17.417  35.967  19.954  1.00  0.00    -0.266 OA
ENDBRANCH   1   2
BRANCH   1   5
HETATM    5  C   LIG     1      16.309  37.441  22.793  1.00  0.00     0.178 C 
BRANCH   5   6
HETATM    6  C   LIG     1      16.729  38.884  22.486  1.00  0.00     0.022 C 
HETATM    7  C   LIG     1      18.210  38.980  22.130  1.00  0.00     0.007 C 
ENDBRANCH   5   6
ENDBRANCH   1   5
TORSDOF 3
ENDMDL
MODEL 11
REMARK VINA RESULT:      -3.7     11.181     12.768
REMARK  3 active torsions:
REMARK  status: ('A' for Active; 'I' for Inactive)
REMARK    1  A    between atoms: C_2  and  O_3 
REMARK    2  A    between atoms: O_3  and  C_4 
REMARK    3  A    between atoms: C_4  and  C_5 
ROOT
HETATM    1  O   LIG     1      18.513  32.966  12.441  1.00  0.00    -0.322 OA
ENDROOT
BRANCH   1   2
HETATM    2  C   LIG     1      17.863  33.727  13.419  1.00  0.00     0.254 C 
HETATM    3  C   LIG     1      17.602  33.133  14.761  1.00  0.00     0.126 C 
HETATM    4  O   LIG     1      17.501  34.912  13.182  1.00  0.00    -0.266 OA
ENDBRANCH   1   2
BRANCH   1   5
HETATM    5  C   LIG     1      19.409  33.521  11.478  1.00  0.00     0.178 C 
BRANCH   5   6
HETATM    6  C   LIG     1      20.870  33.283  11.879  1.00  0.00     0.022 C 
HETATM    7  C   LIG     1      21.449  34.470  12.644  1.00  0.00     0.007 C 
ENDBRANCH   5   6
ENDBRANCH   1   5
TORSDOF 3
ENDMDL
MODEL 12
REMARK VINA RESULT:      -3.7      7.956      8.731
REMARK  3 active torsions:
REMARK  status: ('A' for Active; 'I' for Inactive)
REMARK    1  A    between atoms: C_2  and  O_3 
REMARK    2  A    between atoms: O_3  and  C_4 
REMARK    3  A    between atoms: C_4  and  C_5 
ROOT
HETATM    1  O   LIG     1      15.254  33.632  17.260  1.00  0.00    -0.322 OA
ENDROOT
BRANCH   1   2
HETATM    2  C   LIG     1      16.036  33.656  16.100  1.00  0.00     0.254 C 
HETATM    3  C   LIG     1      16.101  32.446  15.230  1.00  0.00     0.126 C 
HETATM    4  O   LIG     1      16.682  34.690  15.776  1.00  0.00    -0.266 OA
ENDBRANCH   1   2
BRANCH   1   5
HETATM    5  C   LIG     1      14.869  32.428  17.923  1.00  0.00     0.178 C 
BRANCH   5   6
HETATM    6  C   LIG     1      15.368  32.409  19.373  1.00  0.00     0.022 C 
HETATM    7  C   LIG     1      14.868  31.181  20.130  1.00  0.00     0.007 C 
ENDBRANCH   5   6
ENDBRANCH   1   5
TORSDOF 3
ENDMDL
MODEL 13
REMARK VINA RESULT:      -3.6     11.980     12.311
REMARK  3 active torsions:
REMARK  status: ('A' for Active; 'I' for Inactive)
REMARK    1  A    between atoms: C_2  and  O_3 
REMARK    2  A    between atoms: O_3  and  C_4 
REMARK    3  A    between atoms: C_4  and  C_5 
ROOT
HETATM    1  O   LIG     1      17.447  32.512  13.167  1.00  0.00    -0.322 OA
ENDROOT
BRANCH   1   2
HETATM    2  C   LIG     1      18.050  33.759  12.972  1.00  0.00     0.254 C 
HETATM    3  C   LIG     1      19.532  33.849  12.841  1.00  0.00     0.126 C 
HETATM    4  O   LIG     1      17.355  34.809  12.900  1.00  0.00    -0.266 OA
ENDBRANCH   1   2
BRANCH   1   5
HETATM    5  C   LIG     1      16.275  32.320  13.958  1.00  0.00     0.178 C 
BRANCH   5   6
HETATM    6  C   LIG     1      15.507  31.067  13.518  1.00  0.00     0.022 C 
HETATM    7  C   LIG     1      14.751  30.427  14.679  1.00  0.00     0.007 C 
ENDBRANCH   5   6
ENDBRANCH   1   5
TORSDOF 3
ENDMDL
MODEL 14
REMARK VINA RESULT:      -3.6      9.770     10.481
REMARK  3 active torsions:
REMARK  status: ('A' for Active; 'I' for Inactive)
REMARK    1  A    between atoms: C_2  and  O_3 
REMARK    2  A    between atoms: O_3  and  C_4 
REMARK    3  A    between atoms: C_4  and  C_5 
ROOT
HETATM    1  O   LIG     1      14.682  31.569  16.253  1.00  0.00    -0.322 OA
ENDROOT
BRANCH   1   2
HETATM    2  C   LIG     1      14.217  30.674  15.284  1.00  0.00     0.254 C 
HETATM    3  C   LIG     1      15.139  30.209  14.208  1.00  0.00     0.126 C 
HETATM    4  O   LIG     1      13.029  30.251  15.310  1.00  0.00    -0.266 OA
ENDBRANCH   1   2
BRANCH   1   5
HETATM    5  C   LIG     1      14.034  31.776  17.508  1.00  0.00     0.178 C 
BRANCH   5   6
HETATM    6  C   LIG     1      15.025  32.270  18.570  1.00  0.00     0.022 C 
HETATM    7  C   LIG     1      14.889  31.494  19.877  1.00  0.00     0.007 C 
ENDBRANCH   5   6
ENDBRANCH   1   5
TORSDOF 3
ENDMDL
MODEL 15
REMARK VINA RESULT:      -3.5     10.700     11.899
REMARK  3 active torsions:
REMARK  status: ('A' for Active; 'I' for Inactive)
REMARK    1  A    between atoms: C_2  and  O_3 
REMARK    2  A    between atoms: O_3  and  C_4 
REMARK    3  A    between atoms: C_4  and  C_5 
ROOT
HETATM    1  O   LIG     1      16.755  31.778  14.491  1.00  0.00    -0.322 OA
ENDROOT
BRANCH   1   2
HETATM    2  C   LIG     1      17.143  33.111  14.665  1.00  0.00     0.254 C 
HETATM    3  C   LIG     1      18.224  33.680  13.810  1.00  0.00     0.126 C 
HETATM    4  O   LIG     1      16.588  33.839  15.532  1.00  0.00    -0.266 OA
ENDBRANCH   1   2
BRANCH   1   5
HETATM    5  C   LIG     1      15.695  31.374  13.625  1.00  0.00     0.178 C 
BRANCH   5   6
HETATM    6  C   LIG     1      14.797  30.328  14.298  1.00  0.00     0.022 C 
HETATM    7  C   LIG     1      15.203  28.905  13.924  1.00  0.00     0.007 C 
ENDBRANCH   5   6
ENDBRANCH   1   5
TORSDOF 3
ENDMDL
MODEL 16
REMARK VINA RESULT:      -3.5      8.587      9.313
REMARK  3 active torsions:
REMARK  status: ('A' for Active; 'I' for Inactive)
REMARK    1  A    between atoms: C_2  and  O_3 
REMARK    2  A    between atoms: O_3  and  C_4 
REMARK    3  A    between atoms: C_4  and  C_5 
ROOT
HETATM    1  O   LIG     1      14.647  31.481  17.453  1.00  0.00    -0.322 OA
ENDROOT
BRANCH   1   2
HETATM    2  C   LIG     1      13.524  31.253  16.650  1.00  0.00     0.254 C 
HETATM    3  C   LIG     1      13.671  30.485  15.380  1.00  0.00     0.126 C 
HETATM    4  O   LIG     1      12.388  31.682  16.989  1.00  0.00    -0.266 OA
ENDBRANCH   1   2
BRANCH   1   5
HETATM    5  C   LIG     1      14.857  32.689  18.185  1.00  0.00     0.178 C 
BRANCH   5   6
HETATM    6  C   LIG     1      15.264  32.396  19.634  1.00  0.00     0.022 C 
HETATM    7  C   LIG     1      15.699  33.661  20.369  1.00  0.00     0.007 C 
ENDBRANCH   5   6
ENDBRANCH   1   5
TORSDOF 3
ENDMDL
MODEL 17
REMARK VINA RESULT:      -3.3     11.067     12.272
REMARK  3 active torsions:
REMARK  status: ('A' for Active; 'I' for Inactive)
REMARK    1  A    between atoms: C_2  and  O_3 
REMARK    2  A    between atoms: O_3  and  C_4 
REMARK    3  A    between atoms: C_4  and  C_5 
ROOT
HETATM    1  O   LIG     1      15.125  31.034  14.839  1.00  0.00    -0.322 OA
ENDROOT
BRANCH   1   2
HETATM    2  C   LIG     1      13.910  30.383  15.083  1.00  0.00     0.254 C 
HETATM    3  C   LIG     1      13.044  30.839  16.208  1.00  0.00     0.126 C 
HETATM    4  O   LIG     1      13.536  29.419  14.361  1.00  0.00    -0.266 OA
ENDBRANCH   1   2
BRANCH   1   5
HETATM    5  C   LIG     1      15.599  31.348  13.530  1.00  0.00     0.178 C 
BRANCH   5   6
HETATM    6  C   LIG     1      16.542  32.558  13.556  1.00  0.00     0.022 C 
HETATM    7  C   LIG     1      16.912  32.957  14.982  1.00  0.00     0.007 C 
ENDBRANCH   5   6
ENDBRANCH   1   5
TORSDOF 3
ENDMDL
MODEL 18
REMARK VINA RESULT:      -3.3      9.451     10.816
REMARK  3 active torsions:
REMARK  status: ('A' for Active; 'I' for Inactive)
REMARK    1  A    between atoms: C_2  and  O_3 
REMARK    2  A    between atoms: O_3  and  C_4 
REMARK    3  A    between atoms: C_4  and  C_5 
ROOT
HETATM    1  O   LIG     1      16.744  32.722  15.797  1.00  0.00    -0.322 OA
ENDROOT
BRANCH   1   2
HETATM    2  C   LIG     1      15.529  33.208  16.292  1.00  0.00     0.254 C 
HETATM    3  C   LIG     1      14.456  32.249  16.683  1.00  0.00     0.126 C 
HETATM    4  O   LIG     1      15.331  34.447  16.419  1.00  0.00    -0.266 OA
ENDBRANCH   1   2
BRANCH   1   5
HETATM    5  C   LIG     1      17.580  33.459  14.905  1.00  0.00     0.178 C 
BRANCH   5   6
HETATM    6  C   LIG     1      17.250  33.139  13.442  1.00  0.00     0.022 C 
HETATM    7  C   LIG     1      18.415  33.468  12.512  1.00  0.00     0.007 C 
ENDBRANCH   5   6
ENDBRANCH   1   5
TORSDOF 3
ENDMDL
MODEL 19
REMARK VINA RESULT:      -3.2     11.285     12.296
REMARK  3 active torsions:
REMARK  status: ('A' for Active; 'I' for Inactive)
REMARK    1  A    between atoms: C_2  and  O_3 
REMARK    2  A    between atoms: O_3  and  C_4 
REMARK    3  A    between atoms: C_4  and  C_5 
ROOT
HETATM    1  O   LIG     1      16.198  31.814  13.850  1.00  0.00    -0.322 OA
ENDROOT
BRANCH   1   2
HETATM    2  C   LIG     1      15.442  30.649  14.012  1.00  0.00     0.254 C 
HETATM    3  C   LIG     1      14.371  30.605  15.049  1.00  0.00     0.126 C 
HETATM    4  O   LIG     1      15.650  29.636  13.290  1.00  0.00    -0.266 OA
ENDBRANCH   1   2
BRANCH   1   5
HETATM    5  C   LIG     1      16.807  32.514  14.935  1.00  0.00     0.178 C 
BRANCH   5   6
HETATM    6  C   LIG     1      17.643  33.698  14.432  1.00  0.00     0.022 C 
HETATM    7  C   LIG     1      18.091  33.503  12.986  1.00  0.00     0.007 C 
ENDBRANCH   5   6
ENDBRANCH   1   5
TORSDOF 3
ENDMDL
MODEL 20
REMARK VINA RESULT:      -3.1     12.480     13.478
REMARK  3 active torsions:
REMARK  status: ('A' for Active; 'I' for Inactive)
REMARK    1  A    between atoms: C_2  and  O_3 
REMARK    2  A    between atoms: O_3  and  C_4 
REMARK    3  A    between atoms: C_4  and  C_5 
ROOT
HETATM    1  O   LIG     1      14.242  29.303  14.471  1.00  0.00    -0.322 OA
ENDROOT
BRANCH   1   2
HETATM    2  C   LIG     1      14.119  30.509  15.169  1.00  0.00     0.254 C 
HETATM    3  C   LIG     1      15.247  31.485  15.159  1.00  0.00     0.126 C 
HETATM    4  O   LIG     1      13.063  30.786  15.801  1.00  0.00    -0.266 OA
ENDBRANCH   1   2
BRANCH   1   5
HETATM    5  C   LIG     1      15.352  28.992  13.628  1.00  0.00     0.178 C 
BRANCH   5   6
HETATM    6  C   LIG     1      15.512  27.476  13.457  1.00  0.00     0.022 C 
HETATM    7  C   LIG     1      15.916  27.105  12.033  1.00  0.00     0.007 C 
ENDBRANCH   5   6
ENDBRANCH   1   5
TORSDOF 3
ENDMDL
