REMARK  3 active torsions:
REMARK  status: ('A' for Active; 'I' for Inactive)
REMARK    1  A    between atoms: C_2  and  O_3 
REMARK    2  A    between atoms: O_3  and  C_4 
REMARK    3  A    between atoms: C_4  and  C_5 
ROOT
HETATM    1  O   LIG     1       0.577  -0.269   0.704  1.00  0.00    -0.322 OA
ENDROOT
BRANCH   1   2
HETATM    2  C   LIG     1       1.627   0.005  -0.179  1.00  0.00     0.254 C 
HETATM    3  C   LIG     1       2.623   1.060   0.166  1.00  0.00     0.126 C 
HETATM    4  O   LIG     1       1.746  -0.632  -1.261  1.00  0.00    -0.266 OA
ENDBRANCH   1   2
BRANCH   1   5
HETATM    5  C   LIG     1      -0.452  -1.220   0.431  1.00  0.00     0.178 C 
BRANCH   5   6
HETATM    6  C   LIG     1      -1.452  -0.676  -0.597  1.00  0.00     0.022 C 
HETATM    7  C   LIG     1      -2.154   0.583  -0.095  1.00  0.00     0.007 C 
ENDBRANCH   5   6
ENDBRANCH   1   5
TORSDOF 3
