REMARK  0 active torsions:
REMARK  status: ('A' for Active; 'I' for Inactive)
ROOT
HETATM    1  C   LIG     1       0.292   1.070  -0.359  1.00  0.00     0.087 A 
HETATM    2  C   LIG     1       1.177   0.063  -0.030  1.00  0.00     0.018 A 
HETATM    3  C   LIG     1       0.414  -1.059   0.230  1.00  0.00     0.018 A 
HETATM    4  C   LIG     1      -0.902  -0.688   0.049  1.00  0.00     0.087 A 
HETATM    5  N   LIG     1      -0.970   0.607  -0.309  1.00  0.00    -0.375 N 
HETATM    6  H   LIG     1      -1.838   1.150  -0.510  1.00  0.00     0.164 HD
ENDROOT
TORSDOF 0
