REMARK  2 active torsions:
REMARK  status: ('A' for Active; 'I' for Inactive)
REMARK    1  A    between atoms: C_2  and  C_3 
REMARK    2  A    between atoms: C_3  and  C_4 
ROOT
HETATM    1  C   LIG     1      -0.235   0.979  -0.287  1.00  0.00     0.026 C 
ENDROOT
BRANCH   1   2
HETATM    2  C   LIG     1      -0.980   0.469   0.918  1.00  0.00    -0.037 C 
HETATM    3  C   LIG     1      -2.018  -0.365   0.803  1.00  0.00     0.007 C 
ENDBRANCH   1   2
BRANCH   1   4
HETATM    4  C   LIG     1       0.588  -0.120  -0.974  1.00  0.00    -0.001 C 
HETATM    5  C   LIG     1       1.731  -0.624  -0.093  1.00  0.00     0.005 C 
ENDBRANCH   1   4
TORSDOF 2
