REMARK  2 active torsions:
REMARK  status: ('A' for Active; 'I' for Inactive)
REMARK    1  A    between atoms: C_2  and  C_3 
REMARK    2  A    between atoms: C_3  and  C_4 
ROOT
HETATM    1  C   LIG     1       0.745  -0.680  -0.504  1.00  0.00     0.015 C 
ENDROOT
BRANCH   1   2
HETATM    2  C   LIG     1       1.554   0.604  -0.272  1.00  0.00     0.114 C 
HETATM    3 CL   LIG     1       1.209   1.833  -1.519  1.00  0.00    -0.130 Cl
ENDBRANCH   1   2
BRANCH   1   4
HETATM    4  C   LIG     1      -0.646  -0.659   0.151  1.00  0.00    -0.004 C 
HETATM    5  C   LIG     1      -1.609   0.324  -0.511  1.00  0.00     0.005 C 
ENDBRANCH   1   4
TORSDOF 2
