MODEL 1
REMARK VINA RESULT:      -3.8      0.000      0.000
REMARK  3 active torsions:
REMARK  status: ('A' for Active; 'I' for Inactive)
REMARK    1  A    between atoms: C_2  and  C_3 
REMARK    2  A    between atoms: C_3  and  C_4 
REMARK    3  A    between atoms: C_4  and  S_5 
ROOT
HETATM    1  C   LIG     1      18.552  37.202  25.715  1.00  0.00     0.009 C 
ENDROOT
BRANCH   1   2
HETATM    2  C   LIG     1      18.284  36.130  26.777  1.00  0.00    -0.004 C 
HETATM    3  C   LIG     1      17.830  34.821  26.135  1.00  0.00     0.005 C 
ENDBRANCH   1   2
BRANCH   1   4
HETATM    4  C   LIG     1      17.280  37.990  25.396  1.00  0.00     0.070 C 
BRANCH   4   5
HETATM    5  S   LIG     1      16.704  37.612  23.712  1.00  0.00    -0.182 SA
HETATM    6  H   LIG     1      16.086  36.411  24.107  1.00  0.00     0.101 HD
ENDBRANCH   4   5
ENDBRANCH   1   4
TORSDOF 3
ENDMDL
MODEL 2
REMARK VINA RESULT:      -3.2      1.638      2.038
REMARK  3 active torsions:
REMARK  status: ('A' for Active; 'I' for Inactive)
REMARK    1  A    between atoms: C_2  and  C_3 
REMARK    2  A    between atoms: C_3  and  C_4 
REMARK    3  A    between atoms: C_4  and  S_5 
ROOT
HETATM    1  C   LIG     1      18.178  38.105  24.478  1.00  0.00     0.009 C 
ENDROOT
BRANCH   1   2
HETATM    2  C   LIG     1      17.503  37.546  25.735  1.00  0.00    -0.004 C 
HETATM    3  C   LIG     1      18.418  36.564  26.461  1.00  0.00     0.005 C 
ENDBRANCH   1   2
BRANCH   1   4
HETATM    4  C   LIG     1      17.164  38.299  23.350  1.00  0.00     0.070 C 
BRANCH   4   5
HETATM    5  S   LIG     1      17.995  38.888  21.842  1.00  0.00    -0.182 SA
HETATM    6  H   LIG     1      17.413  37.891  21.036  1.00  0.00     0.101 HD
ENDBRANCH   4   5
ENDBRANCH   1   4
TORSDOF 3
ENDMDL
MODEL 3
REMARK VINA RESULT:      -3.1      3.593      4.718
REMARK  3 active torsions:
REMARK  status: ('A' for Active; 'I' for Inactive)
REMARK    1  A    between atoms: C_2  and  C_3 
REMARK    2  A    between atoms: C_3  and  C_4 
REMARK    3  A    between atoms: C_4  and  S_5 
ROOT
HETATM    1  C   LIG     1      17.439  37.888  21.874  1.00  0.00     0.009 C 
ENDROOT
BRANCH   1   2
HETATM    2  C   LIG     1      18.245  39.191  21.851  1.00  0.00    -0.004 C 
HETATM    3  C   LIG     1      18.983  39.360  20.525  1.00  0.00     0.005 C 
ENDBRANCH   1   2
BRANCH   1   4
HETATM    4  C   LIG     1      16.350  37.934  22.947  1.00  0.00     0.070 C 
BRANCH   4   5
HETATM    5  S   LIG     1      17.072  37.667  24.596  1.00  0.00    -0.182 SA
HETATM    6  H   LIG     1      16.159  38.536  25.223  1.00  0.00     0.101 HD
ENDBRANCH   4   5
ENDBRANCH   1   4
TORSDOF 3
ENDMDL
MODEL 4
REMARK VINA RESULT:      -3.1      2.043      3.074
REMARK  3 active torsions:
REMARK  status: ('A' for Active; 'I' for Inactive)
REMARK    1  A    between atoms: C_2  and  C_3 
REMARK    2  A    between atoms: C_3  and  C_4 
REMARK    3  A    between atoms: C_4  and  S_5 
ROOT
HETATM    1  C   LIG     1      17.435  37.738  25.629  1.00  0.00     0.009 C 
ENDROOT
BRANCH   1   2
HETATM    2  C   LIG     1      17.945  38.249  24.277  1.00  0.00    -0.004 C 
HETATM    3  C   LIG     1      17.081  37.731  23.130  1.00  0.00     0.005 C 
ENDBRANCH   1   2
BRANCH   1   4
HETATM    4  C   LIG     1      18.400  36.714  26.229  1.00  0.00     0.070 C 
BRANCH   4   5
HETATM    5  S   LIG     1      17.730  35.032  26.056  1.00  0.00    -0.182 SA
HETATM    6  H   LIG     1      18.797  34.448  26.764  1.00  0.00     0.101 HD
ENDBRANCH   4   5
ENDBRANCH   1   4
TORSDOF 3
ENDMDL
MODEL 5
REMARK VINA RESULT:      -3.0      5.115      5.877
REMARK  3 active torsions:
REMARK  status: ('A' for Active; 'I' for Inactive)
REMARK    1  A    between atoms: C_2  and  C_3 
REMARK    2  A    between atoms: C_3  and  C_4 
REMARK    3  A    between atoms: C_4  and  S_5 
ROOT
HETATM    1  C   LIG     1      18.666  36.812  19.864  1.00  0.00     0.009 C 
ENDROOT
BRANCH   1   2
HETATM    2  C   LIG     1      19.529  38.036  19.538  1.00  0.00    -0.004 C 
HETATM    3  C   LIG     1      19.307  39.153  20.553  1.00  0.00     0.005 C 
ENDBRANCH   1   2
BRANCH   1   4
HETATM    4  C   LIG     1      17.722  37.102  21.032  1.00  0.00     0.070 C 
BRANCH   4   5
HETATM    5  S   LIG     1      16.980  35.558  21.647  1.00  0.00    -0.182 SA
HETATM    6  H   LIG     1      15.664  36.021  21.455  1.00  0.00     0.101 HD
ENDBRANCH   4   5
ENDBRANCH   1   4
TORSDOF 3
ENDMDL
MODEL 6
REMARK VINA RESULT:      -3.0      4.249      5.010
REMARK  3 active torsions:
REMARK  status: ('A' for Active; 'I' for Inactive)
REMARK    1  A    between atoms: C_2  and  C_3 
REMARK    2  A    between atoms: C_3  and  C_4 
REMARK    3  A    between atoms: C_4  and  S_5 
ROOT
HETATM    1  C   LIG     1      18.651  39.133  21.812  1.00  0.00     0.009 C 
ENDROOT
BRANCH   1   2
HETATM    2  C   LIG     1      17.224  38.805  22.265  1.00  0.00    -0.004 C 
HETATM    3  C   LIG     1      17.226  38.082  23.609  1.00  0.00     0.005 C 
ENDBRANCH   1   2
BRANCH   1   4
HETATM    4  C   LIG     1      18.695  39.432  20.312  1.00  0.00     0.070 C 
BRANCH   4   5
HETATM    5  S   LIG     1      20.197  38.725  19.567  1.00  0.00    -0.182 SA
HETATM    6  H   LIG     1      20.574  38.069  20.755  1.00  0.00     0.101 HD
ENDBRANCH   4   5
ENDBRANCH   1   4
TORSDOF 3
ENDMDL
MODEL 7
REMARK VINA RESULT:      -3.0      3.515      3.788
REMARK  3 active torsions:
REMARK  status: ('A' for Active; 'I' for Inactive)
REMARK    1  A    between atoms: C_2  and  C_3 
REMARK    2  A    between atoms: C_3  and  C_4 
REMARK    3  A    between atoms: C_4  and  S_5 
ROOT
HETATM    1  C   LIG     1      16.996  36.901  22.136  1.00  0.00     0.009 C 
ENDROOT
BRANCH   1   2
HETATM    2  C   LIG     1      16.870  35.393  22.376  1.00  0.00    -0.004 C 
HETATM    3  C   LIG     1      16.255  34.692  21.168  1.00  0.00     0.005 C 
ENDBRANCH   1   2
BRANCH   1   4
HETATM    4  C   LIG     1      16.231  37.692  23.197  1.00  0.00     0.070 C 
BRANCH   4   5
HETATM    5  S   LIG     1      17.149  37.701  24.768  1.00  0.00    -0.182 SA
HETATM    6  H   LIG     1      18.399  37.589  24.130  1.00  0.00     0.101 HD
ENDBRANCH   4   5
ENDBRANCH   1   4
TORSDOF 3
ENDMDL
MODEL 8
REMARK VINA RESULT:      -3.0      4.626      4.878
REMARK  3 active torsions:
REMARK  status: ('A' for Active; 'I' for Inactive)
REMARK    1  A    between atoms: C_2  and  C_3 
REMARK    2  A    between atoms: C_3  and  C_4 
REMARK    3  A    between atoms: C_4  and  S_5 
ROOT
HETATM    1  C   LIG     1      17.602  38.112  21.789  1.00  0.00     0.009 C 
ENDROOT
BRANCH   1   2
HETATM    2  C   LIG     1      17.844  36.927  20.847  1.00  0.00    -0.004 C 
HETATM    3  C   LIG     1      17.164  35.663  21.366  1.00  0.00     0.005 C 
ENDBRANCH   1   2
BRANCH   1   4
HETATM    4  C   LIG     1      18.586  39.248  21.507  1.00  0.00     0.070 C 
BRANCH   4   5
HETATM    5  S   LIG     1      19.516  38.917  19.978  1.00  0.00    -0.182 SA
HETATM    6  H   LIG     1      20.160  37.789  20.520  1.00  0.00     0.101 HD
ENDBRANCH   4   5
ENDBRANCH   1   4
TORSDOF 3
ENDMDL
MODEL 9
REMARK VINA RESULT:      -2.9     11.547     12.101
REMARK  3 active torsions:
REMARK  status: ('A' for Active; 'I' for Inactive)
REMARK    1  A    between atoms: C_2  and  C_3 
REMARK    2  A    between atoms: C_3  and  C_4 
REMARK    3  A    between atoms: C_4  and  S_5 
ROOT
HETATM    1  C   LIG     1      13.227  30.633  15.880  1.00  0.00     0.009 C 
ENDROOT
BRANCH   1   2
HETATM    2  C   LIG     1      14.525  30.731  15.071  1.00  0.00    -0.004 C 
HETATM    3  C   LIG     1      14.704  29.515  14.166  1.00  0.00     0.005 C 
ENDBRANCH   1   2
BRANCH   1   4
HETATM    4  C   LIG     1      13.088  31.815  16.840  1.00  0.00     0.070 C 
BRANCH   4   5
HETATM    5  S   LIG     1      14.663  32.717  16.969  1.00  0.00    -0.182 SA
HETATM    6  H   LIG     1      14.065  33.835  17.581  1.00  0.00     0.101 HD
ENDBRANCH   4   5
ENDBRANCH   1   4
TORSDOF 3
ENDMDL
MODEL 10
REMARK VINA RESULT:      -2.9      4.290      4.511
REMARK  3 active torsions:
REMARK  status: ('A' for Active; 'I' for Inactive)
REMARK    1  A    between atoms: C_2  and  C_3 
REMARK    2  A    between atoms: C_3  and  C_4 
REMARK    3  A    between atoms: C_4  and  S_5 
ROOT
HETATM    1  C   LIG     1      17.430  36.361  21.064  1.00  0.00     0.009 C 
ENDROOT
BRANCH   1   2
HETATM    2  C   LIG     1      16.940  35.186  21.918  1.00  0.00    -0.004 C 
HETATM    3  C   LIG     1      15.641  34.607  21.365  1.00  0.00     0.005 C 
ENDBRANCH   1   2
BRANCH   1   4
HETATM    4  C   LIG     1      17.350  37.675  21.843  1.00  0.00     0.070 C 
BRANCH   4   5
HETATM    5  S   LIG     1      18.471  38.912  21.118  1.00  0.00    -0.182 SA
HETATM    6  H   LIG     1      17.451  39.873  20.981  1.00  0.00     0.101 HD
ENDBRANCH   4   5
ENDBRANCH   1   4
TORSDOF 3
ENDMDL
MODEL 11
REMARK VINA RESULT:      -2.9     12.503     13.072
REMARK  3 active torsions:
REMARK  status: ('A' for Active; 'I' for Inactive)
REMARK    1  A    between atoms: C_2  and  C_3 
REMARK    2  A    between atoms: C_3  and  C_4 
REMARK    3  A    between atoms: C_4  and  S_5 
ROOT
HETATM    1  C   LIG     1      14.975  29.798  14.458  1.00  0.00     0.009 C 
ENDROOT
BRANCH   1   2
HETATM    2  C   LIG     1      13.461  29.849  14.692  1.00  0.00    -0.004 C 
HETATM    3  C   LIG     1      13.125  30.626  15.961  1.00  0.00     0.005 C 
ENDBRANCH   1   2
BRANCH   1   4
HETATM    4  C   LIG     1      15.427  30.928  13.533  1.00  0.00     0.070 C 
BRANCH   4   5
HETATM    5  S   LIG     1      16.239  32.246  14.489  1.00  0.00    -0.182 SA
HETATM    6  H   LIG     1      15.056  32.590  15.171  1.00  0.00     0.101 HD
ENDBRANCH   4   5
ENDBRANCH   1   4
TORSDOF 3
ENDMDL
MODEL 12
REMARK VINA RESULT:      -2.7     10.553     11.019
REMARK  3 active torsions:
REMARK  status: ('A' for Active; 'I' for Inactive)
REMARK    1  A    between atoms: C_2  and  C_3 
REMARK    2  A    between atoms: C_3  and  C_4 
REMARK    3  A    between atoms: C_4  and  S_5 
ROOT
HETATM    1  C   LIG     1      20.792  44.552  32.067  1.00  0.00     0.009 C 
ENDROOT
BRANCH   1   2
HETATM    2  C   LIG     1      21.872  45.402  32.747  1.00  0.00    -0.004 C 
HETATM    3  C   LIG     1      23.257  44.792  32.550  1.00  0.00     0.005 C 
ENDBRANCH   1   2
BRANCH   1   4
HETATM    4  C   LIG     1      20.922  44.614  30.545  1.00  0.00     0.070 C 
BRANCH   4   5
HETATM    5  S   LIG     1      19.981  46.025  29.884  1.00  0.00    -0.182 SA
HETATM    6  H   LIG     1      18.797  45.274  29.749  1.00  0.00     0.101 HD
ENDBRANCH   4   5
ENDBRANCH   1   4
TORSDOF 3
ENDMDL
MODEL 13
REMARK VINA RESULT:      -2.7      4.188      4.838
REMARK  3 active torsions:
REMARK  status: ('A' for Active; 'I' for Inactive)
REMARK    1  A    between atoms: C_2  and  C_3 
REMARK    2  A    between atoms: C_3  and  C_4 
REMARK    3  A    between atoms: C_4  and  S_5 
ROOT
HETATM    1  C   LIG     1      17.627  36.905  21.026  1.00  0.00     0.009 C 
ENDROOT
BRANCH   1   2
HETATM    2  C   LIG     1      17.910  38.345  21.468  1.00  0.00    -0.004 C 
HETATM    3  C   LIG     1      16.887  38.816  22.498  1.00  0.00     0.005 C 
ENDBRANCH   1   2
BRANCH   1   4
HETATM    4  C   LIG     1      16.597  36.242  21.942  1.00  0.00     0.070 C 
BRANCH   4   5
HETATM    5  S   LIG     1      15.881  34.776  21.136  1.00  0.00    -0.182 SA
HETATM    6  H   LIG     1      14.872  35.521  20.497  1.00  0.00     0.101 HD
ENDBRANCH   4   5
ENDBRANCH   1   4
TORSDOF 3
ENDMDL
MODEL 14
REMARK VINA RESULT:      -2.6     11.022     11.469
REMARK  3 active torsions:
REMARK  status: ('A' for Active; 'I' for Inactive)
REMARK    1  A    between atoms: C_2  and  C_3 
REMARK    2  A    between atoms: C_3  and  C_4 
REMARK    3  A    between atoms: C_4  and  S_5 
ROOT
HETATM    1  C   LIG     1      14.362  32.040  16.694  1.00  0.00     0.009 C 
ENDROOT
BRANCH   1   2
HETATM    2  C   LIG     1      14.371  30.948  15.618  1.00  0.00    -0.004 C 
HETATM    3  C   LIG     1      12.980  30.348  15.431  1.00  0.00     0.005 C 
ENDBRANCH   1   2
BRANCH   1   4
HETATM    4  C   LIG     1      15.388  33.129  16.378  1.00  0.00     0.070 C 
BRANCH   4   5
HETATM    5  S   LIG     1      16.608  32.522  15.173  1.00  0.00    -0.182 SA
HETATM    6  H   LIG     1      17.700  32.805  16.015  1.00  0.00     0.101 HD
ENDBRANCH   4   5
ENDBRANCH   1   4
TORSDOF 3
ENDMDL
MODEL 15
REMARK VINA RESULT:      -2.5     11.389     11.820
REMARK  3 active torsions:
REMARK  status: ('A' for Active; 'I' for Inactive)
REMARK    1  A    between atoms: C_2  and  C_3 
REMARK    2  A    between atoms: C_3  and  C_4 
REMARK    3  A    between atoms: C_4  and  S_5 
ROOT
HETATM    1  C   LIG     1      15.509  32.442  15.950  1.00  0.00     0.009 C 
ENDROOT
BRANCH   1   2
HETATM    2  C   LIG     1      15.504  31.440  14.789  1.00  0.00    -0.004 C 
HETATM    3  C   LIG     1      16.077  32.065  13.520  1.00  0.00     0.005 C 
ENDBRANCH   1   2
BRANCH   1   4
HETATM    4  C   LIG     1      14.289  32.245  16.850  1.00  0.00     0.070 C 
BRANCH   4   5
HETATM    5  S   LIG     1      13.274  30.858  16.251  1.00  0.00    -0.182 SA
HETATM    6  H   LIG     1      14.247  29.897  16.586  1.00  0.00     0.101 HD
ENDBRANCH   4   5
ENDBRANCH   1   4
TORSDOF 3
ENDMDL
MODEL 16
REMARK VINA RESULT:      -2.5     11.325     11.699
REMARK  3 active torsions:
REMARK  status: ('A' for Active; 'I' for Inactive)
REMARK    1  A    between atoms: C_2  and  C_3 
REMARK    2  A    between atoms: C_3  and  C_4 
REMARK    3  A    between atoms: C_4  and  S_5 
ROOT
HETATM    1  C   LIG     1      16.402  32.220  15.481  1.00  0.00     0.009 C 
ENDROOT
BRANCH   1   2
HETATM    2  C   LIG     1      15.974  32.047  14.019  1.00  0.00    -0.004 C 
HETATM    3  C   LIG     1      15.346  30.675  13.787  1.00  0.00     0.005 C 
ENDBRANCH   1   2
BRANCH   1   4
HETATM    4  C   LIG     1      15.418  33.111  16.240  1.00  0.00     0.070 C 
BRANCH   4   5
HETATM    5  S   LIG     1      14.268  32.096  17.220  1.00  0.00    -0.182 SA
HETATM    6  H   LIG     1      15.190  31.922  18.269  1.00  0.00     0.101 HD
ENDBRANCH   4   5
ENDBRANCH   1   4
TORSDOF 3
ENDMDL
MODEL 17
REMARK VINA RESULT:      -2.5      9.694     10.147
REMARK  3 active torsions:
REMARK  status: ('A' for Active; 'I' for Inactive)
REMARK    1  A    between atoms: C_2  and  C_3 
REMARK    2  A    between atoms: C_3  and  C_4 
REMARK    3  A    between atoms: C_4  and  S_5 
ROOT
HETATM    1  C   LIG     1      14.847  32.928  16.784  1.00  0.00     0.009 C 
ENDROOT
BRANCH   1   2
HETATM    2  C   LIG     1      14.436  32.036  17.961  1.00  0.00    -0.004 C 
HETATM    3  C   LIG     1      15.293  32.318  19.192  1.00  0.00     0.005 C 
ENDBRANCH   1   2
BRANCH   1   4
HETATM    4  C   LIG     1      15.380  32.091  15.621  1.00  0.00     0.070 C 
BRANCH   4   5
HETATM    5  S   LIG     1      16.970  32.755  15.036  1.00  0.00    -0.182 SA
HETATM    6  H   LIG     1      17.702  32.120  16.057  1.00  0.00     0.101 HD
ENDBRANCH   4   5
ENDBRANCH   1   4
TORSDOF 3
ENDMDL
MODEL 18
REMARK VINA RESULT:      -2.4      4.080      4.645
REMARK  3 active torsions:
REMARK  status: ('A' for Active; 'I' for Inactive)
REMARK    1  A    between atoms: C_2  and  C_3 
REMARK    2  A    between atoms: C_3  and  C_4 
REMARK    3  A    between atoms: C_4  and  S_5 
ROOT
HETATM    1  C   LIG     1      16.795  36.380  22.063  1.00  0.00     0.009 C 
ENDROOT
BRANCH   1   2
HETATM    2  C   LIG     1      17.168  35.926  20.646  1.00  0.00    -0.004 C 
HETATM    3  C   LIG     1      18.357  36.717  20.110  1.00  0.00     0.005 C 
ENDBRANCH   1   2
BRANCH   1   4
HETATM    4  C   LIG     1      17.671  37.550  22.512  1.00  0.00     0.070 C 
BRANCH   4   5
HETATM    5  S   LIG     1      16.668  39.055  22.710  1.00  0.00    -0.182 SA
HETATM    6  H   LIG     1      15.924  38.516  23.776  1.00  0.00     0.101 HD
ENDBRANCH   4   5
ENDBRANCH   1   4
TORSDOF 3
ENDMDL
MODEL 19
REMARK VINA RESULT:      -2.4     12.251     12.642
REMARK  3 active torsions:
REMARK  status: ('A' for Active; 'I' for Inactive)
REMARK    1  A    between atoms: C_2  and  C_3 
REMARK    2  A    between atoms: C_3  and  C_4 
REMARK    3  A    between atoms: C_4  and  S_5 
ROOT
HETATM    1  C   LIG     1      16.083  32.115  13.951  1.00  0.00     0.009 C 
ENDROOT
BRANCH   1   2
HETATM    2  C   LIG     1      17.118  32.819  14.836  1.00  0.00    -0.004 C 
HETATM    3  C   LIG     1      18.002  33.753  14.014  1.00  0.00     0.005 C 
ENDBRANCH   1   2
BRANCH   1   4
HETATM    4  C   LIG     1      15.213  31.164  14.774  1.00  0.00     0.070 C 
BRANCH   4   5
HETATM    5  S   LIG     1      15.175  29.514  14.009  1.00  0.00    -0.182 SA
HETATM    6  H   LIG     1      16.036  29.892  12.962  1.00  0.00     0.101 HD
ENDBRANCH   4   5
ENDBRANCH   1   4
TORSDOF 3
ENDMDL
MODEL 20
REMARK VINA RESULT:      -2.2     14.801     15.180
REMARK  3 active torsions:
REMARK  status: ('A' for Active; 'I' for Inactive)
REMARK    1  A    between atoms: C_2  and  C_3 
REMARK    2  A    between atoms: C_3  and  C_4 
REMARK    3  A    between atoms: C_4  and  S_5 
ROOT
HETATM    1  C   LIG     1      25.788  31.400  35.806  1.00  0.00     0.009 C 
ENDROOT
BRANCH   1   2
HETATM    2  C   LIG     1      26.536  30.349  34.978  1.00  0.00    -0.004 C 
HETATM    3  C   LIG     1      27.666  30.984  34.172  1.00  0.00     0.005 C 
ENDBRANCH   1   2
BRANCH   1   4
HETATM    4  C   LIG     1      26.164  31.305  37.285  1.00  0.00     0.070 C 
BRANCH   4   5
HETATM    5  S   LIG     1      26.249  29.564  37.808  1.00  0.00    -0.182 SA
HETATM    6  H   LIG     1      27.315  29.800  38.696  1.00  0.00     0.101 HD
ENDBRANCH   4   5
ENDBRANCH   1   4
TORSDOF 3
ENDMDL
