REMARK  2 active torsions:
REMARK  status: ('A' for Active; 'I' for Inactive)
REMARK    1  A    between atoms: C_1  and  O_2 
REMARK    2  A    between atoms: O_2  and  C_3 
ROOT
HETATM    1  O   LIG     1       0.785  -0.531  -0.206  1.00  0.00    -0.329 OA
ENDROOT
BRANCH   1   2
HETATM    2  C   LIG     1       2.100  -0.129   0.035  1.00  0.00     0.398 C 
HETATM    3  O   LIG     1       2.386   1.084   0.224  1.00  0.00    -0.276 OA
ENDBRANCH   1   2
BRANCH   1   4
HETATM    4  C   LIG     1      -0.301   0.390  -0.253  1.00  0.00     0.173 C 
HETATM    5  C   LIG     1      -1.594  -0.360  -0.533  1.00  0.00     0.034 C 
ENDBRANCH   1   4
TORSDOF 2
