MODEL 1
REMARK VINA RESULT:      -4.2      0.000      0.000
REMARK  2 active torsions:
REMARK  status: ('A' for Active; 'I' for Inactive)
REMARK    1  A    between atoms: C_2  and  C_3 
REMARK    2  A    between atoms: C_3  and  C_4 
ROOT
HETATM    1  C   LIG     1      18.581  36.797  26.295  1.00  0.00    -0.001 C 
ENDROOT
BRANCH   1   2
HETATM    2  C   LIG     1      17.448  37.529  25.567  1.00  0.00    -0.005 C 
HETATM    3  C   LIG     1      17.966  38.259  24.333  1.00  0.00     0.005 C 
ENDBRANCH   1   2
BRANCH   1   4
HETATM    4  C   LIG     1      18.288  35.296  26.400  1.00  0.00    -0.005 C 
HETATM    5  C   LIG     1      17.335  34.842  25.298  1.00  0.00     0.005 C 
ENDBRANCH   1   4
TORSDOF 2
ENDMDL
MODEL 2
REMARK VINA RESULT:      -4.2      0.040      2.783
REMARK  2 active torsions:
REMARK  status: ('A' for Active; 'I' for Inactive)
REMARK    1  A    between atoms: C_2  and  C_3 
REMARK    2  A    between atoms: C_3  and  C_4 
ROOT
HETATM    1  C   LIG     1      18.604  36.763  26.267  1.00  0.00    -0.001 C 
ENDROOT
BRANCH   1   2
HETATM    2  C   LIG     1      18.253  35.276  26.385  1.00  0.00    -0.005 C 
HETATM    3  C   LIG     1      17.326  34.837  25.256  1.00  0.00     0.005 C 
ENDBRANCH   1   2
BRANCH   1   4
HETATM    4  C   LIG     1      17.467  37.544  25.598  1.00  0.00    -0.005 C 
HETATM    5  C   LIG     1      17.955  38.262  24.342  1.00  0.00     0.005 C 
ENDBRANCH   1   4
TORSDOF 2
ENDMDL
MODEL 3
REMARK VINA RESULT:      -3.8      2.017      2.709
REMARK  2 active torsions:
REMARK  status: ('A' for Active; 'I' for Inactive)
REMARK    1  A    between atoms: C_2  and  C_3 
REMARK    2  A    between atoms: C_3  and  C_4 
ROOT
HETATM    1  C   LIG     1      17.206  35.905  24.301  1.00  0.00    -0.001 C 
ENDROOT
BRANCH   1   2
HETATM    2  C   LIG     1      16.989  35.090  23.021  1.00  0.00    -0.005 C 
HETATM    3  C   LIG     1      17.013  35.987  21.787  1.00  0.00     0.005 C 
ENDBRANCH   1   2
BRANCH   1   4
HETATM    4  C   LIG     1      17.499  34.986  25.494  1.00  0.00    -0.005 C 
HETATM    5  C   LIG     1      18.310  35.713  26.563  1.00  0.00     0.005 C 
ENDBRANCH   1   4
TORSDOF 2
ENDMDL
MODEL 4
REMARK VINA RESULT:      -3.8      4.439      5.883
REMARK  2 active torsions:
REMARK  status: ('A' for Active; 'I' for Inactive)
REMARK    1  A    between atoms: C_2  and  C_3 
REMARK    2  A    between atoms: C_3  and  C_4 
ROOT
HETATM    1  C   LIG     1      18.791  39.362  20.261  1.00  0.00    -0.001 C 
ENDROOT
BRANCH   1   2
HETATM    2  C   LIG     1      19.755  38.383  19.582  1.00  0.00    -0.005 C 
HETATM    3  C   LIG     1      19.155  36.983  19.503  1.00  0.00     0.005 C 
ENDBRANCH   1   2
BRANCH   1   4
HETATM    4  C   LIG     1      18.701  39.088  21.767  1.00  0.00    -0.005 C 
HETATM    5  C   LIG     1      17.256  38.863  22.202  1.00  0.00     0.005 C 
ENDBRANCH   1   4
TORSDOF 2
ENDMDL
MODEL 5
REMARK VINA RESULT:      -3.7      4.307      5.648
REMARK  2 active torsions:
REMARK  status: ('A' for Active; 'I' for Inactive)
REMARK    1  A    between atoms: C_2  and  C_3 
REMARK    2  A    between atoms: C_3  and  C_4 
ROOT
HETATM    1  C   LIG     1      18.829  39.280  20.733  1.00  0.00    -0.001 C 
ENDROOT
BRANCH   1   2
HETATM    2  C   LIG     1      17.921  38.291  21.473  1.00  0.00    -0.005 C 
HETATM    3  C   LIG     1      17.075  39.000  22.526  1.00  0.00     0.005 C 
ENDBRANCH   1   2
BRANCH   1   4
HETATM    4  C   LIG     1      19.684  38.562  19.683  1.00  0.00    -0.005 C 
HETATM    5  C   LIG     1      19.228  37.117  19.495  1.00  0.00     0.005 C 
ENDBRANCH   1   4
TORSDOF 2
ENDMDL
MODEL 6
REMARK VINA RESULT:      -3.6      1.573      3.680
REMARK  2 active torsions:
REMARK  status: ('A' for Active; 'I' for Inactive)
REMARK    1  A    between atoms: C_2  and  C_3 
REMARK    2  A    between atoms: C_3  and  C_4 
ROOT
HETATM    1  C   LIG     1      16.834  37.518  23.817  1.00  0.00    -0.001 C 
ENDROOT
BRANCH   1   2
HETATM    2  C   LIG     1      17.390  38.044  25.144  1.00  0.00    -0.005 C 
HETATM    3  C   LIG     1      18.232  36.984  25.848  1.00  0.00     0.005 C 
ENDBRANCH   1   2
BRANCH   1   4
HETATM    4  C   LIG     1      16.760  38.637  22.771  1.00  0.00    -0.005 C 
HETATM    5  C   LIG     1      18.105  38.833  22.077  1.00  0.00     0.005 C 
ENDBRANCH   1   4
TORSDOF 2
ENDMDL
MODEL 7
REMARK VINA RESULT:      -3.6      4.586      5.498
REMARK  2 active torsions:
REMARK  status: ('A' for Active; 'I' for Inactive)
REMARK    1  A    between atoms: C_2  and  C_3 
REMARK    2  A    between atoms: C_3  and  C_4 
ROOT
HETATM    1  C   LIG     1      18.758  36.870  19.763  1.00  0.00    -0.001 C 
ENDROOT
BRANCH   1   2
HETATM    2  C   LIG     1      19.600  38.127  19.515  1.00  0.00    -0.005 C 
HETATM    3  C   LIG     1      19.236  39.236  20.497  1.00  0.00     0.005 C 
ENDBRANCH   1   2
BRANCH   1   4
HETATM    4  C   LIG     1      17.813  37.068  20.953  1.00  0.00    -0.005 C 
HETATM    5  C   LIG     1      17.138  35.757  21.346  1.00  0.00     0.005 C 
ENDBRANCH   1   4
TORSDOF 2
ENDMDL
MODEL 8
REMARK VINA RESULT:      -3.6      1.236      1.945
REMARK  2 active torsions:
REMARK  status: ('A' for Active; 'I' for Inactive)
REMARK    1  A    between atoms: C_2  and  C_3 
REMARK    2  A    between atoms: C_3  and  C_4 
ROOT
HETATM    1  C   LIG     1      17.752  37.820  24.921  1.00  0.00    -0.001 C 
ENDROOT
BRANCH   1   2
HETATM    2  C   LIG     1      16.935  37.995  23.636  1.00  0.00    -0.005 C 
HETATM    3  C   LIG     1      17.784  38.593  22.520  1.00  0.00     0.005 C 
ENDBRANCH   1   2
BRANCH   1   4
HETATM    4  C   LIG     1      17.685  36.372  25.422  1.00  0.00    -0.005 C 
HETATM    5  C   LIG     1      18.383  36.223  26.771  1.00  0.00     0.005 C 
ENDBRANCH   1   4
TORSDOF 2
ENDMDL
MODEL 9
REMARK VINA RESULT:      -3.5      4.719      6.024
REMARK  2 active torsions:
REMARK  status: ('A' for Active; 'I' for Inactive)
REMARK    1  A    between atoms: C_2  and  C_3 
REMARK    2  A    between atoms: C_3  and  C_4 
ROOT
HETATM    1  C   LIG     1      18.124  38.371  21.114  1.00  0.00    -0.001 C 
ENDROOT
BRANCH   1   2
HETATM    2  C   LIG     1      18.325  36.981  20.497  1.00  0.00    -0.005 C 
HETATM    3  C   LIG     1      17.275  35.997  21.003  1.00  0.00     0.005 C 
ENDBRANCH   1   2
BRANCH   1   4
HETATM    4  C   LIG     1      19.072  39.395  20.478  1.00  0.00    -0.005 C 
HETATM    5  C   LIG     1      20.035  38.725  19.503  1.00  0.00     0.005 C 
ENDBRANCH   1   4
TORSDOF 2
ENDMDL
MODEL 10
REMARK VINA RESULT:      -3.5      2.362      3.911
REMARK  2 active torsions:
REMARK  status: ('A' for Active; 'I' for Inactive)
REMARK    1  A    between atoms: C_2  and  C_3 
REMARK    2  A    between atoms: C_3  and  C_4 
ROOT
HETATM    1  C   LIG     1      16.938  38.807  22.645  1.00  0.00    -0.001 C 
ENDROOT
BRANCH   1   2
HETATM    2  C   LIG     1      17.859  38.263  21.548  1.00  0.00    -0.005 C 
HETATM    3  C   LIG     1      18.759  39.360  20.989  1.00  0.00     0.005 C 
ENDBRANCH   1   2
BRANCH   1   4
HETATM    4  C   LIG     1      16.689  37.750  23.728  1.00  0.00    -0.005 C 
HETATM    5  C   LIG     1      17.393  38.119  25.030  1.00  0.00     0.005 C 
ENDBRANCH   1   4
TORSDOF 2
ENDMDL
MODEL 11
REMARK VINA RESULT:      -3.4     11.271     12.486
REMARK  2 active torsions:
REMARK  status: ('A' for Active; 'I' for Inactive)
REMARK    1  A    between atoms: C_2  and  C_3 
REMARK    2  A    between atoms: C_3  and  C_4 
ROOT
HETATM    1  C   LIG     1      13.305  30.261  15.241  1.00  0.00    -0.001 C 
ENDROOT
BRANCH   1   2
HETATM    2  C   LIG     1      12.863  31.107  16.441  1.00  0.00    -0.005 C 
HETATM    3  C   LIG     1      14.062  31.746  17.135  1.00  0.00     0.005 C 
ENDBRANCH   1   2
BRANCH   1   4
HETATM    4  C   LIG     1      14.743  30.599  14.830  1.00  0.00    -0.005 C 
HETATM    5  C   LIG     1      15.289  29.574  13.840  1.00  0.00     0.005 C 
ENDBRANCH   1   4
TORSDOF 2
ENDMDL
MODEL 12
REMARK VINA RESULT:      -3.3     11.367     12.662
REMARK  2 active torsions:
REMARK  status: ('A' for Active; 'I' for Inactive)
REMARK    1  A    between atoms: C_2  and  C_3 
REMARK    2  A    between atoms: C_3  and  C_4 
ROOT
HETATM    1  C   LIG     1      13.285  30.223  15.130  1.00  0.00    -0.001 C 
ENDROOT
BRANCH   1   2
HETATM    2  C   LIG     1      14.740  30.534  14.761  1.00  0.00    -0.005 C 
HETATM    3  C   LIG     1      15.317  29.459  13.845  1.00  0.00     0.005 C 
ENDBRANCH   1   2
BRANCH   1   4
HETATM    4  C   LIG     1      12.903  30.887  16.458  1.00  0.00    -0.005 C 
HETATM    5  C   LIG     1      13.941  31.925  16.875  1.00  0.00     0.005 C 
ENDBRANCH   1   4
TORSDOF 2
ENDMDL
MODEL 13
REMARK VINA RESULT:      -3.3      2.434      3.885
REMARK  2 active torsions:
REMARK  status: ('A' for Active; 'I' for Inactive)
REMARK    1  A    between atoms: C_2  and  C_3 
REMARK    2  A    between atoms: C_3  and  C_4 
ROOT
HETATM    1  C   LIG     1      17.034  37.751  22.339  1.00  0.00    -0.001 C 
ENDROOT
BRANCH   1   2
HETATM    2  C   LIG     1      17.200  36.524  21.435  1.00  0.00    -0.005 C 
HETATM    3  C   LIG     1      16.954  35.233  22.209  1.00  0.00     0.005 C 
ENDBRANCH   1   2
BRANCH   1   4
HETATM    4  C   LIG     1      16.822  37.333  23.799  1.00  0.00    -0.005 C 
HETATM    5  C   LIG     1      17.838  38.006  24.718  1.00  0.00     0.005 C 
ENDBRANCH   1   4
TORSDOF 2
ENDMDL
MODEL 14
REMARK VINA RESULT:      -3.2     12.420     13.117
REMARK  2 active torsions:
REMARK  status: ('A' for Active; 'I' for Inactive)
REMARK    1  A    between atoms: C_2  and  C_3 
REMARK    2  A    between atoms: C_3  and  C_4 
ROOT
HETATM    1  C   LIG     1      15.171  29.886  14.373  1.00  0.00    -0.001 C 
ENDROOT
BRANCH   1   2
HETATM    2  C   LIG     1      15.481  31.016  13.385  1.00  0.00    -0.005 C 
HETATM    3  C   LIG     1      16.123  32.206  14.092  1.00  0.00     0.005 C 
ENDBRANCH   1   2
BRANCH   1   4
HETATM    4  C   LIG     1      13.659  29.729  14.570  1.00  0.00    -0.005 C 
HETATM    5  C   LIG     1      13.171  30.543  15.765  1.00  0.00     0.005 C 
ENDBRANCH   1   4
TORSDOF 2
ENDMDL
MODEL 15
REMARK VINA RESULT:      -3.2     11.983     13.275
REMARK  2 active torsions:
REMARK  status: ('A' for Active; 'I' for Inactive)
REMARK    1  A    between atoms: C_2  and  C_3 
REMARK    2  A    between atoms: C_3  and  C_4 
ROOT
HETATM    1  C   LIG     1      15.029  30.671  14.594  1.00  0.00    -0.001 C 
ENDROOT
BRANCH   1   2
HETATM    2  C   LIG     1      14.286  29.433  14.079  1.00  0.00    -0.005 C 
HETATM    3  C   LIG     1      15.259  28.308  13.740  1.00  0.00     0.005 C 
ENDBRANCH   1   2
BRANCH   1   4
HETATM    4  C   LIG     1      14.272  31.322  15.758  1.00  0.00    -0.005 C 
HETATM    5  C   LIG     1      12.963  30.590  16.042  1.00  0.00     0.005 C 
ENDBRANCH   1   4
TORSDOF 2
ENDMDL
MODEL 16
REMARK VINA RESULT:      -3.2      5.826      7.445
REMARK  2 active torsions:
REMARK  status: ('A' for Active; 'I' for Inactive)
REMARK    1  A    between atoms: C_2  and  C_3 
REMARK    2  A    between atoms: C_3  and  C_4 
ROOT
HETATM    1  C   LIG     1      20.025  39.179  18.839  1.00  0.00    -0.001 C 
ENDROOT
BRANCH   1   2
HETATM    2  C   LIG     1      18.664  39.214  18.135  1.00  0.00    -0.005 C 
HETATM    3  C   LIG     1      18.812  39.601  16.667  1.00  0.00     0.005 C 
ENDBRANCH   1   2
BRANCH   1   4
HETATM    4  C   LIG     1      19.874  38.765  20.307  1.00  0.00    -0.005 C 
HETATM    5  C   LIG     1      18.614  39.368  20.923  1.00  0.00     0.005 C 
ENDBRANCH   1   4
TORSDOF 2
ENDMDL
MODEL 17
REMARK VINA RESULT:      -3.1     11.473     12.706
REMARK  2 active torsions:
REMARK  status: ('A' for Active; 'I' for Inactive)
REMARK    1  A    between atoms: C_2  and  C_3 
REMARK    2  A    between atoms: C_3  and  C_4 
ROOT
HETATM    1  C   LIG     1      15.426  30.948  13.983  1.00  0.00    -0.001 C 
ENDROOT
BRANCH   1   2
HETATM    2  C   LIG     1      14.389  29.890  14.374  1.00  0.00    -0.005 C 
HETATM    3  C   LIG     1      13.415  30.432  15.417  1.00  0.00     0.005 C 
ENDBRANCH   1   2
BRANCH   1   4
HETATM    4  C   LIG     1      15.681  31.922  15.140  1.00  0.00    -0.005 C 
HETATM    5  C   LIG     1      16.993  32.676  14.946  1.00  0.00     0.005 C 
ENDBRANCH   1   4
TORSDOF 2
ENDMDL
MODEL 18
REMARK VINA RESULT:      -3.1     10.746     11.938
REMARK  2 active torsions:
REMARK  status: ('A' for Active; 'I' for Inactive)
REMARK    1  A    between atoms: C_2  and  C_3 
REMARK    2  A    between atoms: C_3  and  C_4 
ROOT
HETATM    1  C   LIG     1      14.558  31.380  15.711  1.00  0.00    -0.001 C 
ENDROOT
BRANCH   1   2
HETATM    2  C   LIG     1      13.629  31.536  16.920  1.00  0.00    -0.005 C 
HETATM    3  C   LIG     1      14.417  31.884  18.179  1.00  0.00     0.005 C 
ENDBRANCH   1   2
BRANCH   1   4
HETATM    4  C   LIG     1      14.135  30.189  14.843  1.00  0.00    -0.005 C 
HETATM    5  C   LIG     1      15.190  29.874  13.787  1.00  0.00     0.005 C 
ENDBRANCH   1   4
TORSDOF 2
ENDMDL
MODEL 19
REMARK VINA RESULT:      -3.1      9.336     10.599
REMARK  2 active torsions:
REMARK  status: ('A' for Active; 'I' for Inactive)
REMARK    1  A    between atoms: C_2  and  C_3 
REMARK    2  A    between atoms: C_3  and  C_4 
ROOT
HETATM    1  C   LIG     1      14.716  32.060  16.709  1.00  0.00    -0.001 C 
ENDROOT
BRANCH   1   2
HETATM    2  C   LIG     1      13.305  31.462  16.739  1.00  0.00    -0.005 C 
HETATM    3  C   LIG     1      13.097  30.483  15.588  1.00  0.00     0.005 C 
ENDBRANCH   1   2
BRANCH   1   4
HETATM    4  C   LIG     1      15.072  32.697  18.057  1.00  0.00    -0.005 C 
HETATM    5  C   LIG     1      14.803  31.734  19.210  1.00  0.00     0.005 C 
ENDBRANCH   1   4
TORSDOF 2
ENDMDL
MODEL 20
REMARK VINA RESULT:      -3.1      2.342      3.181
REMARK  2 active torsions:
REMARK  status: ('A' for Active; 'I' for Inactive)
REMARK    1  A    between atoms: C_2  and  C_3 
REMARK    2  A    between atoms: C_3  and  C_4 
ROOT
HETATM    1  C   LIG     1      16.733  37.206  22.582  1.00  0.00    -0.001 C 
ENDROOT
BRANCH   1   2
HETATM    2  C   LIG     1      17.042  38.054  23.820  1.00  0.00    -0.005 C 
HETATM    3  C   LIG     1      17.436  37.178  25.005  1.00  0.00     0.005 C 
ENDBRANCH   1   2
BRANCH   1   4
HETATM    4  C   LIG     1      16.882  35.711  22.889  1.00  0.00    -0.005 C 
HETATM    5  C   LIG     1      16.203  34.858  21.822  1.00  0.00     0.005 C 
ENDBRANCH   1   4
TORSDOF 2
ENDMDL
