MODEL 1
REMARK VINA RESULT:      -4.0      0.000      0.000
REMARK  0 active torsions:
REMARK  status: ('A' for Active; 'I' for Inactive)
ROOT
HETATM    1  C   LIG     1      18.408  36.207  26.637  1.00  0.00     0.028 C 
HETATM    2  C   LIG     1      17.825  34.882  26.265  1.00  0.00     0.028 C 
HETATM    3  C   LIG     1      17.371  35.100  24.837  1.00  0.00     0.167 C 
HETATM    4  O   LIG     1      17.170  36.477  24.613  1.00  0.00    -0.391 OA
HETATM    5  C   LIG     1      17.664  37.170  25.737  1.00  0.00     0.167 C 
ENDROOT
TORSDOF 0
ENDMDL
MODEL 2
REMARK VINA RESULT:      -3.5      6.031      6.496
REMARK  0 active torsions:
REMARK  status: ('A' for Active; 'I' for Inactive)
ROOT
HETATM    1  C   LIG     1      18.443  37.882  20.703  1.00  0.00     0.028 C 
HETATM    2  C   LIG     1      19.247  37.360  19.555  1.00  0.00     0.028 C 
HETATM    3  C   LIG     1      20.345  38.393  19.413  1.00  0.00     0.167 C 
HETATM    4  O   LIG     1      19.918  39.613  19.975  1.00  0.00    -0.391 OA
HETATM    5  C   LIG     1      18.704  39.372  20.650  1.00  0.00     0.167 C 
ENDROOT
TORSDOF 0
ENDMDL
MODEL 3
REMARK VINA RESULT:      -3.4      2.886      3.854
REMARK  0 active torsions:
REMARK  status: ('A' for Active; 'I' for Inactive)
ROOT
HETATM    1  C   LIG     1      17.056  37.834  22.124  1.00  0.00     0.028 C 
HETATM    2  C   LIG     1      17.980  38.546  23.058  1.00  0.00     0.028 C 
HETATM    3  C   LIG     1      17.386  38.244  24.418  1.00  0.00     0.167 C 
HETATM    4  O   LIG     1      16.022  37.924  24.274  1.00  0.00    -0.391 OA
HETATM    5  C   LIG     1      15.754  37.798  22.895  1.00  0.00     0.167 C 
ENDROOT
TORSDOF 0
ENDMDL
MODEL 4
REMARK VINA RESULT:      -3.3      5.575      6.269
REMARK  0 active torsions:
REMARK  status: ('A' for Active; 'I' for Inactive)
ROOT
HETATM    1  C   LIG     1      19.896  38.566  19.614  1.00  0.00     0.028 C 
HETATM    2  C   LIG     1      18.991  39.429  20.432  1.00  0.00     0.028 C 
HETATM    3  C   LIG     1      18.203  38.422  21.243  1.00  0.00     0.167 C 
HETATM    4  O   LIG     1      18.213  37.177  20.583  1.00  0.00    -0.391 OA
HETATM    5  C   LIG     1      19.126  37.266  19.512  1.00  0.00     0.167 C 
ENDROOT
TORSDOF 0
ENDMDL
MODEL 5
REMARK VINA RESULT:      -3.1      4.154      4.891
REMARK  0 active torsions:
REMARK  status: ('A' for Active; 'I' for Inactive)
ROOT
HETATM    1  C   LIG     1      17.029  38.911  22.493  1.00  0.00     0.028 C 
HETATM    2  C   LIG     1      18.330  39.292  21.864  1.00  0.00     0.028 C 
HETATM    3  C   LIG     1      18.491  38.262  20.765  1.00  0.00     0.167 C 
HETATM    4  O   LIG     1      17.730  37.118  21.079  1.00  0.00    -0.391 OA
HETATM    5  C   LIG     1      16.931  37.428  22.199  1.00  0.00     0.167 C 
ENDROOT
TORSDOF 0
ENDMDL
MODEL 6
REMARK VINA RESULT:      -3.0     12.077     12.863
REMARK  0 active torsions:
REMARK  status: ('A' for Active; 'I' for Inactive)
ROOT
HETATM    1  C   LIG     1      13.908  29.670  14.422  1.00  0.00     0.028 C 
HETATM    2  C   LIG     1      14.129  30.710  15.472  1.00  0.00     0.028 C 
HETATM    3  C   LIG     1      15.345  31.455  14.962  1.00  0.00     0.167 C 
HETATM    4  O   LIG     1      16.072  30.623  14.087  1.00  0.00    -0.391 OA
HETATM    5  C   LIG     1      15.293  29.473  13.842  1.00  0.00     0.167 C 
ENDROOT
TORSDOF 0
ENDMDL
MODEL 7
REMARK VINA RESULT:      -3.0      4.925      5.445
REMARK  0 active torsions:
REMARK  status: ('A' for Active; 'I' for Inactive)
ROOT
HETATM    1  C   LIG     1      18.637  38.339  21.028  1.00  0.00     0.028 C 
HETATM    2  C   LIG     1      17.468  37.567  21.551  1.00  0.00     0.028 C 
HETATM    3  C   LIG     1      17.569  36.253  20.804  1.00  0.00     0.167 C 
HETATM    4  O   LIG     1      18.303  36.443  19.616  1.00  0.00    -0.391 OA
HETATM    5  C   LIG     1      18.853  37.740  19.654  1.00  0.00     0.167 C 
ENDROOT
TORSDOF 0
ENDMDL
MODEL 8
REMARK VINA RESULT:      -3.0     10.176     11.162
REMARK  0 active torsions:
REMARK  status: ('A' for Active; 'I' for Inactive)
ROOT
HETATM    1  C   LIG     1      14.872  31.966  16.119  1.00  0.00     0.028 C 
HETATM    2  C   LIG     1      14.395  30.760  15.376  1.00  0.00     0.028 C 
HETATM    3  C   LIG     1      12.955  30.630  15.831  1.00  0.00     0.167 C 
HETATM    4  O   LIG     1      12.795  31.276  17.073  1.00  0.00    -0.391 OA
HETATM    5  C   LIG     1      13.983  31.986  17.344  1.00  0.00     0.167 C 
ENDROOT
TORSDOF 0
ENDMDL
MODEL 9
REMARK VINA RESULT:      -3.0      6.332      6.902
REMARK  0 active torsions:
REMARK  status: ('A' for Active; 'I' for Inactive)
ROOT
HETATM    1  C   LIG     1      12.537  32.116  27.046  1.00  0.00     0.028 C 
HETATM    2  C   LIG     1      12.558  30.629  26.902  1.00  0.00     0.028 C 
HETATM    3  C   LIG     1      13.460  30.192  28.038  1.00  0.00     0.167 C 
HETATM    4  O   LIG     1      14.302  31.260  28.407  1.00  0.00    -0.391 OA
HETATM    5  C   LIG     1      13.857  32.412  27.726  1.00  0.00     0.167 C 
ENDROOT
TORSDOF 0
ENDMDL
MODEL 10
REMARK VINA RESULT:      -2.9      2.627      3.709
REMARK  0 active torsions:
REMARK  status: ('A' for Active; 'I' for Inactive)
ROOT
HETATM    1  C   LIG     1      17.090  36.599  21.653  1.00  0.00     0.028 C 
HETATM    2  C   LIG     1      16.728  37.487  22.799  1.00  0.00     0.028 C 
HETATM    3  C   LIG     1      17.091  36.647  24.006  1.00  0.00     0.167 C 
HETATM    4  O   LIG     1      17.095  35.284  23.645  1.00  0.00    -0.391 OA
HETATM    5  C   LIG     1      16.963  35.211  22.244  1.00  0.00     0.167 C 
ENDROOT
TORSDOF 0
ENDMDL
MODEL 11
REMARK VINA RESULT:      -2.9      4.082      4.870
REMARK  0 active torsions:
REMARK  status: ('A' for Active; 'I' for Inactive)
ROOT
HETATM    1  C   LIG     1      16.329  35.020  20.850  1.00  0.00     0.028 C 
HETATM    2  C   LIG     1      17.356  36.102  20.944  1.00  0.00     0.028 C 
HETATM    3  C   LIG     1      16.808  36.997  22.035  1.00  0.00     0.167 C 
HETATM    4  O   LIG     1      15.415  36.809  22.141  1.00  0.00    -0.391 OA
HETATM    5  C   LIG     1      15.069  35.706  21.335  1.00  0.00     0.167 C 
ENDROOT
TORSDOF 0
ENDMDL
MODEL 12
REMARK VINA RESULT:      -2.9     10.696     11.487
REMARK  0 active torsions:
REMARK  status: ('A' for Active; 'I' for Inactive)
ROOT
HETATM    1  C   LIG     1      13.151  30.696  16.003  1.00  0.00     0.028 C 
HETATM    2  C   LIG     1      13.796  31.535  17.058  1.00  0.00     0.028 C 
HETATM    3  C   LIG     1      14.907  32.235  16.303  1.00  0.00     0.167 C 
HETATM    4  O   LIG     1      15.239  31.487  15.156  1.00  0.00    -0.391 OA
HETATM    5  C   LIG     1      14.277  30.466  15.017  1.00  0.00     0.167 C 
ENDROOT
TORSDOF 0
ENDMDL
MODEL 13
REMARK VINA RESULT:      -2.9     11.888     12.464
REMARK  0 active torsions:
REMARK  status: ('A' for Active; 'I' for Inactive)
ROOT
HETATM    1  C   LIG     1      15.337  30.687  13.547  1.00  0.00     0.028 C 
HETATM    2  C   LIG     1      14.469  29.749  14.322  1.00  0.00     0.028 C 
HETATM    3  C   LIG     1      13.985  30.606  15.473  1.00  0.00     0.167 C 
HETATM    4  O   LIG     1      14.885  31.672  15.675  1.00  0.00    -0.391 OA
HETATM    5  C   LIG     1      15.799  31.672  14.601  1.00  0.00     0.167 C 
ENDROOT
TORSDOF 0
ENDMDL
MODEL 14
REMARK VINA RESULT:      -2.9      7.752      8.596
REMARK  0 active torsions:
REMARK  status: ('A' for Active; 'I' for Inactive)
ROOT
HETATM    1  C   LIG     1      15.355  32.865  19.522  1.00  0.00     0.028 C 
HETATM    2  C   LIG     1      15.277  32.931  18.031  1.00  0.00     0.028 C 
HETATM    3  C   LIG     1      14.194  31.925  17.703  1.00  0.00     0.167 C 
HETATM    4  O   LIG     1      14.082  30.996  18.757  1.00  0.00    -0.391 OA
HETATM    5  C   LIG     1      14.874  31.461  19.825  1.00  0.00     0.167 C 
ENDROOT
TORSDOF 0
ENDMDL
MODEL 15
REMARK VINA RESULT:      -2.9      9.526     10.263
REMARK  0 active torsions:
REMARK  status: ('A' for Active; 'I' for Inactive)
ROOT
HETATM    1  C   LIG     1      15.686  32.213  15.426  1.00  0.00     0.028 C 
HETATM    2  C   LIG     1      14.973  32.491  16.710  1.00  0.00     0.028 C 
HETATM    3  C   LIG     1      15.075  33.997  16.836  1.00  0.00     0.167 C 
HETATM    4  O   LIG     1      16.172  34.458  16.080  1.00  0.00    -0.391 OA
HETATM    5  C   LIG     1      16.651  33.375  15.315  1.00  0.00     0.167 C 
ENDROOT
TORSDOF 0
ENDMDL
MODEL 16
REMARK VINA RESULT:      -2.7     10.582     11.521
REMARK  0 active torsions:
REMARK  status: ('A' for Active; 'I' for Inactive)
ROOT
HETATM    1  C   LIG     1      15.351  31.396  14.752  1.00  0.00     0.028 C 
HETATM    2  C   LIG     1      16.152  32.135  13.729  1.00  0.00     0.028 C 
HETATM    3  C   LIG     1      17.096  32.966  14.574  1.00  0.00     0.167 C 
HETATM    4  O   LIG     1      16.544  33.144  15.858  1.00  0.00    -0.391 OA
HETATM    5  C   LIG     1      15.410  32.311  15.957  1.00  0.00     0.167 C 
ENDROOT
TORSDOF 0
ENDMDL
MODEL 17
REMARK VINA RESULT:      -2.6     11.320     12.041
REMARK  0 active torsions:
REMARK  status: ('A' for Active; 'I' for Inactive)
ROOT
HETATM    1  C   LIG     1      16.208  32.652  15.474  1.00  0.00     0.028 C 
HETATM    2  C   LIG     1      17.401  33.276  14.824  1.00  0.00     0.028 C 
HETATM    3  C   LIG     1      17.179  32.981  13.355  1.00  0.00     0.167 C 
HETATM    4  O   LIG     1      16.329  31.865  13.223  1.00  0.00    -0.391 OA
HETATM    5  C   LIG     1      15.827  31.554  14.503  1.00  0.00     0.167 C 
ENDROOT
TORSDOF 0
ENDMDL
MODEL 18
REMARK VINA RESULT:      -2.6      6.598      7.328
REMARK  0 active torsions:
REMARK  status: ('A' for Active; 'I' for Inactive)
ROOT
HETATM    1  C   LIG     1      15.697  33.537  20.375  1.00  0.00     0.028 C 
HETATM    2  C   LIG     1      15.062  32.358  19.711  1.00  0.00     0.028 C 
HETATM    3  C   LIG     1      15.243  32.659  18.238  1.00  0.00     0.167 C 
HETATM    4  O   LIG     1      15.411  34.047  18.060  1.00  0.00    -0.391 OA
HETATM    5  C   LIG     1      15.555  34.629  19.336  1.00  0.00     0.167 C 
ENDROOT
TORSDOF 0
ENDMDL
MODEL 19
REMARK VINA RESULT:      -2.5      6.258      6.945
REMARK  0 active torsions:
REMARK  status: ('A' for Active; 'I' for Inactive)
ROOT
HETATM    1  C   LIG     1      13.126  30.212  27.876  1.00  0.00     0.028 C 
HETATM    2  C   LIG     1      13.944  31.418  28.209  1.00  0.00     0.028 C 
HETATM    3  C   LIG     1      13.282  32.511  27.396  1.00  0.00     0.167 C 
HETATM    4  O   LIG     1      12.584  31.935  26.315  1.00  0.00    -0.391 OA
HETATM    5  C   LIG     1      12.583  30.538  26.501  1.00  0.00     0.167 C 
ENDROOT
TORSDOF 0
ENDMDL
MODEL 20
REMARK VINA RESULT:      -2.4     15.752     16.210
REMARK  0 active torsions:
REMARK  status: ('A' for Active; 'I' for Inactive)
ROOT
HETATM    1  C   LIG     1      21.452  23.940  36.353  1.00  0.00     0.028 C 
HETATM    2  C   LIG     1      22.412  23.538  35.280  1.00  0.00     0.028 C 
HETATM    3  C   LIG     1      21.513  23.345  34.076  1.00  0.00     0.167 C 
HETATM    4  O   LIG     1      20.196  23.088  34.509  1.00  0.00    -0.391 OA
HETATM    5  C   LIG     1      20.152  23.308  35.901  1.00  0.00     0.167 C 
ENDROOT
TORSDOF 0
ENDMDL
