MODEL 1
REMARK VINA RESULT:      -4.1      0.000      0.000
REMARK  0 active torsions:
REMARK  status: ('A' for Active; 'I' for Inactive)
ROOT
HETATM    1  C   LIG     1      17.921  34.784  25.978  1.00  0.00     0.310 C 
HETATM    2  N   LIG     1      17.236  35.961  25.424  1.00  0.00     0.088 N 
HETATM    3  C   LIG     1      17.894  37.202  25.877  1.00  0.00     0.298 C 
HETATM    4  C   LIG     1      17.349  38.425  25.112  1.00  0.00     0.198 C 
HETATM    5  O   LIG     1      16.185  38.092  24.383  1.00  0.00    -0.388 OA
HETATM    6  C   LIG     1      16.505  37.145  23.378  1.00  0.00     0.198 C 
HETATM    7  C   LIG     1      17.220  35.903  23.952  1.00  0.00     0.298 C 
ENDROOT
TORSDOF 0
ENDMDL
MODEL 2
REMARK VINA RESULT:      -3.9      1.705      2.402
REMARK  0 active torsions:
REMARK  status: ('A' for Active; 'I' for Inactive)
ROOT
HETATM    1  C   LIG     1      16.829  35.190  22.077  1.00  0.00     0.310 C 
HETATM    2  N   LIG     1      16.664  36.489  22.746  1.00  0.00     0.088 N 
HETATM    3  C   LIG     1      17.186  36.429  24.125  1.00  0.00     0.298 C 
HETATM    4  C   LIG     1      17.251  37.837  24.751  1.00  0.00     0.198 C 
HETATM    5  O   LIG     1      16.548  38.777  23.963  1.00  0.00    -0.388 OA
HETATM    6  C   LIG     1      17.178  38.909  22.701  1.00  0.00     0.198 C 
HETATM    7  C   LIG     1      17.350  37.549  21.989  1.00  0.00     0.298 C 
ENDROOT
TORSDOF 0
ENDMDL
MODEL 3
REMARK VINA RESULT:      -3.8      1.597      2.528
REMARK  0 active torsions:
REMARK  status: ('A' for Active; 'I' for Inactive)
ROOT
HETATM    1  C   LIG     1      16.584  35.765  22.391  1.00  0.00     0.310 C 
HETATM    2  N   LIG     1      17.305  36.155  23.612  1.00  0.00     0.088 N 
HETATM    3  C   LIG     1      16.812  37.454  24.110  1.00  0.00     0.298 C 
HETATM    4  C   LIG     1      17.374  37.754  25.514  1.00  0.00     0.198 C 
HETATM    5  O   LIG     1      18.417  36.860  25.847  1.00  0.00    -0.388 OA
HETATM    6  C   LIG     1      17.907  35.541  25.932  1.00  0.00     0.198 C 
HETATM    7  C   LIG     1      17.153  35.122  24.651  1.00  0.00     0.298 C 
ENDROOT
TORSDOF 0
ENDMDL
MODEL 4
REMARK VINA RESULT:      -3.7      2.270      3.636
REMARK  0 active torsions:
REMARK  status: ('A' for Active; 'I' for Inactive)
ROOT
HETATM    1  C   LIG     1      18.757  39.251  21.543  1.00  0.00     0.310 C 
HETATM    2  N   LIG     1      17.735  38.856  22.523  1.00  0.00     0.088 N 
HETATM    3  C   LIG     1      16.955  37.708  22.021  1.00  0.00     0.298 C 
HETATM    4  C   LIG     1      16.055  37.127  23.131  1.00  0.00     0.198 C 
HETATM    5  O   LIG     1      15.997  37.993  24.246  1.00  0.00    -0.388 OA
HETATM    6  C   LIG     1      17.281  38.099  24.836  1.00  0.00     0.198 C 
HETATM    7  C   LIG     1      18.361  38.519  23.814  1.00  0.00     0.298 C 
ENDROOT
TORSDOF 0
ENDMDL
MODEL 5
REMARK VINA RESULT:      -3.6      1.321      2.161
REMARK  0 active torsions:
REMARK  status: ('A' for Active; 'I' for Inactive)
ROOT
HETATM    1  C   LIG     1      18.279  36.271  26.775  1.00  0.00     0.310 C 
HETATM    2  N   LIG     1      17.975  36.368  25.340  1.00  0.00     0.088 N 
HETATM    3  C   LIG     1      17.402  35.101  24.847  1.00  0.00     0.298 C 
HETATM    4  C   LIG     1      16.849  35.267  23.417  1.00  0.00     0.198 C 
HETATM    5  O   LIG     1      17.271  36.489  22.846  1.00  0.00    -0.388 OA
HETATM    6  C   LIG     1      16.723  37.572  23.577  1.00  0.00     0.198 C 
HETATM    7  C   LIG     1      17.043  37.480  25.085  1.00  0.00     0.298 C 
ENDROOT
TORSDOF 0
ENDMDL
MODEL 6
REMARK VINA RESULT:      -3.6      2.346      3.314
REMARK  0 active torsions:
REMARK  status: ('A' for Active; 'I' for Inactive)
ROOT
HETATM    1  C   LIG     1      17.123  37.849  25.062  1.00  0.00     0.310 C 
HETATM    2  N   LIG     1      17.548  37.735  23.659  1.00  0.00     0.088 N 
HETATM    3  C   LIG     1      16.837  36.627  22.992  1.00  0.00     0.298 C 
HETATM    4  C   LIG     1      17.080  36.653  21.469  1.00  0.00     0.198 C 
HETATM    5  O   LIG     1      18.124  37.546  21.136  1.00  0.00    -0.388 OA
HETATM    6  C   LIG     1      17.745  38.870  21.468  1.00  0.00     0.198 C 
HETATM    7  C   LIG     1      17.302  38.999  22.942  1.00  0.00     0.298 C 
ENDROOT
TORSDOF 0
ENDMDL
MODEL 7
REMARK VINA RESULT:      -3.6      1.574      3.159
REMARK  0 active torsions:
REMARK  status: ('A' for Active; 'I' for Inactive)
ROOT
HETATM    1  C   LIG     1      16.531  37.931  23.151  1.00  0.00     0.310 C 
HETATM    2  N   LIG     1      16.841  37.134  24.347  1.00  0.00     0.088 N 
HETATM    3  C   LIG     1      17.067  35.722  23.983  1.00  0.00     0.298 C 
HETATM    4  C   LIG     1      17.635  34.929  25.177  1.00  0.00     0.198 C 
HETATM    5  O   LIG     1      17.538  35.673  26.375  1.00  0.00    -0.388 OA
HETATM    6  C   LIG     1      18.350  36.831  26.286  1.00  0.00     0.198 C 
HETATM    7  C   LIG     1      18.026  37.676  25.034  1.00  0.00     0.298 C 
ENDROOT
TORSDOF 0
ENDMDL
MODEL 8
REMARK VINA RESULT:      -3.5      2.982      3.896
REMARK  0 active torsions:
REMARK  status: ('A' for Active; 'I' for Inactive)
ROOT
HETATM    1  C   LIG     1      18.654  39.147  20.698  1.00  0.00     0.310 C 
HETATM    2  N   LIG     1      18.083  38.194  21.660  1.00  0.00     0.088 N 
HETATM    3  C   LIG     1      16.957  38.809  22.390  1.00  0.00     0.298 C 
HETATM    4  C   LIG     1      16.194  37.753  23.215  1.00  0.00     0.198 C 
HETATM    5  O   LIG     1      16.916  36.540  23.283  1.00  0.00    -0.388 OA
HETATM    6  C   LIG     1      17.029  35.978  21.987  1.00  0.00     0.198 C 
HETATM    7  C   LIG     1      17.633  36.972  20.971  1.00  0.00     0.298 C 
ENDROOT
TORSDOF 0
ENDMDL
MODEL 9
REMARK VINA RESULT:      -3.5      4.557      5.481
REMARK  0 active torsions:
REMARK  status: ('A' for Active; 'I' for Inactive)
ROOT
HETATM    1  C   LIG     1      17.543  38.824  22.472  1.00  0.00     0.310 C 
HETATM    2  N   LIG     1      18.518  38.370  21.470  1.00  0.00     0.088 N 
HETATM    3  C   LIG     1      17.984  37.221  20.713  1.00  0.00     0.298 C 
HETATM    4  C   LIG     1      18.881  36.896  19.501  1.00  0.00     0.198 C 
HETATM    5  O   LIG     1      20.111  37.587  19.577  1.00  0.00    -0.388 OA
HETATM    6  C   LIG     1      19.881  38.983  19.497  1.00  0.00     0.198 C 
HETATM    7  C   LIG     1      18.861  39.469  20.550  1.00  0.00     0.298 C 
ENDROOT
TORSDOF 0
ENDMDL
MODEL 10
REMARK VINA RESULT:      -3.4      3.053      3.642
REMARK  0 active torsions:
REMARK  status: ('A' for Active; 'I' for Inactive)
ROOT
HETATM    1  C   LIG     1      16.523  35.135  21.828  1.00  0.00     0.310 C 
HETATM    2  N   LIG     1      17.203  36.419  22.050  1.00  0.00     0.088 N 
HETATM    3  C   LIG     1      17.849  36.882  20.806  1.00  0.00     0.298 C 
HETATM    4  C   LIG     1      18.348  38.334  20.953  1.00  0.00     0.198 C 
HETATM    5  O   LIG     1      18.310  38.752  22.303  1.00  0.00    -0.388 OA
HETATM    6  C   LIG     1      16.969  38.779  22.757  1.00  0.00     0.198 C 
HETATM    7  C   LIG     1      16.248  37.432  22.533  1.00  0.00     0.298 C 
ENDROOT
TORSDOF 0
ENDMDL
MODEL 11
REMARK VINA RESULT:      -3.3      2.219      3.279
REMARK  0 active torsions:
REMARK  status: ('A' for Active; 'I' for Inactive)
ROOT
HETATM    1  C   LIG     1      16.945  38.919  22.638  1.00  0.00     0.310 C 
HETATM    2  N   LIG     1      17.147  37.468  22.767  1.00  0.00     0.088 N 
HETATM    3  C   LIG     1      17.117  37.067  24.187  1.00  0.00     0.298 C 
HETATM    4  C   LIG     1      17.075  35.532  24.324  1.00  0.00     0.198 C 
HETATM    5  O   LIG     1      17.352  34.902  23.089  1.00  0.00    -0.388 OA
HETATM    6  C   LIG     1      16.332  35.213  22.156  1.00  0.00     0.198 C 
HETATM    7  C   LIG     1      16.117  36.735  22.010  1.00  0.00     0.298 C 
ENDROOT
TORSDOF 0
ENDMDL
MODEL 12
REMARK VINA RESULT:      -3.2     10.445     11.235
REMARK  0 active torsions:
REMARK  status: ('A' for Active; 'I' for Inactive)
ROOT
HETATM    1  C   LIG     1      13.871  31.427  16.933  1.00  0.00     0.310 C 
HETATM    2  N   LIG     1      14.579  31.866  15.722  1.00  0.00     0.088 N 
HETATM    3  C   LIG     1      15.865  32.498  16.076  1.00  0.00     0.298 C 
HETATM    4  C   LIG     1      16.727  32.735  14.819  1.00  0.00     0.198 C 
HETATM    5  O   LIG     1      15.970  32.546  13.640  1.00  0.00    -0.388 OA
HETATM    6  C   LIG     1      15.556  31.194  13.550  1.00  0.00     0.198 C 
HETATM    7  C   LIG     1      14.807  30.726  14.817  1.00  0.00     0.298 C 
ENDROOT
TORSDOF 0
ENDMDL
MODEL 13
REMARK VINA RESULT:      -3.2     10.004     10.915
REMARK  0 active torsions:
REMARK  status: ('A' for Active; 'I' for Inactive)
ROOT
HETATM    1  C   LIG     1      14.498  29.802  14.258  1.00  0.00     0.310 C 
HETATM    2  N   LIG     1      14.993  30.717  15.297  1.00  0.00     0.088 N 
HETATM    3  C   LIG     1      15.643  31.892  14.684  1.00  0.00     0.298 C 
HETATM    4  C   LIG     1      15.942  32.972  15.743  1.00  0.00     0.198 C 
HETATM    5  O   LIG     1      15.774  32.462  17.051  1.00  0.00    -0.388 OA
HETATM    6  C   LIG     1      14.417  32.113  17.258  1.00  0.00     0.198 C 
HETATM    7  C   LIG     1      13.890  31.148  16.173  1.00  0.00     0.298 C 
ENDROOT
TORSDOF 0
ENDMDL
MODEL 14
REMARK VINA RESULT:      -3.1     10.859     11.789
REMARK  0 active torsions:
REMARK  status: ('A' for Active; 'I' for Inactive)
ROOT
HETATM    1  C   LIG     1      14.161  32.155  17.444  1.00  0.00     0.310 C 
HETATM    2  N   LIG     1      14.395  31.156  16.390  1.00  0.00     0.088 N 
HETATM    3  C   LIG     1      13.112  30.646  15.869  1.00  0.00     0.298 C 
HETATM    4  C   LIG     1      13.332  29.794  14.602  1.00  0.00     0.198 C 
HETATM    5  O   LIG     1      14.701  29.492  14.424  1.00  0.00    -0.388 OA
HETATM    6  C   LIG     1      15.428  30.686  14.191  1.00  0.00     0.198 C 
HETATM    7  C   LIG     1      15.192  31.738  15.296  1.00  0.00     0.298 C 
ENDROOT
TORSDOF 0
ENDMDL
MODEL 15
REMARK VINA RESULT:      -3.1      9.938     10.744
REMARK  0 active torsions:
REMARK  status: ('A' for Active; 'I' for Inactive)
ROOT
HETATM    1  C   LIG     1      16.806  32.493  15.209  1.00  0.00     0.310 C 
HETATM    2  N   LIG     1      15.673  31.826  15.868  1.00  0.00     0.088 N 
HETATM    3  C   LIG     1      14.838  32.812  16.582  1.00  0.00     0.298 C 
HETATM    4  C   LIG     1      13.520  32.172  17.063  1.00  0.00     0.198 C 
HETATM    5  O   LIG     1      13.566  30.764  16.945  1.00  0.00    -0.388 OA
HETATM    6  C   LIG     1      13.671  30.401  15.579  1.00  0.00     0.198 C 
HETATM    7  C   LIG     1      14.862  31.094  14.881  1.00  0.00     0.298 C 
ENDROOT
TORSDOF 0
ENDMDL
MODEL 16
REMARK VINA RESULT:      -3.1      2.959      3.888
REMARK  0 active torsions:
REMARK  status: ('A' for Active; 'I' for Inactive)
ROOT
HETATM    1  C   LIG     1      17.003  35.082  24.073  1.00  0.00     0.310 C 
HETATM    2  N   LIG     1      17.205  35.361  22.644  1.00  0.00     0.088 N 
HETATM    3  C   LIG     1      16.081  34.828  21.849  1.00  0.00     0.298 C 
HETATM    4  C   LIG     1      16.152  35.327  20.392  1.00  0.00     0.198 C 
HETATM    5  O   LIG     1      17.400  35.931  20.120  1.00  0.00    -0.388 OA
HETATM    6  C   LIG     1      17.551  37.096  20.913  1.00  0.00     0.198 C 
HETATM    7  C   LIG     1      17.345  36.810  22.416  1.00  0.00     0.298 C 
ENDROOT
TORSDOF 0
ENDMDL
MODEL 17
REMARK VINA RESULT:      -3.0     11.334     12.353
REMARK  0 active torsions:
REMARK  status: ('A' for Active; 'I' for Inactive)
ROOT
HETATM    1  C   LIG     1      16.538  32.447  13.601  1.00  0.00     0.310 C 
HETATM    2  N   LIG     1      15.353  31.718  14.076  1.00  0.00     0.088 N 
HETATM    3  C   LIG     1      15.382  30.321  13.601  1.00  0.00     0.298 C 
HETATM    4  C   LIG     1      14.287  29.482  14.291  1.00  0.00     0.198 C 
HETATM    5  O   LIG     1      13.373  30.309  14.983  1.00  0.00    -0.388 OA
HETATM    6  C   LIG     1      14.038  30.980  16.038  1.00  0.00     0.198 C 
HETATM    7  C   LIG     1      15.282  31.753  15.547  1.00  0.00     0.298 C 
ENDROOT
TORSDOF 0
ENDMDL
MODEL 18
REMARK VINA RESULT:      -2.8     12.985     13.841
REMARK  0 active torsions:
REMARK  status: ('A' for Active; 'I' for Inactive)
ROOT
HETATM    1  C   LIG     1      18.127  33.816  13.738  1.00  0.00     0.310 C 
HETATM    2  N   LIG     1      18.764  33.687  12.420  1.00  0.00     0.088 N 
HETATM    3  C   LIG     1      18.281  34.743  11.508  1.00  0.00     0.298 C 
HETATM    4  C   LIG     1      19.117  34.777  10.213  1.00  0.00     0.198 C 
HETATM    5  O   LIG     1      19.939  33.631  10.107  1.00  0.00    -0.388 OA
HETATM    6  C   LIG     1      20.891  33.628  11.156  1.00  0.00     0.198 C 
HETATM    7  C   LIG     1      20.229  33.757  12.546  1.00  0.00     0.298 C 
ENDROOT
TORSDOF 0
ENDMDL
MODEL 19
REMARK VINA RESULT:      -2.6      8.390      9.354
REMARK  0 active torsions:
REMARK  status: ('A' for Active; 'I' for Inactive)
ROOT
HETATM    1  C   LIG     1      15.180  31.639  14.921  1.00  0.00     0.310 C 
HETATM    2  N   LIG     1      15.369  32.095  16.305  1.00  0.00     0.088 N 
HETATM    3  C   LIG     1      15.299  33.568  16.377  1.00  0.00     0.298 C 
HETATM    4  C   LIG     1      15.244  34.046  17.842  1.00  0.00     0.198 C 
HETATM    5  O   LIG     1      15.549  32.991  18.733  1.00  0.00    -0.388 OA
HETATM    6  C   LIG     1      14.556  31.985  18.640  1.00  0.00     0.198 C 
HETATM    7  C   LIG     1      14.354  31.496  17.189  1.00  0.00     0.298 C 
ENDROOT
TORSDOF 0
ENDMDL
MODEL 20
REMARK VINA RESULT:      -2.5     15.459     16.158
REMARK  0 active torsions:
REMARK  status: ('A' for Active; 'I' for Inactive)
ROOT
HETATM    1  C   LIG     1      27.110  28.667  33.717  1.00  0.00     0.310 C 
HETATM    2  N   LIG     1      26.470  29.200  34.929  1.00  0.00     0.088 N 
HETATM    3  C   LIG     1      27.034  28.562  36.134  1.00  0.00     0.298 C 
HETATM    4  C   LIG     1      26.558  29.282  37.412  1.00  0.00     0.198 C 
HETATM    5  O   LIG     1      25.503  30.180  37.128  1.00  0.00    -0.388 OA
HETATM    6  C   LIG     1      25.971  31.213  36.279  1.00  0.00     0.198 C 
HETATM    7  C   LIG     1      26.641  30.661  35.002  1.00  0.00     0.298 C 
ENDROOT
TORSDOF 0
ENDMDL
