MODEL 1
REMARK VINA RESULT:      -4.0      0.000      0.000
REMARK  2 active torsions:
REMARK  status: ('A' for Active; 'I' for Inactive)
REMARK    1  A    between atoms: C_2  and  C_3 
REMARK    2  A    between atoms: C_3  and  C_4 
ROOT
HETATM    1  C   LIG     1      18.564  36.935  26.156  1.00  0.00     0.015 C 
ENDROOT
BRANCH   1   2
HETATM    2  C   LIG     1      17.405  37.703  25.505  1.00  0.00     0.114 C 
HETATM    3 CL   LIG     1      17.828  38.266  23.865  1.00  0.00    -0.130 Cl
ENDBRANCH   1   2
BRANCH   1   4
HETATM    4  C   LIG     1      18.255  35.450  26.409  1.00  0.00    -0.004 C 
HETATM    5  C   LIG     1      17.356  34.831  25.342  1.00  0.00     0.005 C 
ENDBRANCH   1   4
TORSDOF 2
ENDMDL
MODEL 2
REMARK VINA RESULT:      -3.8      1.752      2.445
REMARK  2 active torsions:
REMARK  status: ('A' for Active; 'I' for Inactive)
REMARK    1  A    between atoms: C_2  and  C_3 
REMARK    2  A    between atoms: C_3  and  C_4 
ROOT
HETATM    1  C   LIG     1      17.306  34.830  25.258  1.00  0.00     0.015 C 
ENDROOT
BRANCH   1   2
HETATM    2  C   LIG     1      17.177  35.914  24.179  1.00  0.00     0.114 C 
HETATM    3 CL   LIG     1      17.008  35.204  22.550  1.00  0.00    -0.130 Cl
ENDBRANCH   1   2
BRANCH   1   4
HETATM    4  C   LIG     1      18.293  35.191  26.380  1.00  0.00    -0.004 C 
HETATM    5  C   LIG     1      18.539  36.693  26.505  1.00  0.00     0.005 C 
ENDBRANCH   1   4
TORSDOF 2
ENDMDL
MODEL 3
REMARK VINA RESULT:      -3.5      5.042      5.764
REMARK  2 active torsions:
REMARK  status: ('A' for Active; 'I' for Inactive)
REMARK    1  A    between atoms: C_2  and  C_3 
REMARK    2  A    between atoms: C_3  and  C_4 
ROOT
HETATM    1  C   LIG     1      18.940  39.456  20.326  1.00  0.00     0.015 C 
ENDROOT
BRANCH   1   2
HETATM    2  C   LIG     1      19.954  38.528  19.643  1.00  0.00     0.114 C 
HETATM    3 CL   LIG     1      19.316  36.870  19.469  1.00  0.00    -0.130 Cl
ENDBRANCH   1   2
BRANCH   1   4
HETATM    4  C   LIG     1      18.720  39.139  21.815  1.00  0.00    -0.004 C 
HETATM    5  C   LIG     1      17.277  38.764  22.144  1.00  0.00     0.005 C 
ENDBRANCH   1   4
TORSDOF 2
ENDMDL
MODEL 4
REMARK VINA RESULT:      -3.4      2.677      3.846
REMARK  2 active torsions:
REMARK  status: ('A' for Active; 'I' for Inactive)
REMARK    1  A    between atoms: C_2  and  C_3 
REMARK    2  A    between atoms: C_3  and  C_4 
ROOT
HETATM    1  C   LIG     1      17.144  37.649  23.609  1.00  0.00     0.015 C 
ENDROOT
BRANCH   1   2
HETATM    2  C   LIG     1      17.251  37.964  25.108  1.00  0.00     0.114 C 
HETATM    3 CL   LIG     1      18.500  36.967  25.902  1.00  0.00    -0.130 Cl
ENDBRANCH   1   2
BRANCH   1   4
HETATM    4  C   LIG     1      17.042  38.901  22.722  1.00  0.00    -0.004 C 
HETATM    5  C   LIG     1      18.246  39.086  21.801  1.00  0.00     0.005 C 
ENDBRANCH   1   4
TORSDOF 2
ENDMDL
MODEL 5
REMARK VINA RESULT:      -3.4      2.442      2.850
REMARK  2 active torsions:
REMARK  status: ('A' for Active; 'I' for Inactive)
REMARK    1  A    between atoms: C_2  and  C_3 
REMARK    2  A    between atoms: C_3  and  C_4 
ROOT
HETATM    1  C   LIG     1      17.112  35.231  23.753  1.00  0.00     0.015 C 
ENDROOT
BRANCH   1   2
HETATM    2  C   LIG     1      16.799  36.251  22.649  1.00  0.00     0.114 C 
HETATM    3 CL   LIG     1      17.119  35.582  21.026  1.00  0.00    -0.130 Cl
ENDBRANCH   1   2
BRANCH   1   4
HETATM    4  C   LIG     1      17.501  35.874  25.095  1.00  0.00    -0.004 C 
HETATM    5  C   LIG     1      17.873  34.852  26.167  1.00  0.00     0.005 C 
ENDBRANCH   1   4
TORSDOF 2
ENDMDL
MODEL 6
REMARK VINA RESULT:      -3.3      2.090      3.165
REMARK  2 active torsions:
REMARK  status: ('A' for Active; 'I' for Inactive)
REMARK    1  A    between atoms: C_2  and  C_3 
REMARK    2  A    between atoms: C_3  and  C_4 
ROOT
HETATM    1  C   LIG     1      17.221  35.797  24.453  1.00  0.00     0.015 C 
ENDROOT
BRANCH   1   2
HETATM    2  C   LIG     1      17.573  35.044  25.743  1.00  0.00     0.114 C 
HETATM    3 CL   LIG     1      18.388  36.106  26.923  1.00  0.00    -0.130 Cl
ENDBRANCH   1   2
BRANCH   1   4
HETATM    4  C   LIG     1      17.031  37.309  24.654  1.00  0.00    -0.004 C 
HETATM    5  C   LIG     1      17.425  38.134  23.430  1.00  0.00     0.005 C 
ENDBRANCH   1   4
TORSDOF 2
ENDMDL
MODEL 7
REMARK VINA RESULT:      -3.2      4.356      5.221
REMARK  2 active torsions:
REMARK  status: ('A' for Active; 'I' for Inactive)
REMARK    1  A    between atoms: C_2  and  C_3 
REMARK    2  A    between atoms: C_3  and  C_4 
ROOT
HETATM    1  C   LIG     1      17.955  38.339  21.465  1.00  0.00     0.015 C 
ENDROOT
BRANCH   1   2
HETATM    2  C   LIG     1      16.970  38.867  22.517  1.00  0.00     0.114 C 
HETATM    3 CL   LIG     1      16.856  37.769  23.920  1.00  0.00    -0.130 Cl
ENDBRANCH   1   2
BRANCH   1   4
HETATM    4  C   LIG     1      18.799  39.441  20.803  1.00  0.00    -0.004 C 
HETATM    5  C   LIG     1      19.898  38.895  19.895  1.00  0.00     0.005 C 
ENDBRANCH   1   4
TORSDOF 2
ENDMDL
MODEL 8
REMARK VINA RESULT:      -3.2      2.469      3.168
REMARK  2 active torsions:
REMARK  status: ('A' for Active; 'I' for Inactive)
REMARK    1  A    between atoms: C_2  and  C_3 
REMARK    2  A    between atoms: C_3  and  C_4 
ROOT
HETATM    1  C   LIG     1      17.341  37.940  23.213  1.00  0.00     0.015 C 
ENDROOT
BRANCH   1   2
HETATM    2  C   LIG     1      16.996  36.938  22.102  1.00  0.00     0.114 C 
HETATM    3 CL   LIG     1      16.974  35.261  22.712  1.00  0.00    -0.130 Cl
ENDBRANCH   1   2
BRANCH   1   4
HETATM    4  C   LIG     1      16.918  37.474  24.616  1.00  0.00    -0.004 C 
HETATM    5  C   LIG     1      18.097  37.263  25.563  1.00  0.00     0.005 C 
ENDBRANCH   1   4
TORSDOF 2
ENDMDL
MODEL 9
REMARK VINA RESULT:      -3.2      3.831      4.254
REMARK  2 active torsions:
REMARK  status: ('A' for Active; 'I' for Inactive)
REMARK    1  A    between atoms: C_2  and  C_3 
REMARK    2  A    between atoms: C_3  and  C_4 
ROOT
HETATM    1  C   LIG     1      17.802  36.642  20.785  1.00  0.00     0.015 C 
ENDROOT
BRANCH   1   2
HETATM    2  C   LIG     1      17.631  37.917  21.622  1.00  0.00     0.114 C 
HETATM    3 CL   LIG     1      18.615  39.261  20.983  1.00  0.00    -0.130 Cl
ENDBRANCH   1   2
BRANCH   1   4
HETATM    4  C   LIG     1      16.886  35.488  21.225  1.00  0.00    -0.004 C 
HETATM    5  C   LIG     1      16.938  35.216  22.727  1.00  0.00     0.005 C 
ENDBRANCH   1   4
TORSDOF 2
ENDMDL
MODEL 10
REMARK VINA RESULT:      -3.1      3.900      4.754
REMARK  2 active torsions:
REMARK  status: ('A' for Active; 'I' for Inactive)
REMARK    1  A    between atoms: C_2  and  C_3 
REMARK    2  A    between atoms: C_3  and  C_4 
ROOT
HETATM    1  C   LIG     1      17.497  36.792  21.205  1.00  0.00     0.015 C 
ENDROOT
BRANCH   1   2
HETATM    2  C   LIG     1      16.878  36.724  22.608  1.00  0.00     0.114 C 
HETATM    3 CL   LIG     1      17.062  35.102  23.329  1.00  0.00    -0.130 Cl
ENDBRANCH   1   2
BRANCH   1   4
HETATM    4  C   LIG     1      18.246  38.106  20.925  1.00  0.00    -0.004 C 
HETATM    5  C   LIG     1      18.142  39.114  22.067  1.00  0.00     0.005 C 
ENDBRANCH   1   4
TORSDOF 2
ENDMDL
MODEL 11
REMARK VINA RESULT:      -3.1      9.991     10.970
REMARK  2 active torsions:
REMARK  status: ('A' for Active; 'I' for Inactive)
REMARK    1  A    between atoms: C_2  and  C_3 
REMARK    2  A    between atoms: C_3  and  C_4 
ROOT
HETATM    1  C   LIG     1      13.193  32.004  16.924  1.00  0.00     0.015 C 
ENDROOT
BRANCH   1   2
HETATM    2  C   LIG     1      14.567  32.278  17.553  1.00  0.00     0.114 C 
HETATM    3 CL   LIG     1      14.682  31.602  19.201  1.00  0.00    -0.130 Cl
ENDBRANCH   1   2
BRANCH   1   4
HETATM    4  C   LIG     1      13.111  30.659  16.185  1.00  0.00    -0.004 C 
HETATM    5  C   LIG     1      14.221  30.469  15.153  1.00  0.00     0.005 C 
ENDBRANCH   1   4
TORSDOF 2
ENDMDL
MODEL 12
REMARK VINA RESULT:      -3.1     12.682     13.586
REMARK  2 active torsions:
REMARK  status: ('A' for Active; 'I' for Inactive)
REMARK    1  A    between atoms: C_2  and  C_3 
REMARK    2  A    between atoms: C_3  and  C_4 
ROOT
HETATM    1  C   LIG     1      14.029  29.732  14.379  1.00  0.00     0.015 C 
ENDROOT
BRANCH   1   2
HETATM    2  C   LIG     1      15.359  29.259  13.778  1.00  0.00     0.114 C 
HETATM    3 CL   LIG     1      15.439  27.480  13.676  1.00  0.00    -0.130 Cl
ENDBRANCH   1   2
BRANCH   1   4
HETATM    4  C   LIG     1      14.194  30.773  15.499  1.00  0.00    -0.004 C 
HETATM    5  C   LIG     1      12.937  30.948  16.349  1.00  0.00     0.005 C 
ENDBRANCH   1   4
TORSDOF 2
ENDMDL
MODEL 13
REMARK VINA RESULT:      -3.1      3.191      4.012
REMARK  2 active torsions:
REMARK  status: ('A' for Active; 'I' for Inactive)
REMARK    1  A    between atoms: C_2  and  C_3 
REMARK    2  A    between atoms: C_3  and  C_4 
ROOT
HETATM    1  C   LIG     1      17.515  38.058  21.977  1.00  0.00     0.015 C 
ENDROOT
BRANCH   1   2
HETATM    2  C   LIG     1      18.464  39.262  21.900  1.00  0.00     0.114 C 
HETATM    3 CL   LIG     1      19.421  39.249  20.394  1.00  0.00    -0.130 Cl
ENDBRANCH   1   2
BRANCH   1   4
HETATM    4  C   LIG     1      16.846  37.886  23.351  1.00  0.00    -0.004 C 
HETATM    5  C   LIG     1      17.816  38.060  24.519  1.00  0.00     0.005 C 
ENDBRANCH   1   4
TORSDOF 2
ENDMDL
MODEL 14
REMARK VINA RESULT:      -3.1     12.058     12.758
REMARK  2 active torsions:
REMARK  status: ('A' for Active; 'I' for Inactive)
REMARK    1  A    between atoms: C_2  and  C_3 
REMARK    2  A    between atoms: C_3  and  C_4 
ROOT
HETATM    1  C   LIG     1      14.564  29.951  14.536  1.00  0.00     0.015 C 
ENDROOT
BRANCH   1   2
HETATM    2  C   LIG     1      15.380  30.551  13.381  1.00  0.00     0.114 C 
HETATM    3 CL   LIG     1      16.017  32.165  13.795  1.00  0.00    -0.130 Cl
ENDBRANCH   1   2
BRANCH   1   4
HETATM    4  C   LIG     1      14.290  30.945  15.677  1.00  0.00    -0.004 C 
HETATM    5  C   LIG     1      12.879  30.829  16.251  1.00  0.00     0.005 C 
ENDBRANCH   1   4
TORSDOF 2
ENDMDL
MODEL 15
REMARK VINA RESULT:      -3.0     11.915     12.941
REMARK  2 active torsions:
REMARK  status: ('A' for Active; 'I' for Inactive)
REMARK    1  A    between atoms: C_2  and  C_3 
REMARK    2  A    between atoms: C_3  and  C_4 
ROOT
HETATM    1  C   LIG     1      13.269  30.033  14.902  1.00  0.00     0.015 C 
ENDROOT
BRANCH   1   2
HETATM    2  C   LIG     1      14.750  30.109  14.504  1.00  0.00     0.114 C 
HETATM    3 CL   LIG     1      15.346  28.544  13.888  1.00  0.00    -0.130 Cl
ENDBRANCH   1   2
BRANCH   1   4
HETATM    4  C   LIG     1      12.948  30.750  16.224  1.00  0.00    -0.004 C 
HETATM    5  C   LIG     1      14.093  31.626  16.728  1.00  0.00     0.005 C 
ENDBRANCH   1   4
TORSDOF 2
ENDMDL
MODEL 16
REMARK VINA RESULT:      -3.0     12.560     13.254
REMARK  2 active torsions:
REMARK  status: ('A' for Active; 'I' for Inactive)
REMARK    1  A    between atoms: C_2  and  C_3 
REMARK    2  A    between atoms: C_3  and  C_4 
ROOT
HETATM    1  C   LIG     1      14.993  29.878  13.981  1.00  0.00     0.015 C 
ENDROOT
BRANCH   1   2
HETATM    2  C   LIG     1      13.559  29.532  14.405  1.00  0.00     0.114 C 
HETATM    3 CL   LIG     1      12.993  30.584  15.731  1.00  0.00    -0.130 Cl
ENDBRANCH   1   2
BRANCH   1   4
HETATM    4  C   LIG     1      15.508  31.202  14.570  1.00  0.00    -0.004 C 
HETATM    5  C   LIG     1      16.116  32.131  13.522  1.00  0.00     0.005 C 
ENDBRANCH   1   4
TORSDOF 2
ENDMDL
MODEL 17
REMARK VINA RESULT:      -3.0     10.671     11.643
REMARK  2 active torsions:
REMARK  status: ('A' for Active; 'I' for Inactive)
REMARK    1  A    between atoms: C_2  and  C_3 
REMARK    2  A    between atoms: C_3  and  C_4 
ROOT
HETATM    1  C   LIG     1      13.586  30.860  16.369  1.00  0.00     0.015 C 
ENDROOT
BRANCH   1   2
HETATM    2  C   LIG     1      13.890  32.017  17.331  1.00  0.00     0.114 C 
HETATM    3 CL   LIG     1      14.965  33.228  16.583  1.00  0.00    -0.130 Cl
ENDBRANCH   1   2
BRANCH   1   4
HETATM    4  C   LIG     1      14.534  30.797  15.160  1.00  0.00    -0.004 C 
HETATM    5  C   LIG     1      14.251  29.618  14.232  1.00  0.00     0.005 C 
ENDBRANCH   1   4
TORSDOF 2
ENDMDL
MODEL 18
REMARK VINA RESULT:      -2.9      3.626      4.428
REMARK  2 active torsions:
REMARK  status: ('A' for Active; 'I' for Inactive)
REMARK    1  A    between atoms: C_2  and  C_3 
REMARK    2  A    between atoms: C_3  and  C_4 
ROOT
HETATM    1  C   LIG     1      17.000  35.376  23.081  1.00  0.00     0.015 C 
ENDROOT
BRANCH   1   2
HETATM    2  C   LIG     1      16.711  34.998  21.621  1.00  0.00     0.114 C 
HETATM    3 CL   LIG     1      15.042  34.402  21.414  1.00  0.00    -0.130 Cl
ENDBRANCH   1   2
BRANCH   1   4
HETATM    4  C   LIG     1      16.960  36.890  23.346  1.00  0.00    -0.004 C 
HETATM    5  C   LIG     1      17.186  37.727  22.089  1.00  0.00     0.005 C 
ENDBRANCH   1   4
TORSDOF 2
ENDMDL
MODEL 19
REMARK VINA RESULT:      -2.9      9.865     10.836
REMARK  2 active torsions:
REMARK  status: ('A' for Active; 'I' for Inactive)
REMARK    1  A    between atoms: C_2  and  C_3 
REMARK    2  A    between atoms: C_3  and  C_4 
ROOT
HETATM    1  C   LIG     1      13.843  31.532  17.179  1.00  0.00     0.015 C 
ENDROOT
BRANCH   1   2
HETATM    2  C   LIG     1      14.386  31.158  15.792  1.00  0.00     0.114 C 
HETATM    3 CL   LIG     1      13.304  30.019  14.947  1.00  0.00    -0.130 Cl
ENDBRANCH   1   2
BRANCH   1   4
HETATM    4  C   LIG     1      14.849  32.307  18.047  1.00  0.00    -0.004 C 
HETATM    5  C   LIG     1      14.911  31.807  19.488  1.00  0.00     0.005 C 
ENDBRANCH   1   4
TORSDOF 2
ENDMDL
MODEL 20
REMARK VINA RESULT:      -2.8     11.415     12.224
REMARK  2 active torsions:
REMARK  status: ('A' for Active; 'I' for Inactive)
REMARK    1  A    between atoms: C_2  and  C_3 
REMARK    2  A    between atoms: C_3  and  C_4 
ROOT
HETATM    1  C   LIG     1      15.437  31.068  14.309  1.00  0.00     0.015 C 
ENDROOT
BRANCH   1   2
HETATM    2  C   LIG     1      16.197  32.252  14.925  1.00  0.00     0.114 C 
HETATM    3 CL   LIG     1      15.296  32.976  16.284  1.00  0.00    -0.130 Cl
ENDBRANCH   1   2
BRANCH   1   4
HETATM    4  C   LIG     1      14.277  30.560  15.181  1.00  0.00    -0.004 C 
HETATM    5  C   LIG     1      13.409  29.517  14.480  1.00  0.00     0.005 C 
ENDBRANCH   1   4
TORSDOF 2
ENDMDL
