MODEL 1
REMARK VINA RESULT:      -4.4      0.000      0.000
REMARK  0 active torsions:
REMARK  status: ('A' for Active; 'I' for Inactive)
ROOT
HETATM    1  C   LIG     1      17.129  38.077  23.059  1.00  0.00     0.044 C 
HETATM    2  C   LIG     1      16.787  37.303  24.335  1.00  0.00     0.244 C 
HETATM    3  C   LIG     1      17.370  38.014  25.584  1.00  0.00     0.304 C 
HETATM    4  N   LIG     1      18.621  37.369  25.996  1.00  0.00     0.087 N 
HETATM    5  C   LIG     1      18.376  35.983  26.427  1.00  0.00     0.299 C 
HETATM    6  C   LIG     1      17.369  35.260  25.510  1.00  0.00     0.300 C 
HETATM    7  N   LIG     1      17.299  35.925  24.205  1.00  0.00     0.091 N 
HETATM    8  H   LIG     1      19.010  37.899  26.810  1.00  0.00     0.316 HD
HETATM    9  H   LIG     1      16.636  35.382  23.604  1.00  0.00     0.316 HD
ENDROOT
TORSDOF 0
ENDMDL
MODEL 2
REMARK VINA RESULT:      -4.0      1.425      2.764
REMARK  0 active torsions:
REMARK  status: ('A' for Active; 'I' for Inactive)
ROOT
HETATM    1  C   LIG     1      18.092  36.537  26.673  1.00  0.00     0.044 C 
HETATM    2  C   LIG     1      18.148  36.734  25.156  1.00  0.00     0.244 C 
HETATM    3  C   LIG     1      17.739  38.181  24.772  1.00  0.00     0.304 C 
HETATM    4  N   LIG     1      16.341  38.210  24.330  1.00  0.00     0.087 N 
HETATM    5  C   LIG     1      16.166  37.426  23.096  1.00  0.00     0.299 C 
HETATM    6  C   LIG     1      16.965  36.107  23.130  1.00  0.00     0.300 C 
HETATM    7  N   LIG     1      17.274  35.733  24.514  1.00  0.00     0.091 N 
HETATM    8  H   LIG     1      16.084  39.204  24.122  1.00  0.00     0.316 HD
HETATM    9  H   LIG     1      17.781  34.817  24.494  1.00  0.00     0.316 HD
ENDROOT
TORSDOF 0
ENDMDL
MODEL 3
REMARK VINA RESULT:      -3.8      0.765      3.173
REMARK  0 active torsions:
REMARK  status: ('A' for Active; 'I' for Inactive)
ROOT
HETATM    1  C   LIG     1      18.749  34.849  26.365  1.00  0.00     0.044 C 
HETATM    2  C   LIG     1      17.644  35.874  26.092  1.00  0.00     0.244 C 
HETATM    3  C   LIG     1      16.878  35.525  24.788  1.00  0.00     0.304 C 
HETATM    4  N   LIG     1      17.372  36.346  23.678  1.00  0.00     0.087 N 
HETATM    5  C   LIG     1      17.089  37.770  23.915  1.00  0.00     0.299 C 
HETATM    6  C   LIG     1      17.344  38.175  25.381  1.00  0.00     0.300 C 
HETATM    7  N   LIG     1      18.249  37.218  26.025  1.00  0.00     0.091 N 
HETATM    8  H   LIG     1      16.868  36.055  22.807  1.00  0.00     0.316 HD
HETATM    9  H   LIG     1      18.425  37.550  27.002  1.00  0.00     0.316 HD
ENDROOT
TORSDOF 0
ENDMDL
MODEL 4
REMARK VINA RESULT:      -3.8      1.647      3.531
REMARK  0 active torsions:
REMARK  status: ('A' for Active; 'I' for Inactive)
ROOT
HETATM    1  C   LIG     1      17.894  37.275  25.829  1.00  0.00     0.044 C 
HETATM    2  C   LIG     1      17.442  38.147  24.655  1.00  0.00     0.244 C 
HETATM    3  C   LIG     1      16.347  37.429  23.823  1.00  0.00     0.304 C 
HETATM    4  N   LIG     1      16.939  36.814  22.631  1.00  0.00     0.087 N 
HETATM    5  C   LIG     1      17.485  37.843  21.730  1.00  0.00     0.299 C 
HETATM    6  C   LIG     1      18.220  38.957  22.503  1.00  0.00     0.300 C 
HETATM    7  N   LIG     1      18.620  38.480  23.831  1.00  0.00     0.091 N 
HETATM    8  H   LIG     1      16.184  36.302  22.118  1.00  0.00     0.316 HD
HETATM    9  H   LIG     1      19.146  39.252  24.304  1.00  0.00     0.316 HD
ENDROOT
TORSDOF 0
ENDMDL
MODEL 5
REMARK VINA RESULT:      -3.8      1.211      2.057
REMARK  0 active torsions:
REMARK  status: ('A' for Active; 'I' for Inactive)
ROOT
HETATM    1  C   LIG     1      15.914  37.666  23.567  1.00  0.00     0.044 C 
HETATM    2  C   LIG     1      17.215  37.101  24.144  1.00  0.00     0.244 C 
HETATM    3  C   LIG     1      17.329  35.580  23.861  1.00  0.00     0.304 C 
HETATM    4  N   LIG     1      16.930  34.814  25.047  1.00  0.00     0.087 N 
HETATM    5  C   LIG     1      17.855  35.063  26.165  1.00  0.00     0.299 C 
HETATM    6  C   LIG     1      18.249  36.550  26.270  1.00  0.00     0.300 C 
HETATM    7  N   LIG     1      17.258  37.390  25.590  1.00  0.00     0.091 N 
HETATM    8  H   LIG     1      16.975  33.796  24.808  1.00  0.00     0.316 HD
HETATM    9  H   LIG     1      17.542  38.390  25.719  1.00  0.00     0.316 HD
ENDROOT
TORSDOF 0
ENDMDL
MODEL 6
REMARK VINA RESULT:      -3.7      6.414      7.439
REMARK  0 active torsions:
REMARK  status: ('A' for Active; 'I' for Inactive)
ROOT
HETATM    1  C   LIG     1      14.360  32.601  17.205  1.00  0.00     0.044 C 
HETATM    2  C   LIG     1      15.405  33.054  18.228  1.00  0.00     0.244 C 
HETATM    3  C   LIG     1      15.337  32.183  19.510  1.00  0.00     0.304 C 
HETATM    4  N   LIG     1      14.583  32.881  20.556  1.00  0.00     0.087 N 
HETATM    5  C   LIG     1      15.278  34.111  20.969  1.00  0.00     0.299 C 
HETATM    6  C   LIG     1      15.868  34.875  19.766  1.00  0.00     0.300 C 
HETATM    7  N   LIG     1      15.187  34.483  18.528  1.00  0.00     0.091 N 
HETATM    8  H   LIG     1      14.517  32.250  21.388  1.00  0.00     0.316 HD
HETATM    9  H   LIG     1      15.590  35.050  17.746  1.00  0.00     0.316 HD
ENDROOT
TORSDOF 0
ENDMDL
MODEL 7
REMARK VINA RESULT:      -3.7      2.251      3.152
REMARK  0 active torsions:
REMARK  status: ('A' for Active; 'I' for Inactive)
ROOT
HETATM    1  C   LIG     1      18.954  39.275  20.917  1.00  0.00     0.044 C 
HETATM    2  C   LIG     1      17.649  38.634  21.396  1.00  0.00     0.244 C 
HETATM    3  C   LIG     1      17.293  39.110  22.828  1.00  0.00     0.304 C 
HETATM    4  N   LIG     1      17.693  38.098  23.812  1.00  0.00     0.087 N 
HETATM    5  C   LIG     1      16.927  36.855  23.623  1.00  0.00     0.299 C 
HETATM    6  C   LIG     1      16.761  36.498  22.132  1.00  0.00     0.300 C 
HETATM    7  N   LIG     1      17.790  37.166  21.329  1.00  0.00     0.091 N 
HETATM    8  H   LIG     1      17.481  38.469  24.767  1.00  0.00     0.316 HD
HETATM    9  H   LIG     1      17.664  36.867  20.334  1.00  0.00     0.316 HD
ENDROOT
TORSDOF 0
ENDMDL
MODEL 8
REMARK VINA RESULT:      -3.7      2.649      3.741
REMARK  0 active torsions:
REMARK  status: ('A' for Active; 'I' for Inactive)
ROOT
HETATM    1  C   LIG     1      16.264  35.089  21.931  1.00  0.00     0.044 C 
HETATM    2  C   LIG     1      17.215  36.202  22.380  1.00  0.00     0.244 C 
HETATM    3  C   LIG     1      16.653  36.940  23.624  1.00  0.00     0.304 C 
HETATM    4  N   LIG     1      16.007  38.193  23.219  1.00  0.00     0.087 N 
HETATM    5  C   LIG     1      16.988  39.123  22.637  1.00  0.00     0.299 C 
HETATM    6  C   LIG     1      17.987  38.404  21.708  1.00  0.00     0.300 C 
HETATM    7  N   LIG     1      17.430  37.127  21.250  1.00  0.00     0.091 N 
HETATM    8  H   LIG     1      15.600  38.642  24.073  1.00  0.00     0.316 HD
HETATM    9  H   LIG     1      18.122  36.692  20.595  1.00  0.00     0.316 HD
ENDROOT
TORSDOF 0
ENDMDL
MODEL 9
REMARK VINA RESULT:      -3.6      9.659     10.769
REMARK  0 active torsions:
REMARK  status: ('A' for Active; 'I' for Inactive)
ROOT
HETATM    1  C   LIG     1      13.099  30.317  15.305  1.00  0.00     0.044 C 
HETATM    2  C   LIG     1      14.303  30.893  16.056  1.00  0.00     0.244 C 
HETATM    3  C   LIG     1      13.844  31.693  17.303  1.00  0.00     0.304 C 
HETATM    4  N   LIG     1      13.839  33.130  17.007  1.00  0.00     0.087 N 
HETATM    5  C   LIG     1      15.201  33.611  16.727  1.00  0.00     0.299 C 
HETATM    6  C   LIG     1      15.998  32.619  15.855  1.00  0.00     0.300 C 
HETATM    7  N   LIG     1      15.085  31.732  15.127  1.00  0.00     0.091 N 
HETATM    8  H   LIG     1      13.482  33.636  17.851  1.00  0.00     0.316 HD
HETATM    9  H   LIG     1      15.662  31.103  14.521  1.00  0.00     0.316 HD
ENDROOT
TORSDOF 0
ENDMDL
MODEL 10
REMARK VINA RESULT:      -3.6      4.338      5.822
REMARK  0 active torsions:
REMARK  status: ('A' for Active; 'I' for Inactive)
ROOT
HETATM    1  C   LIG     1      19.002  39.102  17.726  1.00  0.00     0.044 C 
HETATM    2  C   LIG     1      19.436  38.798  19.163  1.00  0.00     0.244 C 
HETATM    3  C   LIG     1      19.197  37.305  19.508  1.00  0.00     0.304 C 
HETATM    4  N   LIG     1      17.952  37.155  20.268  1.00  0.00     0.087 N 
HETATM    5  C   LIG     1      18.050  37.834  21.570  1.00  0.00     0.299 C 
HETATM    6  C   LIG     1      18.757  39.200  21.459  1.00  0.00     0.300 C 
HETATM    7  N   LIG     1      18.702  39.693  20.079  1.00  0.00     0.091 N 
HETATM    8  H   LIG     1      17.798  36.134  20.445  1.00  0.00     0.316 HD
HETATM    9  H   LIG     1      19.157  40.635  20.056  1.00  0.00     0.316 HD
ENDROOT
TORSDOF 0
ENDMDL
MODEL 11
REMARK VINA RESULT:      -3.6      3.646      4.926
REMARK  0 active torsions:
REMARK  status: ('A' for Active; 'I' for Inactive)
ROOT
HETATM    1  C   LIG     1      18.764  39.393  20.032  1.00  0.00     0.044 C 
HETATM    2  C   LIG     1      18.699  38.084  20.823  1.00  0.00     0.244 C 
HETATM    3  C   LIG     1      18.870  36.862  19.882  1.00  0.00     0.304 C 
HETATM    4  N   LIG     1      17.561  36.280  19.568  1.00  0.00     0.087 N 
HETATM    5  C   LIG     1      16.924  35.740  20.780  1.00  0.00     0.299 C 
HETATM    6  C   LIG     1      17.113  36.669  21.996  1.00  0.00     0.300 C 
HETATM    7  N   LIG     1      17.418  38.034  21.553  1.00  0.00     0.091 N 
HETATM    8  H   LIG     1      17.708  35.489  18.898  1.00  0.00     0.316 HD
HETATM    9  H   LIG     1      17.500  38.637  22.405  1.00  0.00     0.316 HD
ENDROOT
TORSDOF 0
ENDMDL
MODEL 12
REMARK VINA RESULT:      -3.4      9.139     10.402
REMARK  0 active torsions:
REMARK  status: ('A' for Active; 'I' for Inactive)
ROOT
HETATM    1  C   LIG     1      15.018  32.246  19.047  1.00  0.00     0.044 C 
HETATM    2  C   LIG     1      14.787  32.666  17.593  1.00  0.00     0.244 C 
HETATM    3  C   LIG     1      13.614  31.867  16.967  1.00  0.00     0.304 C 
HETATM    4  N   LIG     1      14.131  30.761  16.155  1.00  0.00     0.087 N 
HETATM    5  C   LIG     1      14.898  31.272  15.007  1.00  0.00     0.299 C 
HETATM    6  C   LIG     1      15.794  32.466  15.393  1.00  0.00     0.300 C 
HETATM    7  N   LIG     1      16.041  32.473  16.839  1.00  0.00     0.091 N 
HETATM    8  H   LIG     1      13.316  30.218  15.786  1.00  0.00     0.316 HD
HETATM    9  H   LIG     1      16.681  33.273  17.052  1.00  0.00     0.316 HD
ENDROOT
TORSDOF 0
ENDMDL
MODEL 13
REMARK VINA RESULT:      -3.4      7.326      8.366
REMARK  0 active torsions:
REMARK  status: ('A' for Active; 'I' for Inactive)
ROOT
HETATM    1  C   LIG     1      14.606  34.376  16.883  1.00  0.00     0.044 C 
HETATM    2  C   LIG     1      15.369  33.320  17.688  1.00  0.00     0.244 C 
HETATM    3  C   LIG     1      14.722  31.921  17.516  1.00  0.00     0.304 C 
HETATM    4  N   LIG     1      13.867  31.615  18.668  1.00  0.00     0.087 N 
HETATM    5  C   LIG     1      14.666  31.515  19.900  1.00  0.00     0.299 C 
HETATM    6  C   LIG     1      15.749  32.611  19.978  1.00  0.00     0.300 C 
HETATM    7  N   LIG     1      15.401  33.735  19.104  1.00  0.00     0.091 N 
HETATM    8  H   LIG     1      13.412  30.687  18.500  1.00  0.00     0.316 HD
HETATM    9  H   LIG     1      16.139  34.469  19.216  1.00  0.00     0.316 HD
ENDROOT
TORSDOF 0
ENDMDL
MODEL 14
REMARK VINA RESULT:      -3.4      9.990     11.062
REMARK  0 active torsions:
REMARK  status: ('A' for Active; 'I' for Inactive)
ROOT
HETATM    1  C   LIG     1      15.323  29.755  14.424  1.00  0.00     0.044 C 
HETATM    2  C   LIG     1      14.662  31.049  14.905  1.00  0.00     0.244 C 
HETATM    3  C   LIG     1      15.692  32.207  14.963  1.00  0.00     0.304 C 
HETATM    4  N   LIG     1      16.162  32.398  16.340  1.00  0.00     0.087 N 
HETATM    5  C   LIG     1      15.058  32.828  17.213  1.00  0.00     0.299 C 
HETATM    6  C   LIG     1      13.751  32.065  16.914  1.00  0.00     0.300 C 
HETATM    7  N   LIG     1      14.043  30.805  16.223  1.00  0.00     0.091 N 
HETATM    8  H   LIG     1      16.887  33.153  16.336  1.00  0.00     0.316 HD
HETATM    9  H   LIG     1      13.136  30.303  16.073  1.00  0.00     0.316 HD
ENDROOT
TORSDOF 0
ENDMDL
MODEL 15
REMARK VINA RESULT:      -3.4      3.967      5.398
REMARK  0 active torsions:
REMARK  status: ('A' for Active; 'I' for Inactive)
ROOT
HETATM    1  C   LIG     1      18.845  38.911  23.071  1.00  0.00     0.044 C 
HETATM    2  C   LIG     1      18.347  38.973  21.624  1.00  0.00     0.244 C 
HETATM    3  C   LIG     1      17.636  37.652  21.227  1.00  0.00     0.304 C 
HETATM    4  N   LIG     1      18.550  36.796  20.463  1.00  0.00     0.087 N 
HETATM    5  C   LIG     1      18.913  37.430  19.186  1.00  0.00     0.299 C 
HETATM    6  C   LIG     1      19.180  38.941  19.343  1.00  0.00     0.300 C 
HETATM    7  N   LIG     1      19.494  39.260  20.740  1.00  0.00     0.091 N 
HETATM    8  H   LIG     1      18.055  35.898  20.252  1.00  0.00     0.316 HD
HETATM    9  H   LIG     1      19.704  40.284  20.795  1.00  0.00     0.316 HD
ENDROOT
TORSDOF 0
ENDMDL
MODEL 16
REMARK VINA RESULT:      -3.3     10.753     11.869
REMARK  0 active torsions:
REMARK  status: ('A' for Active; 'I' for Inactive)
ROOT
HETATM    1  C   LIG     1      19.271  34.023  12.734  1.00  0.00     0.044 C 
HETATM    2  C   LIG     1      17.801  33.887  13.139  1.00  0.00     0.244 C 
HETATM    3  C   LIG     1      17.625  34.119  14.663  1.00  0.00     0.304 C 
HETATM    4  N   LIG     1      17.531  32.833  15.363  1.00  0.00     0.087 N 
HETATM    5  C   LIG     1      16.324  32.100  14.948  1.00  0.00     0.299 C 
HETATM    6  C   LIG     1      16.077  32.202  13.429  1.00  0.00     0.300 C 
HETATM    7  N   LIG     1      17.319  32.552  12.733  1.00  0.00     0.091 N 
HETATM    8  H   LIG     1      17.459  33.025  16.389  1.00  0.00     0.316 HD
HETATM    9  H   LIG     1      17.116  32.573  11.706  1.00  0.00     0.316 HD
ENDROOT
TORSDOF 0
ENDMDL
MODEL 17
REMARK VINA RESULT:      -3.3     12.722     14.173
REMARK  0 active torsions:
REMARK  status: ('A' for Active; 'I' for Inactive)
ROOT
HETATM    1  C   LIG     1      18.456  33.642  13.499  1.00  0.00     0.044 C 
HETATM    2  C   LIG     1      18.854  33.506  12.027  1.00  0.00     0.244 C 
HETATM    3  C   LIG     1      20.386  33.309  11.885  1.00  0.00     0.304 C 
HETATM    4  N   LIG     1      21.029  34.580  11.536  1.00  0.00     0.087 N 
HETATM    5  C   LIG     1      20.582  35.044  10.212  1.00  0.00     0.299 C 
HETATM    6  C   LIG     1      19.068  34.831  10.005  1.00  0.00     0.300 C 
HETATM    7  N   LIG     1      18.389  34.701  11.298  1.00  0.00     0.091 N 
HETATM    8  H   LIG     1      22.063  34.422  11.492  1.00  0.00     0.316 HD
HETATM    9  H   LIG     1      17.364  34.597  11.112  1.00  0.00     0.316 HD
ENDROOT
TORSDOF 0
ENDMDL
MODEL 18
REMARK VINA RESULT:      -3.2      9.409     10.552
REMARK  0 active torsions:
REMARK  status: ('A' for Active; 'I' for Inactive)
ROOT
HETATM    1  C   LIG     1      15.006  34.360  17.056  1.00  0.00     0.044 C 
HETATM    2  C   LIG     1      15.024  32.831  17.142  1.00  0.00     0.244 C 
HETATM    3  C   LIG     1      15.937  32.227  16.042  1.00  0.00     0.304 C 
HETATM    4  N   LIG     1      15.126  31.762  14.912  1.00  0.00     0.087 N 
HETATM    5  C   LIG     1      14.242  30.658  15.321  1.00  0.00     0.299 C 
HETATM    6  C   LIG     1      13.613  30.904  16.708  1.00  0.00     0.300 C 
HETATM    7  N   LIG     1      13.639  32.333  17.034  1.00  0.00     0.091 N 
HETATM    8  H   LIG     1      15.773  31.403  14.171  1.00  0.00     0.316 HD
HETATM    9  H   LIG     1      13.170  32.459  17.962  1.00  0.00     0.316 HD
ENDROOT
TORSDOF 0
ENDMDL
MODEL 19
REMARK VINA RESULT:      -3.2     11.138     12.082
REMARK  0 active torsions:
REMARK  status: ('A' for Active; 'I' for Inactive)
ROOT
HETATM    1  C   LIG     1      12.941  31.957  16.741  1.00  0.00     0.044 C 
HETATM    2  C   LIG     1      13.974  30.957  16.215  1.00  0.00     0.244 C 
HETATM    3  C   LIG     1      15.299  31.675  15.846  1.00  0.00     0.304 C 
HETATM    4  N   LIG     1      15.363  31.906  14.399  1.00  0.00     0.087 N 
HETATM    5  C   LIG     1      15.407  30.628  13.668  1.00  0.00     0.299 C 
HETATM    6  C   LIG     1      14.444  29.584  14.269  1.00  0.00     0.300 C 
HETATM    7  N   LIG     1      13.399  30.247  15.056  1.00  0.00     0.091 N 
HETATM    8  H   LIG     1      16.245  32.430  14.190  1.00  0.00     0.316 HD
HETATM    9  H   LIG     1      12.748  29.508  15.412  1.00  0.00     0.316 HD
ENDROOT
TORSDOF 0
ENDMDL
MODEL 20
REMARK VINA RESULT:      -3.2     13.090     14.259
REMARK  0 active torsions:
REMARK  status: ('A' for Active; 'I' for Inactive)
ROOT
HETATM    1  C   LIG     1      21.471  35.519  10.005  1.00  0.00     0.044 C 
HETATM    2  C   LIG     1      20.781  34.335  10.688  1.00  0.00     0.244 C 
HETATM    3  C   LIG     1      19.336  34.154  10.152  1.00  0.00     0.304 C 
HETATM    4  N   LIG     1      18.373  34.748  11.085  1.00  0.00     0.087 N 
HETATM    5  C   LIG     1      18.391  34.041  12.376  1.00  0.00     0.299 C 
HETATM    6  C   LIG     1      19.824  33.690  12.824  1.00  0.00     0.300 C 
HETATM    7  N   LIG     1      20.797  34.554  12.147  1.00  0.00     0.091 N 
HETATM    8  H   LIG     1      17.416  34.649  10.673  1.00  0.00     0.316 HD
HETATM    9  H   LIG     1      21.749  34.309  12.507  1.00  0.00     0.316 HD
ENDROOT
TORSDOF 0
ENDMDL
