MODEL 1
REMARK VINA RESULT:      -3.0      0.000      0.000
REMARK  2 active torsions:
REMARK  status: ('A' for Active; 'I' for Inactive)
REMARK    1  A    between atoms: O_2  and  C_3 
REMARK    2  A    between atoms: C_3  and  O_4 
ROOT
HETATM    1  C   LIG     1      17.227  37.909  25.105  1.00  0.00     0.336 C 
ENDROOT
BRANCH   1   2
HETATM    2  O   LIG     1      16.050  38.024  24.336  1.00  0.00    -0.372 OA
HETATM    3  C   LIG     1      16.317  37.638  23.006  1.00  0.00     0.204 C 
ENDBRANCH   1   2
BRANCH   1   4
HETATM    4  O   LIG     1      17.403  36.551  25.445  1.00  0.00    -0.372 OA
HETATM    5  C   LIG     1      18.299  36.448  26.529  1.00  0.00     0.204 C 
ENDBRANCH   1   4
TORSDOF 2
ENDMDL
MODEL 2
REMARK VINA RESULT:      -3.0      0.118      3.032
REMARK  2 active torsions:
REMARK  status: ('A' for Active; 'I' for Inactive)
REMARK    1  A    between atoms: O_2  and  C_3 
REMARK    2  A    between atoms: C_3  and  O_4 
ROOT
HETATM    1  C   LIG     1      17.233  37.986  25.025  1.00  0.00     0.336 C 
ENDROOT
BRANCH   1   2
HETATM    2  O   LIG     1      17.489  36.636  25.349  1.00  0.00    -0.372 OA
HETATM    3  C   LIG     1      18.358  36.575  26.458  1.00  0.00     0.204 C 
ENDBRANCH   1   2
BRANCH   1   4
HETATM    4  O   LIG     1      16.019  38.046  24.308  1.00  0.00    -0.372 OA
HETATM    5  C   LIG     1      16.238  37.635  22.976  1.00  0.00     0.204 C 
ENDBRANCH   1   4
TORSDOF 2
ENDMDL
MODEL 3
REMARK VINA RESULT:      -2.8      1.485      3.157
REMARK  2 active torsions:
REMARK  status: ('A' for Active; 'I' for Inactive)
REMARK    1  A    between atoms: O_2  and  C_3 
REMARK    2  A    between atoms: C_3  and  O_4 
ROOT
HETATM    1  C   LIG     1      16.392  38.093  22.917  1.00  0.00     0.336 C 
ENDROOT
BRANCH   1   2
HETATM    2  O   LIG     1      16.029  37.992  24.277  1.00  0.00    -0.372 OA
HETATM    3  C   LIG     1      17.192  37.901  25.069  1.00  0.00     0.204 C 
ENDBRANCH   1   2
BRANCH   1   4
HETATM    4  O   LIG     1      16.117  36.857  22.294  1.00  0.00    -0.372 OA
HETATM    5  C   LIG     1      17.163  36.534  21.405  1.00  0.00     0.204 C 
ENDBRANCH   1   4
TORSDOF 2
ENDMDL
MODEL 4
REMARK VINA RESULT:      -2.7      8.952     10.104
REMARK  2 active torsions:
REMARK  status: ('A' for Active; 'I' for Inactive)
REMARK    1  A    between atoms: O_2  and  C_3 
REMARK    2  A    between atoms: C_3  and  O_4 
ROOT
HETATM    1  C   LIG     1      14.126  31.952  17.611  1.00  0.00     0.336 C 
ENDROOT
BRANCH   1   2
HETATM    2  O   LIG     1      14.260  31.282  18.845  1.00  0.00    -0.372 OA
HETATM    3  C   LIG     1      15.156  31.991  19.671  1.00  0.00     0.204 C 
ENDBRANCH   1   2
BRANCH   1   4
HETATM    4  O   LIG     1      12.857  31.643  17.075  1.00  0.00    -0.372 OA
HETATM    5  C   LIG     1      13.002  30.708  16.030  1.00  0.00     0.204 C 
ENDBRANCH   1   4
TORSDOF 2
ENDMDL
MODEL 5
REMARK VINA RESULT:      -2.7      8.998      9.728
REMARK  2 active torsions:
REMARK  status: ('A' for Active; 'I' for Inactive)
REMARK    1  A    between atoms: O_2  and  C_3 
REMARK    2  A    between atoms: C_3  and  O_4 
ROOT
HETATM    1  C   LIG     1      14.153  31.732  17.743  1.00  0.00     0.336 C 
ENDROOT
BRANCH   1   2
HETATM    2  O   LIG     1      13.341  30.753  17.132  1.00  0.00    -0.372 OA
HETATM    3  C   LIG     1      13.647  30.678  15.757  1.00  0.00     0.204 C 
ENDBRANCH   1   2
BRANCH   1   4
HETATM    4  O   LIG     1      14.377  31.348  19.082  1.00  0.00    -0.372 OA
HETATM    5  C   LIG     1      15.405  32.139  19.634  1.00  0.00     0.204 C 
ENDBRANCH   1   4
TORSDOF 2
ENDMDL
MODEL 6
REMARK VINA RESULT:      -2.7      4.164      4.963
REMARK  2 active torsions:
REMARK  status: ('A' for Active; 'I' for Inactive)
REMARK    1  A    between atoms: O_2  and  C_3 
REMARK    2  A    between atoms: C_3  and  O_4 
ROOT
HETATM    1  C   LIG     1      18.902  39.354  21.338  1.00  0.00     0.336 C 
ENDROOT
BRANCH   1   2
HETATM    2  O   LIG     1      19.196  39.676  19.996  1.00  0.00    -0.372 OA
HETATM    3  C   LIG     1      20.220  38.831  19.523  1.00  0.00     0.204 C 
ENDBRANCH   1   2
BRANCH   1   4
HETATM    4  O   LIG     1      17.584  38.852  21.393  1.00  0.00    -0.372 OA
HETATM    5  C   LIG     1      17.105  38.928  22.717  1.00  0.00     0.204 C 
ENDBRANCH   1   4
TORSDOF 2
ENDMDL
MODEL 7
REMARK VINA RESULT:      -2.5      4.430      5.594
REMARK  2 active torsions:
REMARK  status: ('A' for Active; 'I' for Inactive)
REMARK    1  A    between atoms: O_2  and  C_3 
REMARK    2  A    between atoms: C_3  and  O_4 
ROOT
HETATM    1  C   LIG     1      18.942  39.183  20.961  1.00  0.00     0.336 C 
ENDROOT
BRANCH   1   2
HETATM    2  O   LIG     1      18.305  37.947  20.722  1.00  0.00    -0.372 OA
HETATM    3  C   LIG     1      17.413  37.665  21.778  1.00  0.00     0.204 C 
ENDBRANCH   1   2
BRANCH   1   4
HETATM    4  O   LIG     1      19.637  39.555  19.790  1.00  0.00    -0.372 OA
HETATM    5  C   LIG     1      19.120  38.844  18.688  1.00  0.00     0.204 C 
ENDBRANCH   1   4
TORSDOF 2
ENDMDL
MODEL 8
REMARK VINA RESULT:      -2.5      9.766     10.824
REMARK  2 active torsions:
REMARK  status: ('A' for Active; 'I' for Inactive)
REMARK    1  A    between atoms: O_2  and  C_3 
REMARK    2  A    between atoms: C_3  and  O_4 
ROOT
HETATM    1  C   LIG     1      16.177  32.742  15.462  1.00  0.00     0.336 C 
ENDROOT
BRANCH   1   2
HETATM    2  O   LIG     1      16.125  32.841  14.055  1.00  0.00    -0.372 OA
HETATM    3  C   LIG     1      15.801  31.584  13.506  1.00  0.00     0.204 C 
ENDBRANCH   1   2
BRANCH   1   4
HETATM    4  O   LIG     1      16.087  34.043  16.001  1.00  0.00    -0.372 OA
HETATM    5  C   LIG     1      15.038  34.092  16.942  1.00  0.00     0.204 C 
ENDBRANCH   1   4
TORSDOF 2
ENDMDL
MODEL 9
REMARK VINA RESULT:      -2.5      8.169      9.071
REMARK  2 active torsions:
REMARK  status: ('A' for Active; 'I' for Inactive)
REMARK    1  A    between atoms: O_2  and  C_3 
REMARK    2  A    between atoms: C_3  and  O_4 
ROOT
HETATM    1  C   LIG     1      14.978  33.592  16.914  1.00  0.00     0.336 C 
ENDROOT
BRANCH   1   2
HETATM    2  O   LIG     1      16.015  33.953  16.028  1.00  0.00    -0.372 OA
HETATM    3  C   LIG     1      16.417  32.822  15.288  1.00  0.00     0.204 C 
ENDBRANCH   1   2
BRANCH   1   4
HETATM    4  O   LIG     1      15.524  33.482  18.211  1.00  0.00    -0.372 OA
HETATM    5  C   LIG     1      15.033  32.313  18.831  1.00  0.00     0.204 C 
ENDBRANCH   1   4
TORSDOF 2
ENDMDL
MODEL 10
REMARK VINA RESULT:      -2.5      9.868     11.062
REMARK  2 active torsions:
REMARK  status: ('A' for Active; 'I' for Inactive)
REMARK    1  A    between atoms: O_2  and  C_3 
REMARK    2  A    between atoms: C_3  and  O_4 
ROOT
HETATM    1  C   LIG     1      16.557  32.826  15.288  1.00  0.00     0.336 C 
ENDROOT
BRANCH   1   2
HETATM    2  O   LIG     1      16.129  34.012  15.922  1.00  0.00    -0.372 OA
HETATM    3  C   LIG     1      15.057  33.721  16.791  1.00  0.00     0.204 C 
ENDBRANCH   1   2
BRANCH   1   4
HETATM    4  O   LIG     1      16.123  32.861  13.946  1.00  0.00    -0.372 OA
HETATM    5  C   LIG     1      15.781  31.559  13.526  1.00  0.00     0.204 C 
ENDBRANCH   1   4
TORSDOF 2
ENDMDL
MODEL 11
REMARK VINA RESULT:      -2.5      2.006      2.537
REMARK  2 active torsions:
REMARK  status: ('A' for Active; 'I' for Inactive)
REMARK    1  A    between atoms: O_2  and  C_3 
REMARK    2  A    between atoms: C_3  and  O_4 
ROOT
HETATM    1  C   LIG     1      16.984  37.250  22.990  1.00  0.00     0.336 C 
ENDROOT
BRANCH   1   2
HETATM    2  O   LIG     1      17.383  37.471  21.655  1.00  0.00    -0.372 OA
HETATM    3  C   LIG     1      17.402  36.244  20.960  1.00  0.00     0.204 C 
ENDBRANCH   1   2
BRANCH   1   4
HETATM    4  O   LIG     1      17.680  38.158  23.816  1.00  0.00    -0.372 OA
HETATM    5  C   LIG     1      17.268  37.990  25.154  1.00  0.00     0.204 C 
ENDBRANCH   1   4
TORSDOF 2
ENDMDL
MODEL 12
REMARK VINA RESULT:      -2.5     11.072     11.818
REMARK  2 active torsions:
REMARK  status: ('A' for Active; 'I' for Inactive)
REMARK    1  A    between atoms: O_2  and  C_3 
REMARK    2  A    between atoms: C_3  and  O_4 
ROOT
HETATM    1  C   LIG     1      16.458  32.165  15.159  1.00  0.00     0.336 C 
ENDROOT
BRANCH   1   2
HETATM    2  O   LIG     1      16.391  30.892  14.555  1.00  0.00    -0.372 OA
HETATM    3  C   LIG     1      15.400  30.897  13.552  1.00  0.00     0.204 C 
ENDBRANCH   1   2
BRANCH   1   4
HETATM    4  O   LIG     1      17.809  32.574  15.182  1.00  0.00    -0.372 OA
HETATM    5  C   LIG     1      18.039  33.496  14.140  1.00  0.00     0.204 C 
ENDBRANCH   1   4
TORSDOF 2
ENDMDL
MODEL 13
REMARK VINA RESULT:      -2.5      9.556     10.744
REMARK  2 active torsions:
REMARK  status: ('A' for Active; 'I' for Inactive)
REMARK    1  A    between atoms: O_2  and  C_3 
REMARK    2  A    between atoms: C_3  and  O_4 
ROOT
HETATM    1  C   LIG     1      16.058  32.744  15.325  1.00  0.00     0.336 C 
ENDROOT
BRANCH   1   2
HETATM    2  O   LIG     1      16.105  33.985  15.994  1.00  0.00    -0.372 OA
HETATM    3  C   LIG     1      15.045  34.060  16.922  1.00  0.00     0.204 C 
ENDBRANCH   1   2
BRANCH   1   4
HETATM    4  O   LIG     1      16.345  32.967  13.961  1.00  0.00    -0.372 OA
HETATM    5  C   LIG     1      17.641  33.506  13.833  1.00  0.00     0.204 C 
ENDBRANCH   1   4
TORSDOF 2
ENDMDL
MODEL 14
REMARK VINA RESULT:      -2.4      8.053      9.235
REMARK  2 active torsions:
REMARK  status: ('A' for Active; 'I' for Inactive)
REMARK    1  A    between atoms: O_2  and  C_3 
REMARK    2  A    between atoms: C_3  and  O_4 
ROOT
HETATM    1  C   LIG     1      14.995  32.713  17.570  1.00  0.00     0.336 C 
ENDROOT
BRANCH   1   2
HETATM    2  O   LIG     1      15.562  32.815  18.858  1.00  0.00    -0.372 OA
HETATM    3  C   LIG     1      15.017  31.818  19.693  1.00  0.00     0.204 C 
ENDBRANCH   1   2
BRANCH   1   4
HETATM    4  O   LIG     1      15.891  33.291  16.645  1.00  0.00    -0.372 OA
HETATM    5  C   LIG     1      15.921  32.515  15.469  1.00  0.00     0.204 C 
ENDBRANCH   1   4
TORSDOF 2
ENDMDL
MODEL 15
REMARK VINA RESULT:      -2.4     11.002     11.742
REMARK  2 active torsions:
REMARK  status: ('A' for Active; 'I' for Inactive)
REMARK    1  A    between atoms: O_2  and  C_3 
REMARK    2  A    between atoms: C_3  and  O_4 
ROOT
HETATM    1  C   LIG     1      16.541  32.197  15.262  1.00  0.00     0.336 C 
ENDROOT
BRANCH   1   2
HETATM    2  O   LIG     1      17.883  32.623  15.177  1.00  0.00    -0.372 OA
HETATM    3  C   LIG     1      18.029  33.505  14.086  1.00  0.00     0.204 C 
ENDBRANCH   1   2
BRANCH   1   4
HETATM    4  O   LIG     1      16.391  31.045  14.461  1.00  0.00    -0.372 OA
HETATM    5  C   LIG     1      15.025  30.705  14.375  1.00  0.00     0.204 C 
ENDBRANCH   1   4
TORSDOF 2
ENDMDL
MODEL 16
REMARK VINA RESULT:      -2.3     12.070     12.625
REMARK  2 active torsions:
REMARK  status: ('A' for Active; 'I' for Inactive)
REMARK    1  A    between atoms: O_2  and  C_3 
REMARK    2  A    between atoms: C_3  and  O_4 
ROOT
HETATM    1  C   LIG     1      15.100  30.252  13.966  1.00  0.00     0.336 C 
ENDROOT
BRANCH   1   2
HETATM    2  O   LIG     1      15.999  31.085  13.267  1.00  0.00    -0.372 OA
HETATM    3  C   LIG     1      16.215  32.268  14.004  1.00  0.00     0.204 C 
ENDBRANCH   1   2
BRANCH   1   4
HETATM    4  O   LIG     1      14.617  30.964  15.085  1.00  0.00    -0.372 OA
HETATM    5  C   LIG     1      13.356  30.454  15.460  1.00  0.00     0.204 C 
ENDBRANCH   1   4
TORSDOF 2
ENDMDL
MODEL 17
REMARK VINA RESULT:      -2.2     11.122     11.859
REMARK  2 active torsions:
REMARK  status: ('A' for Active; 'I' for Inactive)
REMARK    1  A    between atoms: O_2  and  C_3 
REMARK    2  A    between atoms: C_3  and  O_4 
ROOT
HETATM    1  C   LIG     1      17.828  34.091  14.031  1.00  0.00     0.336 C 
ENDROOT
BRANCH   1   2
HETATM    2  O   LIG     1      18.931  34.386  13.203  1.00  0.00    -0.372 OA
HETATM    3  C   LIG     1      18.940  33.508  12.099  1.00  0.00     0.204 C 
ENDBRANCH   1   2
BRANCH   1   4
HETATM    4  O   LIG     1      18.047  32.831  14.628  1.00  0.00    -0.372 OA
HETATM    5  C   LIG     1      16.859  32.386  15.242  1.00  0.00     0.204 C 
ENDBRANCH   1   4
TORSDOF 2
ENDMDL
MODEL 18
REMARK VINA RESULT:      -2.2     11.283     12.206
REMARK  2 active torsions:
REMARK  status: ('A' for Active; 'I' for Inactive)
REMARK    1  A    between atoms: O_2  and  C_3 
REMARK    2  A    between atoms: C_3  and  O_4 
ROOT
HETATM    1  C   LIG     1      14.381  30.735  15.274  1.00  0.00     0.336 C 
ENDROOT
BRANCH   1   2
HETATM    2  O   LIG     1      14.028  29.641  14.455  1.00  0.00    -0.372 OA
HETATM    3  C   LIG     1      15.197  29.041  13.943  1.00  0.00     0.204 C 
ENDBRANCH   1   2
BRANCH   1   4
HETATM    4  O   LIG     1      13.577  30.696  16.434  1.00  0.00    -0.372 OA
HETATM    5  C   LIG     1      13.740  31.894  17.160  1.00  0.00     0.204 C 
ENDBRANCH   1   4
TORSDOF 2
ENDMDL
MODEL 19
REMARK VINA RESULT:      -2.1     16.824     17.797
REMARK  2 active torsions:
REMARK  status: ('A' for Active; 'I' for Inactive)
REMARK    1  A    between atoms: O_2  and  C_3 
REMARK    2  A    between atoms: C_3  and  O_4 
ROOT
HETATM    1  C   LIG     1      11.476  25.711  12.320  1.00  0.00     0.336 C 
ENDROOT
BRANCH   1   2
HETATM    2  O   LIG     1      11.430  26.880  13.108  1.00  0.00    -0.372 OA
HETATM    3  C   LIG     1      12.733  27.217  13.527  1.00  0.00     0.204 C 
ENDBRANCH   1   2
BRANCH   1   4
HETATM    4  O   LIG     1      12.620  25.779  11.496  1.00  0.00    -0.372 OA
HETATM    5  C   LIG     1      12.237  25.643  10.145  1.00  0.00     0.204 C 
ENDBRANCH   1   4
TORSDOF 2
ENDMDL
MODEL 20
REMARK VINA RESULT:      -2.0     17.869     18.767
REMARK  2 active torsions:
REMARK  status: ('A' for Active; 'I' for Inactive)
REMARK    1  A    between atoms: O_2  and  C_3 
REMARK    2  A    between atoms: C_3  and  O_4 
ROOT
HETATM    1  C   LIG     1      14.799  25.357  10.099  1.00  0.00     0.336 C 
ENDROOT
BRANCH   1   2
HETATM    2  O   LIG     1      15.613  26.509  10.079  1.00  0.00    -0.372 OA
HETATM    3  C   LIG     1      16.102  26.763  11.377  1.00  0.00     0.204 C 
ENDBRANCH   1   2
BRANCH   1   4
HETATM    4  O   LIG     1      13.449  25.770  10.103  1.00  0.00    -0.372 OA
HETATM    5  C   LIG     1      12.664  24.806  10.769  1.00  0.00     0.204 C 
ENDBRANCH   1   4
TORSDOF 2
ENDMDL
