REMARK  3 active torsions:
REMARK  status: ('A' for Active; 'I' for Inactive)
REMARK    1  A    between atoms: C_2  and  C_3 
REMARK    2  A    between atoms: C_3  and  C_4 
REMARK    3  A    between atoms: C_4  and  C_5 
ROOT
HETATM    1  C   LIG     1       0.965  -0.282   0.580  1.00  0.00     0.011 C 
ENDROOT
BRANCH   1   2
HETATM    2  C   LIG     1       2.350  -0.501  -0.035  1.00  0.00     0.085 C 
HETATM    3 BR   LIG     1       3.369   1.149  -0.107  1.00  0.00    -0.097 Br
ENDBRANCH   1   2
BRANCH   1   4
HETATM    4  C   LIG     1       0.031   0.487  -0.369  1.00  0.00     0.000 C 
BRANCH   4   5
HETATM    5  C   LIG     1      -1.329   0.803   0.273  1.00  0.00    -0.005 C 
HETATM    6  C   LIG     1      -2.203  -0.438   0.452  1.00  0.00     0.005 C 
ENDBRANCH   4   5
ENDBRANCH   1   4
TORSDOF 3
