REMARK  3 active torsions:
REMARK  status: ('A' for Active; 'I' for Inactive)
REMARK    1  A    between atoms: C_3  and  C_4 
REMARK    2  A    between atoms: C_5  and  C_6 
REMARK    3  A    between atoms: C_6  and  O_7 
ROOT
HETATM    1  C   LIG     1      -0.138  -0.842  -0.124  1.00  0.00     0.006 C 
HETATM    2  C   LIG     1      -1.423  -1.222  -0.175  1.00  0.00     0.081 C 
ENDROOT
BRANCH   2   3
HETATM    3  C   LIG     1      -2.586  -0.385   0.179  1.00  0.00     0.165 C 
HETATM    4  O   LIG     1      -3.684  -0.943   0.437  1.00  0.00    -0.647 OA
BRANCH   3   5
HETATM    5  O   LIG     1      -2.513   1.005   0.163  1.00  0.00    -0.773 OA
HETATM    6  H   LIG     1      -3.324   1.571   0.385  1.00  0.00     0.167 HD
ENDBRANCH   3   5
ENDBRANCH   2   3
BRANCH   1   7
HETATM    7  C   LIG     1       0.343   0.429   0.463  1.00  0.00    -0.004 C 
HETATM    8  C   LIG     1       1.581   0.903   0.275  1.00  0.00    -0.031 C 
HETATM    9  C   LIG     1       2.609   0.231  -0.583  1.00  0.00     0.036 C 
ENDBRANCH   1   7
TORSDOF 3
