REMARK  0 active torsions:
REMARK  status: ('A' for Active; 'I' for Inactive)
ROOT
HETATM    1  C   LIG     1       1.258   0.588   0.015  1.00  0.00     0.049 A 
HETATM    2  C   LIG     1       0.698  -0.681  -0.032  1.00  0.00     0.007 A 
HETATM    3  C   LIG     1      -0.702  -0.678  -0.022  1.00  0.00     0.007 A 
HETATM    4  C   LIG     1      -1.254   0.594   0.032  1.00  0.00     0.049 A 
HETATM    5  S   LIG     1       0.004   1.706   0.067  1.00  0.00    -0.114 SA
ENDROOT
TORSDOF 0
