MODEL 1
REMARK VINA RESULT:      -4.1      0.000      0.000
REMARK  0 active torsions:
REMARK  status: ('A' for Active; 'I' for Inactive)
ROOT
HETATM    1  C   LIG     1      17.416  35.031  25.149  1.00  0.00     0.141 A 
HETATM    2  C   LIG     1      18.161  34.916  26.304  1.00  0.00     0.026 A 
HETATM    3  C   LIG     1      18.420  36.204  26.718  1.00  0.00     0.026 A 
HETATM    4  C   LIG     1      17.818  37.029  25.790  1.00  0.00     0.141 A 
HETATM    5  O   LIG     1      17.229  36.301  24.870  1.00  0.00    -0.335 OA
ENDROOT
TORSDOF 0
ENDMDL
MODEL 2
REMARK VINA RESULT:      -3.6      1.171      2.230
REMARK  0 active torsions:
REMARK  status: ('A' for Active; 'I' for Inactive)
ROOT
HETATM    1  C   LIG     1      17.996  37.000  26.065  1.00  0.00     0.141 A 
HETATM    2  C   LIG     1      17.353  36.428  24.987  1.00  0.00     0.026 A 
HETATM    3  C   LIG     1      17.454  35.065  25.165  1.00  0.00     0.026 A 
HETATM    4  C   LIG     1      18.155  34.887  26.340  1.00  0.00     0.141 A 
HETATM    5  O   LIG     1      18.461  36.057  26.851  1.00  0.00    -0.335 OA
ENDROOT
TORSDOF 0
ENDMDL
MODEL 3
REMARK VINA RESULT:      -3.4      2.933      3.845
REMARK  0 active torsions:
REMARK  status: ('A' for Active; 'I' for Inactive)
ROOT
HETATM    1  C   LIG     1      17.257  38.201  24.525  1.00  0.00     0.141 A 
HETATM    2  C   LIG     1      17.931  38.430  23.344  1.00  0.00     0.026 A 
HETATM    3  C   LIG     1      17.012  38.231  22.337  1.00  0.00     0.026 A 
HETATM    4  C   LIG     1      15.831  37.889  22.964  1.00  0.00     0.141 A 
HETATM    5  O   LIG     1      16.010  37.881  24.265  1.00  0.00    -0.335 OA
ENDROOT
TORSDOF 0
ENDMDL
MODEL 4
REMARK VINA RESULT:      -3.4      6.103      6.614
REMARK  0 active torsions:
REMARK  status: ('A' for Active; 'I' for Inactive)
ROOT
HETATM    1  C   LIG     1      18.514  39.085  20.861  1.00  0.00     0.141 A 
HETATM    2  C   LIG     1      18.415  37.743  20.560  1.00  0.00     0.026 A 
HETATM    3  C   LIG     1      19.341  37.509  19.566  1.00  0.00     0.026 A 
HETATM    4  C   LIG     1      19.948  38.723  19.319  1.00  0.00     0.141 A 
HETATM    5  O   LIG     1      19.435  39.640  20.107  1.00  0.00    -0.335 OA
ENDROOT
TORSDOF 0
ENDMDL
MODEL 5
REMARK VINA RESULT:      -3.4      2.621      3.378
REMARK  0 active torsions:
REMARK  status: ('A' for Active; 'I' for Inactive)
ROOT
HETATM    1  C   LIG     1      16.363  38.256  22.970  1.00  0.00     0.141 A 
HETATM    2  C   LIG     1      17.725  38.467  22.959  1.00  0.00     0.026 A 
HETATM    3  C   LIG     1      18.159  38.214  24.242  1.00  0.00     0.026 A 
HETATM    4  C   LIG     1      17.034  37.866  24.961  1.00  0.00     0.141 A 
HETATM    5  O   LIG     1      15.983  37.899  24.176  1.00  0.00    -0.335 OA
ENDROOT
TORSDOF 0
ENDMDL
MODEL 6
REMARK VINA RESULT:      -3.3      5.763      6.200
REMARK  0 active torsions:
REMARK  status: ('A' for Active; 'I' for Inactive)
ROOT
HETATM    1  C   LIG     1      18.273  37.213  20.456  1.00  0.00     0.141 A 
HETATM    2  C   LIG     1      19.257  37.221  19.490  1.00  0.00     0.026 A 
HETATM    3  C   LIG     1      19.845  38.465  19.559  1.00  0.00     0.026 A 
HETATM    4  C   LIG     1      19.183  39.143  20.562  1.00  0.00     0.141 A 
HETATM    5  O   LIG     1      18.255  38.370  21.076  1.00  0.00    -0.335 OA
ENDROOT
TORSDOF 0
ENDMDL
MODEL 7
REMARK VINA RESULT:      -3.1      1.927      2.588
REMARK  0 active torsions:
REMARK  status: ('A' for Active; 'I' for Inactive)
ROOT
HETATM    1  C   LIG     1      16.853  36.448  22.602  1.00  0.00     0.141 A 
HETATM    2  C   LIG     1      16.996  35.134  22.994  1.00  0.00     0.026 A 
HETATM    3  C   LIG     1      17.243  35.168  24.349  1.00  0.00     0.026 A 
HETATM    4  C   LIG     1      17.237  36.501  24.703  1.00  0.00     0.141 A 
HETATM    5  O   LIG     1      17.002  37.237  23.641  1.00  0.00    -0.335 OA
ENDROOT
TORSDOF 0
ENDMDL
MODEL 8
REMARK VINA RESULT:      -3.0     10.406     11.256
REMARK  0 active torsions:
REMARK  status: ('A' for Active; 'I' for Inactive)
ROOT
HETATM    1  C   LIG     1      12.917  30.652  16.104  1.00  0.00     0.141 A 
HETATM    2  C   LIG     1      14.148  30.763  15.492  1.00  0.00     0.026 A 
HETATM    3  C   LIG     1      14.788  31.812  16.115  1.00  0.00     0.026 A 
HETATM    4  C   LIG     1      13.908  32.280  17.069  1.00  0.00     0.141 A 
HETATM    5  O   LIG     1      12.806  31.569  17.039  1.00  0.00    -0.335 OA
ENDROOT
TORSDOF 0
ENDMDL
MODEL 9
REMARK VINA RESULT:      -3.0      6.367      6.888
REMARK  0 active torsions:
REMARK  status: ('A' for Active; 'I' for Inactive)
ROOT
HETATM    1  C   LIG     1      13.497  30.206  27.992  1.00  0.00     0.141 A 
HETATM    2  C   LIG     1      12.547  30.618  27.081  1.00  0.00     0.026 A 
HETATM    3  C   LIG     1      12.727  31.976  26.933  1.00  0.00     0.026 A 
HETATM    4  C   LIG     1      13.775  32.312  27.765  1.00  0.00     0.141 A 
HETATM    5  O   LIG     1      14.212  31.237  28.379  1.00  0.00    -0.335 OA
ENDROOT
TORSDOF 0
ENDMDL
MODEL 10
REMARK VINA RESULT:      -3.0      3.498      4.174
REMARK  0 active torsions:
REMARK  status: ('A' for Active; 'I' for Inactive)
ROOT
HETATM    1  C   LIG     1      16.860  35.949  22.955  1.00  0.00     0.141 A 
HETATM    2  C   LIG     1      17.021  35.247  21.778  1.00  0.00     0.026 A 
HETATM    3  C   LIG     1      17.450  36.166  20.845  1.00  0.00     0.026 A 
HETATM    4  C   LIG     1      17.523  37.374  21.507  1.00  0.00     0.141 A 
HETATM    5  O   LIG     1      17.167  37.211  22.760  1.00  0.00    -0.335 OA
ENDROOT
TORSDOF 0
ENDMDL
MODEL 11
REMARK VINA RESULT:      -3.0      4.881      5.271
REMARK  0 active torsions:
REMARK  status: ('A' for Active; 'I' for Inactive)
ROOT
HETATM    1  C   LIG     1      18.008  36.607  20.485  1.00  0.00     0.141 A 
HETATM    2  C   LIG     1      17.303  37.086  21.569  1.00  0.00     0.026 A 
HETATM    3  C   LIG     1      17.704  38.394  21.733  1.00  0.00     0.026 A 
HETATM    4  C   LIG     1      18.631  38.635  20.741  1.00  0.00     0.141 A 
HETATM    5  O   LIG     1      18.789  37.553  20.015  1.00  0.00    -0.335 OA
ENDROOT
TORSDOF 0
ENDMDL
MODEL 12
REMARK VINA RESULT:      -2.9     10.930     11.910
REMARK  0 active torsions:
REMARK  status: ('A' for Active; 'I' for Inactive)
ROOT
HETATM    1  C   LIG     1      14.724  30.759  14.778  1.00  0.00     0.141 A 
HETATM    2  C   LIG     1      13.510  30.174  15.071  1.00  0.00     0.026 A 
HETATM    3  C   LIG     1      13.082  30.755  16.244  1.00  0.00     0.026 A 
HETATM    4  C   LIG     1      14.062  31.659  16.599  1.00  0.00     0.141 A 
HETATM    5  O   LIG     1      15.025  31.638  15.707  1.00  0.00    -0.335 OA
ENDROOT
TORSDOF 0
ENDMDL
MODEL 13
REMARK VINA RESULT:      -2.9      8.052      8.820
REMARK  0 active torsions:
REMARK  status: ('A' for Active; 'I' for Inactive)
ROOT
HETATM    1  C   LIG     1      14.291  31.758  17.653  1.00  0.00     0.141 A 
HETATM    2  C   LIG     1      15.106  32.809  18.016  1.00  0.00     0.026 A 
HETATM    3  C   LIG     1      15.390  32.625  19.351  1.00  0.00     0.026 A 
HETATM    4  C   LIG     1      14.729  31.473  19.724  1.00  0.00     0.141 A 
HETATM    5  O   LIG     1      14.086  30.980  18.691  1.00  0.00    -0.335 OA
ENDROOT
TORSDOF 0
ENDMDL
MODEL 14
REMARK VINA RESULT:      -2.9      4.660      5.413
REMARK  0 active torsions:
REMARK  status: ('A' for Active; 'I' for Inactive)
ROOT
HETATM    1  C   LIG     1      17.176  36.261  21.225  1.00  0.00     0.141 A 
HETATM    2  C   LIG     1      16.018  36.296  21.973  1.00  0.00     0.026 A 
HETATM    3  C   LIG     1      15.089  35.563  21.266  1.00  0.00     0.026 A 
HETATM    4  C   LIG     1      15.736  35.127  20.128  1.00  0.00     0.141 A 
HETATM    5  O   LIG     1      16.976  35.558  20.134  1.00  0.00    -0.335 OA
ENDROOT
TORSDOF 0
ENDMDL
MODEL 15
REMARK VINA RESULT:      -2.9      2.239      3.226
REMARK  0 active torsions:
REMARK  status: ('A' for Active; 'I' for Inactive)
ROOT
HETATM    1  C   LIG     1      17.237  36.385  24.610  1.00  0.00     0.141 A 
HETATM    2  C   LIG     1      16.930  37.285  23.611  1.00  0.00     0.026 A 
HETATM    3  C   LIG     1      16.747  36.536  22.470  1.00  0.00     0.026 A 
HETATM    4  C   LIG     1      16.954  35.223  22.840  1.00  0.00     0.141 A 
HETATM    5  O   LIG     1      17.243  35.167  24.119  1.00  0.00    -0.335 OA
ENDROOT
TORSDOF 0
ENDMDL
MODEL 16
REMARK VINA RESULT:      -2.9     12.249     12.988
REMARK  0 active torsions:
REMARK  status: ('A' for Active; 'I' for Inactive)
ROOT
HETATM    1  C   LIG     1      15.903  31.840  14.254  1.00  0.00     0.141 A 
HETATM    2  C   LIG     1      14.989  31.370  15.173  1.00  0.00     0.026 A 
HETATM    3  C   LIG     1      14.606  30.125  14.724  1.00  0.00     0.026 A 
HETATM    4  C   LIG     1      15.309  29.910  13.557  1.00  0.00     0.141 A 
HETATM    5  O   LIG     1      16.072  30.948  13.305  1.00  0.00    -0.335 OA
ENDROOT
TORSDOF 0
ENDMDL
MODEL 17
REMARK VINA RESULT:      -2.7      9.813     10.543
REMARK  0 active torsions:
REMARK  status: ('A' for Active; 'I' for Inactive)
ROOT
HETATM    1  C   LIG     1      16.356  32.896  15.218  1.00  0.00     0.141 A 
HETATM    2  C   LIG     1      15.469  31.883  15.517  1.00  0.00     0.026 A 
HETATM    3  C   LIG     1      14.659  32.371  16.519  1.00  0.00     0.026 A 
HETATM    4  C   LIG     1      15.102  33.653  16.774  1.00  0.00     0.141 A 
HETATM    5  O   LIG     1      16.111  33.936  15.983  1.00  0.00    -0.335 OA
ENDROOT
TORSDOF 0
ENDMDL
MODEL 18
REMARK VINA RESULT:      -2.6     16.602     16.769
REMARK  0 active torsions:
REMARK  status: ('A' for Active; 'I' for Inactive)
ROOT
HETATM    1  C   LIG     1       4.116  41.010  34.222  1.00  0.00     0.141 A 
HETATM    2  C   LIG     1       3.977  39.644  34.095  1.00  0.00     0.026 A 
HETATM    3  C   LIG     1       4.662  39.094  35.156  1.00  0.00     0.026 A 
HETATM    4  C   LIG     1       5.180  40.157  35.867  1.00  0.00     0.141 A 
HETATM    5  O   LIG     1       4.836  41.283  35.286  1.00  0.00    -0.335 OA
ENDROOT
TORSDOF 0
ENDMDL
MODEL 19
REMARK VINA RESULT:      -2.5     11.192     11.507
REMARK  0 active torsions:
REMARK  status: ('A' for Active; 'I' for Inactive)
ROOT
HETATM    1  C   LIG     1      15.242  46.028  19.917  1.00  0.00     0.141 A 
HETATM    2  C   LIG     1      14.642  46.045  21.158  1.00  0.00     0.026 A 
HETATM    3  C   LIG     1      15.670  46.054  22.076  1.00  0.00     0.026 A 
HETATM    4  C   LIG     1      16.837  46.040  21.339  1.00  0.00     0.141 A 
HETATM    5  O   LIG     1      16.548  46.027  20.058  1.00  0.00    -0.335 OA
ENDROOT
TORSDOF 0
ENDMDL
MODEL 20
REMARK VINA RESULT:      -2.4     15.822     16.048
REMARK  0 active torsions:
REMARK  status: ('A' for Active; 'I' for Inactive)
ROOT
HETATM    1  C   LIG     1      21.452  23.859  35.976  1.00  0.00     0.141 A 
HETATM    2  C   LIG     1      22.017  23.559  34.754  1.00  0.00     0.026 A 
HETATM    3  C   LIG     1      21.014  22.986  34.003  1.00  0.00     0.026 A 
HETATM    4  C   LIG     1      19.897  22.968  34.813  1.00  0.00     0.141 A 
HETATM    5  O   LIG     1      20.190  23.495  35.979  1.00  0.00    -0.335 OA
ENDROOT
TORSDOF 0
ENDMDL
