REMARK  3 active torsions:
REMARK  status: ('A' for Active; 'I' for Inactive)
REMARK    1  A    between atoms: C_2  and  C_3 
REMARK    2  A    between atoms: C_3  and  C_4 
REMARK    3  A    between atoms: C_4  and  C_5 
ROOT
HETATM    1  C   LIG     1       1.063   0.182  -0.454  1.00  0.00     0.078 C 
ENDROOT
BRANCH   1   2
HETATM    2  C   LIG     1       2.349  -0.393   0.081  1.00  0.00     0.123 C 
HETATM    3  C   LIG     1       3.342   0.461   0.813  1.00  0.00     0.091 C 
HETATM    4  O   LIG     1       2.595  -1.577  -0.091  1.00  0.00    -0.298 OA
ENDBRANCH   1   2
BRANCH   1   5
HETATM    5  C   LIG     1      -0.144  -0.401   0.296  1.00  0.00     0.011 C 
BRANCH   5   6
HETATM    6  C   LIG     1      -1.478   0.273  -0.100  1.00  0.00    -0.022 C 
HETATM    7  C   LIG     1      -1.873  -0.047  -1.549  1.00  0.00     0.009 C 
HETATM    8  C   LIG     1      -2.594  -0.172   0.854  1.00  0.00     0.009 C 
ENDBRANCH   5   6
ENDBRANCH   1   5
TORSDOF 3
