REMARK  0 active torsions:
REMARK  status: ('A' for Active; 'I' for Inactive)
ROOT
HETATM    1  C   LIG     1      -0.657   1.321  -0.103  1.00  0.00     0.000 C 
HETATM    2  C   LIG     1       0.813   1.194   0.316  1.00  0.00     0.000 C 
HETATM    3  C   LIG     1       1.450  -0.066  -0.284  1.00  0.00     0.000 C 
HETATM    4  C   LIG     1       0.657  -1.321   0.103  1.00  0.00     0.000 C 
HETATM    5  C   LIG     1      -0.813  -1.194  -0.316  1.00  0.00     0.000 C 
HETATM    6  C   LIG     1      -1.450   0.066   0.284  1.00  0.00     0.000 C 
ENDROOT
TORSDOF 0
