MODEL 1
REMARK VINA RESULT:      -5.1      0.000      0.000
REMARK  6 active torsions:
REMARK  status: ('A' for Active; 'I' for Inactive)
REMARK    1  A    between atoms: O_1  and  C_2 
REMARK    2  A    between atoms: C_2  and  C_3 
REMARK    3  A    between atoms: C_3  and  C_4 
REMARK    4  A    between atoms: C_4  and  C_5 
REMARK    5  A    between atoms: C_5  and  C_6 
REMARK    6  A    between atoms: C_6  and  O_7 
ROOT
HETATM    1  C   LIG     1      16.991  35.423  22.771  1.00  0.00     0.021 C 
ENDROOT
BRANCH   1   2
HETATM    2  C   LIG     1      16.481  34.822  21.451  1.00  0.00     0.110 C 
BRANCH   2   3
HETATM    3  C   LIG     1      14.983  34.756  21.395  1.00  0.00     0.139 C 
HETATM    4  O   LIG     1      14.393  33.665  21.616  1.00  0.00    -0.650 OA
BRANCH   3   5
HETATM    5  O   LIG     1      14.233  35.891  21.101  1.00  0.00    -0.776 OA
HETATM    6  H   LIG     1      13.621  36.309  21.792  1.00  0.00     0.167 HD
ENDBRANCH   3   5
ENDBRANCH   2   3
ENDBRANCH   1   2
BRANCH   1   7
HETATM    7  C   LIG     1      17.206  36.946  22.710  1.00  0.00     0.110 C 
BRANCH   7   8
HETATM    8  C   LIG     1      16.217  37.702  23.548  1.00  0.00     0.139 C 
HETATM    9  O   LIG     1      16.487  37.966  24.749  1.00  0.00    -0.650 OA
BRANCH   8  10
HETATM   10  O   LIG     1      14.991  38.098  23.021  1.00  0.00    -0.776 OA
HETATM   11  H   LIG     1      14.906  38.402  22.059  1.00  0.00     0.167 HD
ENDBRANCH   8  10
ENDBRANCH   7   8
ENDBRANCH   1   7
TORSDOF 6
ENDMDL
MODEL 2
REMARK VINA RESULT:      -5.0      0.508      3.803
REMARK  6 active torsions:
REMARK  status: ('A' for Active; 'I' for Inactive)
REMARK    1  A    between atoms: O_1  and  C_2 
REMARK    2  A    between atoms: C_2  and  C_3 
REMARK    3  A    between atoms: C_3  and  C_4 
REMARK    4  A    between atoms: C_4  and  C_5 
REMARK    5  A    between atoms: C_5  and  C_6 
REMARK    6  A    between atoms: C_6  and  O_7 
ROOT
HETATM    1  C   LIG     1      17.064  36.227  21.823  1.00  0.00     0.021 C 
ENDROOT
BRANCH   1   2
HETATM    2  C   LIG     1      16.995  36.371  23.352  1.00  0.00     0.110 C 
BRANCH   2   3
HETATM    3  C   LIG     1      16.237  37.595  23.776  1.00  0.00     0.139 C 
HETATM    4  O   LIG     1      16.574  38.212  24.821  1.00  0.00    -0.650 OA
BRANCH   3   5
HETATM    5  O   LIG     1      15.161  38.059  23.024  1.00  0.00    -0.776 OA
HETATM    6  H   LIG     1      14.381  37.455  22.797  1.00  0.00     0.167 HD
ENDBRANCH   3   5
ENDBRANCH   2   3
ENDBRANCH   1   2
BRANCH   1   7
HETATM    7  C   LIG     1      16.519  34.883  21.307  1.00  0.00     0.110 C 
BRANCH   7   8
HETATM    8  C   LIG     1      15.022  34.804  21.374  1.00  0.00     0.139 C 
HETATM    9  O   LIG     1      14.464  33.704  21.626  1.00  0.00    -0.650 OA
BRANCH   8  10
HETATM   10  O   LIG     1      14.237  35.929  21.140  1.00  0.00    -0.776 OA
HETATM   11  H   LIG     1      14.575  36.860  21.355  1.00  0.00     0.167 HD
ENDBRANCH   8  10
ENDBRANCH   7   8
ENDBRANCH   1   7
TORSDOF 6
ENDMDL
MODEL 3
REMARK VINA RESULT:      -5.0      3.815      5.266
REMARK  6 active torsions:
REMARK  status: ('A' for Active; 'I' for Inactive)
REMARK    1  A    between atoms: O_1  and  C_2 
REMARK    2  A    between atoms: C_2  and  C_3 
REMARK    3  A    between atoms: C_3  and  C_4 
REMARK    4  A    between atoms: C_4  and  C_5 
REMARK    5  A    between atoms: C_5  and  C_6 
REMARK    6  A    between atoms: C_6  and  O_7 
ROOT
HETATM    1  C   LIG     1      18.730  39.072  22.013  1.00  0.00     0.021 C 
ENDROOT
BRANCH   1   2
HETATM    2  C   LIG     1      17.538  38.193  22.425  1.00  0.00     0.110 C 
BRANCH   2   3
HETATM    3  C   LIG     1      17.346  38.151  23.913  1.00  0.00     0.139 C 
HETATM    4  O   LIG     1      16.185  38.093  24.397  1.00  0.00    -0.650 OA
BRANCH   3   5
HETATM    5  O   LIG     1      18.443  38.174  24.770  1.00  0.00    -0.776 OA
HETATM    6  H   LIG     1      19.201  37.510  24.669  1.00  0.00     0.167 HD
ENDBRANCH   3   5
ENDBRANCH   2   3
ENDBRANCH   1   2
BRANCH   1   7
HETATM    7  C   LIG     1      18.691  39.508  20.538  1.00  0.00     0.110 C 
BRANCH   7   8
HETATM    8  C   LIG     1      19.694  38.777  19.694  1.00  0.00     0.139 C 
HETATM    9  O   LIG     1      19.610  37.528  19.563  1.00  0.00    -0.650 OA
BRANCH   8  10
HETATM   10  O   LIG     1      20.732  39.461  19.067  1.00  0.00    -0.776 OA
HETATM   11  H   LIG     1      20.831  39.458  18.059  1.00  0.00     0.167 HD
ENDBRANCH   8  10
ENDBRANCH   7   8
ENDBRANCH   1   7
TORSDOF 6
ENDMDL
MODEL 4
REMARK VINA RESULT:      -5.0      3.796      4.791
REMARK  6 active torsions:
REMARK  status: ('A' for Active; 'I' for Inactive)
REMARK    1  A    between atoms: O_1  and  C_2 
REMARK    2  A    between atoms: C_2  and  C_3 
REMARK    3  A    between atoms: C_3  and  C_4 
REMARK    4  A    between atoms: C_4  and  C_5 
REMARK    5  A    between atoms: C_5  and  C_6 
REMARK    6  A    between atoms: C_6  and  O_7 
ROOT
HETATM    1  C   LIG     1      18.050  38.324  21.520  1.00  0.00     0.021 C 
ENDROOT
BRANCH   1   2
HETATM    2  C   LIG     1      19.029  39.326  20.885  1.00  0.00     0.110 C 
BRANCH   2   3
HETATM    3  C   LIG     1      19.813  38.721  19.757  1.00  0.00     0.139 C 
HETATM    4  O   LIG     1      19.684  37.498  19.487  1.00  0.00    -0.650 OA
BRANCH   3   5
HETATM    5  O   LIG     1      20.684  39.500  19.001  1.00  0.00    -0.776 OA
HETATM    6  H   LIG     1      21.369  39.075  18.388  1.00  0.00     0.167 HD
ENDBRANCH   3   5
ENDBRANCH   2   3
ENDBRANCH   1   2
BRANCH   1   7
HETATM    7  C   LIG     1      17.106  38.960  22.555  1.00  0.00     0.110 C 
BRANCH   7   8
HETATM    8  C   LIG     1      17.247  38.347  23.918  1.00  0.00     0.139 C 
HETATM    9  O   LIG     1      16.234  37.882  24.504  1.00  0.00    -0.650 OA
BRANCH   8  10
HETATM   10  O   LIG     1      18.483  38.303  24.556  1.00  0.00    -0.776 OA
HETATM   11  H   LIG     1      19.346  38.431  24.041  1.00  0.00     0.167 HD
ENDBRANCH   8  10
ENDBRANCH   7   8
ENDBRANCH   1   7
TORSDOF 6
ENDMDL
MODEL 5
REMARK VINA RESULT:      -4.6      3.258      4.428
REMARK  6 active torsions:
REMARK  status: ('A' for Active; 'I' for Inactive)
REMARK    1  A    between atoms: O_1  and  C_2 
REMARK    2  A    between atoms: C_2  and  C_3 
REMARK    3  A    between atoms: C_3  and  C_4 
REMARK    4  A    between atoms: C_4  and  C_5 
REMARK    5  A    between atoms: C_5  and  C_6 
REMARK    6  A    between atoms: C_6  and  O_7 
ROOT
HETATM    1  C   LIG     1      16.776  37.727  22.139  1.00  0.00     0.021 C 
ENDROOT
BRANCH   1   2
HETATM    2  C   LIG     1      16.993  36.761  23.315  1.00  0.00     0.110 C 
BRANCH   2   3
HETATM    3  C   LIG     1      17.088  37.475  24.631  1.00  0.00     0.139 C 
HETATM    4  O   LIG     1      17.041  38.733  24.669  1.00  0.00    -0.650 OA
BRANCH   3   5
HETATM    5  O   LIG     1      17.227  36.761  25.818  1.00  0.00    -0.776 OA
HETATM    6  H   LIG     1      16.907  35.803  25.893  1.00  0.00     0.167 HD
ENDBRANCH   3   5
ENDBRANCH   2   3
ENDBRANCH   1   2
BRANCH   1   7
HETATM    7  C   LIG     1      17.956  37.769  21.152  1.00  0.00     0.110 C 
BRANCH   7   8
HETATM    8  C   LIG     1      18.800  39.000  21.314  1.00  0.00     0.139 C 
HETATM    9  O   LIG     1      19.046  39.726  20.315  1.00  0.00    -0.650 OA
BRANCH   8  10
HETATM   10  O   LIG     1      19.334  39.341  22.553  1.00  0.00    -0.776 OA
HETATM   11  H   LIG     1      19.268  38.713  23.345  1.00  0.00     0.167 HD
ENDBRANCH   8  10
ENDBRANCH   7   8
ENDBRANCH   1   7
TORSDOF 6
ENDMDL
MODEL 6
REMARK VINA RESULT:      -4.6      3.394      4.429
REMARK  6 active torsions:
REMARK  status: ('A' for Active; 'I' for Inactive)
REMARK    1  A    between atoms: O_1  and  C_2 
REMARK    2  A    between atoms: C_2  and  C_3 
REMARK    3  A    between atoms: C_3  and  C_4 
REMARK    4  A    between atoms: C_4  and  C_5 
REMARK    5  A    between atoms: C_5  and  C_6 
REMARK    6  A    between atoms: C_6  and  O_7 
ROOT
HETATM    1  C   LIG     1      16.828  38.113  22.413  1.00  0.00     0.021 C 
ENDROOT
BRANCH   1   2
HETATM    2  C   LIG     1      17.859  37.968  21.281  1.00  0.00     0.110 C 
BRANCH   2   3
HETATM    3  C   LIG     1      18.854  39.091  21.268  1.00  0.00     0.139 C 
HETATM    4  O   LIG     1      19.026  39.768  20.220  1.00  0.00    -0.650 OA
BRANCH   3   5
HETATM    5  O   LIG     1      19.593  39.398  22.407  1.00  0.00    -0.776 OA
HETATM    6  H   LIG     1      20.427  39.970  22.353  1.00  0.00     0.167 HD
ENDBRANCH   3   5
ENDBRANCH   2   3
ENDBRANCH   1   2
BRANCH   1   7
HETATM    7  C   LIG     1      16.897  36.982  23.454  1.00  0.00     0.110 C 
BRANCH   7   8
HETATM    8  C   LIG     1      17.087  37.495  24.851  1.00  0.00     0.139 C 
HETATM    9  O   LIG     1      17.060  38.734  25.072  1.00  0.00    -0.650 OA
BRANCH   8  10
HETATM   10  O   LIG     1      17.317  36.618  25.908  1.00  0.00    -0.776 OA
HETATM   11  H   LIG     1      16.635  36.493  26.646  1.00  0.00     0.167 HD
ENDBRANCH   8  10
ENDBRANCH   7   8
ENDBRANCH   1   7
TORSDOF 6
ENDMDL
MODEL 7
REMARK VINA RESULT:      -4.4      3.784      5.116
REMARK  6 active torsions:
REMARK  status: ('A' for Active; 'I' for Inactive)
REMARK    1  A    between atoms: O_1  and  C_2 
REMARK    2  A    between atoms: C_2  and  C_3 
REMARK    3  A    between atoms: C_3  and  C_4 
REMARK    4  A    between atoms: C_4  and  C_5 
REMARK    5  A    between atoms: C_5  and  C_6 
REMARK    6  A    between atoms: C_6  and  O_7 
ROOT
HETATM    1  C   LIG     1      18.120  36.633  20.166  1.00  0.00     0.021 C 
ENDROOT
BRANCH   1   2
HETATM    2  C   LIG     1      18.709  38.035  20.399  1.00  0.00     0.110 C 
BRANCH   2   3
HETATM    3  C   LIG     1      19.279  38.630  19.146  1.00  0.00     0.139 C 
HETATM    4  O   LIG     1      18.694  38.459  18.045  1.00  0.00    -0.650 OA
BRANCH   3   5
HETATM    5  O   LIG     1      20.455  39.375  19.186  1.00  0.00    -0.776 OA
HETATM    6  H   LIG     1      21.257  39.062  19.720  1.00  0.00     0.167 HD
ENDBRANCH   3   5
ENDBRANCH   2   3
ENDBRANCH   1   2
BRANCH   1   7
HETATM    7  C   LIG     1      17.069  36.226  21.213  1.00  0.00     0.110 C 
BRANCH   7   8
HETATM    8  C   LIG     1      15.879  35.546  20.601  1.00  0.00     0.139 C 
HETATM    9  O   LIG     1      16.026  34.829  19.577  1.00  0.00    -0.650 OA
BRANCH   8  10
HETATM   10  O   LIG     1      14.607  35.715  21.139  1.00  0.00    -0.776 OA
HETATM   11  H   LIG     1      14.370  36.535  21.685  1.00  0.00     0.167 HD
ENDBRANCH   8  10
ENDBRANCH   7   8
ENDBRANCH   1   7
TORSDOF 6
ENDMDL
MODEL 8
REMARK VINA RESULT:      -4.3      8.115      9.420
REMARK  6 active torsions:
REMARK  status: ('A' for Active; 'I' for Inactive)
REMARK    1  A    between atoms: O_1  and  C_2 
REMARK    2  A    between atoms: C_2  and  C_3 
REMARK    3  A    between atoms: C_3  and  C_4 
REMARK    4  A    between atoms: C_4  and  C_5 
REMARK    5  A    between atoms: C_5  and  C_6 
REMARK    6  A    between atoms: C_6  and  O_7 
ROOT
HETATM    1  C   LIG     1      14.936  30.003  14.669  1.00  0.00     0.021 C 
ENDROOT
BRANCH   1   2
HETATM    2  C   LIG     1      15.326  30.813  13.422  1.00  0.00     0.110 C 
BRANCH   2   3
HETATM    3  C   LIG     1      16.203  31.985  13.754  1.00  0.00     0.139 C 
HETATM    4  O   LIG     1      16.886  31.980  14.812  1.00  0.00    -0.650 OA
BRANCH   3   5
HETATM    5  O   LIG     1      16.271  33.083  12.901  1.00  0.00    -0.776 OA
HETATM    6  H   LIG     1      15.881  33.979  13.168  1.00  0.00     0.167 HD
ENDBRANCH   3   5
ENDBRANCH   2   3
ENDBRANCH   1   2
BRANCH   1   7
HETATM    7  C   LIG     1      13.507  30.286  15.164  1.00  0.00     0.110 C 
BRANCH   7   8
HETATM    8  C   LIG     1      13.480  31.159  16.384  1.00  0.00     0.139 C 
HETATM    9  O   LIG     1      12.400  31.334  17.006  1.00  0.00    -0.650 OA
BRANCH   8  10
HETATM   10  O   LIG     1      14.634  31.800  16.827  1.00  0.00    -0.776 OA
HETATM   11  H   LIG     1      15.515  31.693  16.339  1.00  0.00     0.167 HD
ENDBRANCH   8  10
ENDBRANCH   7   8
ENDBRANCH   1   7
TORSDOF 6
ENDMDL
MODEL 9
REMARK VINA RESULT:      -4.3      6.785      8.516
REMARK  6 active torsions:
REMARK  status: ('A' for Active; 'I' for Inactive)
REMARK    1  A    between atoms: O_1  and  C_2 
REMARK    2  A    between atoms: C_2  and  C_3 
REMARK    3  A    between atoms: C_3  and  C_4 
REMARK    4  A    between atoms: C_4  and  C_5 
REMARK    5  A    between atoms: C_5  and  C_6 
REMARK    6  A    between atoms: C_6  and  O_7 
ROOT
HETATM    1  C   LIG     1      13.894  31.041  16.794  1.00  0.00     0.021 C 
ENDROOT
BRANCH   1   2
HETATM    2  C   LIG     1      13.271  30.512  15.491  1.00  0.00     0.110 C 
BRANCH   2   3
HETATM    3  C   LIG     1      14.299  29.956  14.551  1.00  0.00     0.139 C 
HETATM    4  O   LIG     1      15.448  30.470  14.499  1.00  0.00    -0.650 OA
BRANCH   3   5
HETATM    5  O   LIG     1      13.999  28.872  13.731  1.00  0.00    -0.776 OA
HETATM    6  H   LIG     1      14.448  28.755  12.830  1.00  0.00     0.167 HD
ENDBRANCH   3   5
ENDBRANCH   2   3
ENDBRANCH   1   2
BRANCH   1   7
HETATM    7  C   LIG     1      13.775  32.566  16.957  1.00  0.00     0.110 C 
BRANCH   7   8
HETATM    8  C   LIG     1      15.064  33.279  16.665  1.00  0.00     0.139 C 
HETATM    9  O   LIG     1      15.086  34.537  16.617  1.00  0.00    -0.650 OA
BRANCH   8  10
HETATM   10  O   LIG     1      16.235  32.566  16.424  1.00  0.00    -0.776 OA
HETATM   11  H   LIG     1      16.847  32.805  15.654  1.00  0.00     0.167 HD
ENDBRANCH   8  10
ENDBRANCH   7   8
ENDBRANCH   1   7
TORSDOF 6
ENDMDL
MODEL 10
REMARK VINA RESULT:      -4.2      7.924     10.438
REMARK  6 active torsions:
REMARK  status: ('A' for Active; 'I' for Inactive)
REMARK    1  A    between atoms: O_1  and  C_2 
REMARK    2  A    between atoms: C_2  and  C_3 
REMARK    3  A    between atoms: C_3  and  C_4 
REMARK    4  A    between atoms: C_4  and  C_5 
REMARK    5  A    between atoms: C_5  and  C_6 
REMARK    6  A    between atoms: C_6  and  O_7 
ROOT
HETATM    1  C   LIG     1      13.956  30.239  15.000  1.00  0.00     0.021 C 
ENDROOT
BRANCH   1   2
HETATM    2  C   LIG     1      14.466  31.366  15.913  1.00  0.00     0.110 C 
BRANCH   2   3
HETATM    3  C   LIG     1      13.630  31.523  17.149  1.00  0.00     0.139 C 
HETATM    4  O   LIG     1      14.134  31.302  18.281  1.00  0.00    -0.650 OA
BRANCH   3   5
HETATM    5  O   LIG     1      12.296  31.912  17.059  1.00  0.00    -0.776 OA
HETATM    6  H   LIG     1      11.638  31.399  16.484  1.00  0.00     0.167 HD
ENDBRANCH   3   5
ENDBRANCH   2   3
ENDBRANCH   1   2
BRANCH   1   7
HETATM    7  C   LIG     1      15.051  29.625  14.111  1.00  0.00     0.110 C 
BRANCH   7   8
HETATM    8  C   LIG     1      14.788  28.183  13.785  1.00  0.00     0.139 C 
HETATM    9  O   LIG     1      15.751  27.378  13.687  1.00  0.00    -0.650 OA
BRANCH   8  10
HETATM   10  O   LIG     1      13.492  27.726  13.566  1.00  0.00    -0.776 OA
HETATM   11  H   LIG     1      13.022  27.880  12.682  1.00  0.00     0.167 HD
ENDBRANCH   8  10
ENDBRANCH   7   8
ENDBRANCH   1   7
TORSDOF 6
ENDMDL
MODEL 11
REMARK VINA RESULT:      -4.2      7.827      9.621
REMARK  6 active torsions:
REMARK  status: ('A' for Active; 'I' for Inactive)
REMARK    1  A    between atoms: O_1  and  C_2 
REMARK    2  A    between atoms: C_2  and  C_3 
REMARK    3  A    between atoms: C_3  and  C_4 
REMARK    4  A    between atoms: C_4  and  C_5 
REMARK    5  A    between atoms: C_5  and  C_6 
REMARK    6  A    between atoms: C_6  and  O_7 
ROOT
HETATM    1  C   LIG     1      14.021  30.375  15.022  1.00  0.00     0.021 C 
ENDROOT
BRANCH   1   2
HETATM    2  C   LIG     1      15.169  29.646  14.306  1.00  0.00     0.110 C 
BRANCH   2   3
HETATM    3  C   LIG     1      14.773  28.277  13.837  1.00  0.00     0.139 C 
HETATM    4  O   LIG     1      15.657  27.411  13.605  1.00  0.00    -0.650 OA
BRANCH   3   5
HETATM    5  O   LIG     1      13.432  27.950  13.656  1.00  0.00    -0.776 OA
HETATM    6  H   LIG     1      12.711  28.661  13.680  1.00  0.00     0.167 HD
ENDBRANCH   3   5
ENDBRANCH   2   3
ENDBRANCH   1   2
BRANCH   1   7
HETATM    7  C   LIG     1      14.495  31.510  15.947  1.00  0.00     0.110 C 
BRANCH   7   8
HETATM    8  C   LIG     1      13.653  31.637  17.183  1.00  0.00     0.139 C 
HETATM    9  O   LIG     1      14.108  31.254  18.293  1.00  0.00    -0.650 OA
BRANCH   8  10
HETATM   10  O   LIG     1      12.362  32.153  17.117  1.00  0.00    -0.776 OA
HETATM   11  H   LIG     1      11.644  31.860  17.770  1.00  0.00     0.167 HD
ENDBRANCH   8  10
ENDBRANCH   7   8
ENDBRANCH   1   7
TORSDOF 6
ENDMDL
MODEL 12
REMARK VINA RESULT:      -4.2      6.511      8.044
REMARK  6 active torsions:
REMARK  status: ('A' for Active; 'I' for Inactive)
REMARK    1  A    between atoms: O_1  and  C_2 
REMARK    2  A    between atoms: C_2  and  C_3 
REMARK    3  A    between atoms: C_3  and  C_4 
REMARK    4  A    between atoms: C_4  and  C_5 
REMARK    5  A    between atoms: C_5  and  C_6 
REMARK    6  A    between atoms: C_6  and  O_7 
ROOT
HETATM    1  C   LIG     1      16.042  32.467  14.604  1.00  0.00     0.021 C 
ENDROOT
BRANCH   1   2
HETATM    2  C   LIG     1      17.487  32.909  14.886  1.00  0.00     0.110 C 
BRANCH   2   3
HETATM    3  C   LIG     1      17.798  34.254  14.298  1.00  0.00     0.139 C 
HETATM    4  O   LIG     1      18.605  34.349  13.335  1.00  0.00    -0.650 OA
BRANCH   3   5
HETATM    5  O   LIG     1      17.203  35.405  14.806  1.00  0.00    -0.776 OA
HETATM    6  H   LIG     1      17.761  36.192  15.114  1.00  0.00     0.167 HD
ENDBRANCH   3   5
ENDBRANCH   2   3
ENDBRANCH   1   2
BRANCH   1   7
HETATM    7  C   LIG     1      15.249  32.112  15.874  1.00  0.00     0.110 C 
BRANCH   7   8
HETATM    8  C   LIG     1      15.284  33.207  16.900  1.00  0.00     0.139 C 
HETATM    9  O   LIG     1      15.544  32.931  18.101  1.00  0.00    -0.650 OA
BRANCH   8  10
HETATM   10  O   LIG     1      15.009  34.525  16.547  1.00  0.00    -0.776 OA
HETATM   11  H   LIG     1      15.683  35.084  16.037  1.00  0.00     0.167 HD
ENDBRANCH   8  10
ENDBRANCH   7   8
ENDBRANCH   1   7
TORSDOF 6
ENDMDL
MODEL 13
REMARK VINA RESULT:      -4.2      8.029      9.251
REMARK  6 active torsions:
REMARK  status: ('A' for Active; 'I' for Inactive)
REMARK    1  A    between atoms: O_1  and  C_2 
REMARK    2  A    between atoms: C_2  and  C_3 
REMARK    3  A    between atoms: C_3  and  C_4 
REMARK    4  A    between atoms: C_4  and  C_5 
REMARK    5  A    between atoms: C_5  and  C_6 
REMARK    6  A    between atoms: C_6  and  O_7 
ROOT
HETATM    1  C   LIG     1      15.225  30.940  14.521  1.00  0.00     0.021 C 
ENDROOT
BRANCH   1   2
HETATM    2  C   LIG     1      16.009  32.132  13.950  1.00  0.00     0.110 C 
BRANCH   2   3
HETATM    3  C   LIG     1      16.849  32.814  14.990  1.00  0.00     0.139 C 
HETATM    4  O   LIG     1      17.914  32.274  15.391  1.00  0.00    -0.650 OA
BRANCH   3   5
HETATM    5  O   LIG     1      16.465  34.042  15.520  1.00  0.00    -0.776 OA
HETATM    6  H   LIG     1      16.988  34.476  16.271  1.00  0.00     0.167 HD
ENDBRANCH   3   5
ENDBRANCH   2   3
ENDBRANCH   1   2
BRANCH   1   7
HETATM    7  C   LIG     1      14.494  31.258  15.838  1.00  0.00     0.110 C 
BRANCH   7   8
HETATM    8  C   LIG     1      13.137  30.621  15.913  1.00  0.00     0.139 C 
HETATM    9  O   LIG     1      12.380  30.875  16.886  1.00  0.00    -0.650 OA
BRANCH   8  10
HETATM   10  O   LIG     1      12.710  29.734  14.930  1.00  0.00    -0.776 OA
HETATM   11  H   LIG     1      11.756  29.396  14.905  1.00  0.00     0.167 HD
ENDBRANCH   8  10
ENDBRANCH   7   8
ENDBRANCH   1   7
TORSDOF 6
ENDMDL
MODEL 14
REMARK VINA RESULT:      -4.1      8.236      8.954
REMARK  6 active torsions:
REMARK  status: ('A' for Active; 'I' for Inactive)
REMARK    1  A    between atoms: O_1  and  C_2 
REMARK    2  A    between atoms: C_2  and  C_3 
REMARK    3  A    between atoms: C_3  and  C_4 
REMARK    4  A    between atoms: C_4  and  C_5 
REMARK    5  A    between atoms: C_5  and  C_6 
REMARK    6  A    between atoms: C_6  and  O_7 
ROOT
HETATM    1  C   LIG     1      15.305  30.301  14.569  1.00  0.00     0.021 C 
ENDROOT
BRANCH   1   2
HETATM    2  C   LIG     1      13.786  30.257  14.805  1.00  0.00     0.110 C 
BRANCH   2   3
HETATM    3  C   LIG     1      13.413  30.661  16.201  1.00  0.00     0.139 C 
HETATM    4  O   LIG     1      14.204  31.361  16.886  1.00  0.00    -0.650 OA
BRANCH   3   5
HETATM    5  O   LIG     1      12.195  30.270  16.751  1.00  0.00    -0.776 OA
HETATM    6  H   LIG     1      11.877  29.310  16.692  1.00  0.00     0.167 HD
ENDBRANCH   3   5
ENDBRANCH   2   3
ENDBRANCH   1   2
BRANCH   1   7
HETATM    7  C   LIG     1      15.776  31.563  13.825  1.00  0.00     0.110 C 
BRANCH   7   8
HETATM    8  C   LIG     1      16.498  32.526  14.722  1.00  0.00     0.139 C 
HETATM    9  O   LIG     1      17.753  32.480  14.808  1.00  0.00    -0.650 OA
BRANCH   8  10
HETATM   10  O   LIG     1      15.796  33.458  15.480  1.00  0.00    -0.776 OA
HETATM   11  H   LIG     1      15.439  34.311  15.066  1.00  0.00     0.167 HD
ENDBRANCH   8  10
ENDBRANCH   7   8
ENDBRANCH   1   7
TORSDOF 6
ENDMDL
MODEL 15
REMARK VINA RESULT:      -4.0      6.110      8.661
REMARK  6 active torsions:
REMARK  status: ('A' for Active; 'I' for Inactive)
REMARK    1  A    between atoms: O_1  and  C_2 
REMARK    2  A    between atoms: C_2  and  C_3 
REMARK    3  A    between atoms: C_3  and  C_4 
REMARK    4  A    between atoms: C_4  and  C_5 
REMARK    5  A    between atoms: C_5  and  C_6 
REMARK    6  A    between atoms: C_6  and  O_7 
ROOT
HETATM    1  C   LIG     1      14.719  31.785  16.773  1.00  0.00     0.021 C 
ENDROOT
BRANCH   1   2
HETATM    2  C   LIG     1      14.180  33.224  16.804  1.00  0.00     0.110 C 
BRANCH   2   3
HETATM    3  C   LIG     1      15.261  34.234  17.051  1.00  0.00     0.139 C 
HETATM    4  O   LIG     1      16.038  34.566  16.117  1.00  0.00    -0.650 OA
BRANCH   3   5
HETATM    5  O   LIG     1      15.418  34.813  18.308  1.00  0.00    -0.776 OA
HETATM    6  H   LIG     1      16.061  34.425  18.987  1.00  0.00     0.167 HD
ENDBRANCH   3   5
ENDBRANCH   2   3
ENDBRANCH   1   2
BRANCH   1   7
HETATM    7  C   LIG     1      14.507  31.078  15.422  1.00  0.00     0.110 C 
BRANCH   7   8
HETATM    8  C   LIG     1      13.282  30.212  15.410  1.00  0.00     0.139 C 
HETATM    9  O   LIG     1      13.061  29.453  14.431  1.00  0.00    -0.650 OA
BRANCH   8  10
HETATM   10  O   LIG     1      12.370  30.251  16.462  1.00  0.00    -0.776 OA
HETATM   11  H   LIG     1      11.720  29.492  16.623  1.00  0.00     0.167 HD
ENDBRANCH   8  10
ENDBRANCH   7   8
ENDBRANCH   1   7
TORSDOF 6
ENDMDL
MODEL 16
REMARK VINA RESULT:      -4.0      7.980      8.956
REMARK  6 active torsions:
REMARK  status: ('A' for Active; 'I' for Inactive)
REMARK    1  A    between atoms: O_1  and  C_2 
REMARK    2  A    between atoms: C_2  and  C_3 
REMARK    3  A    between atoms: C_3  and  C_4 
REMARK    4  A    between atoms: C_4  and  C_5 
REMARK    5  A    between atoms: C_5  and  C_6 
REMARK    6  A    between atoms: C_6  and  O_7 
ROOT
HETATM    1  C   LIG     1      15.546  32.286  15.752  1.00  0.00     0.021 C 
ENDROOT
BRANCH   1   2
HETATM    2  C   LIG     1      14.801  31.082  15.152  1.00  0.00     0.110 C 
BRANCH   2   3
HETATM    3  C   LIG     1      13.611  30.680  15.972  1.00  0.00     0.139 C 
HETATM    4  O   LIG     1      13.593  30.910  17.210  1.00  0.00    -0.650 OA
BRANCH   3   5
HETATM    5  O   LIG     1      12.519  30.053  15.378  1.00  0.00    -0.776 OA
HETATM    6  H   LIG     1      12.080  30.438  14.550  1.00  0.00     0.167 HD
ENDBRANCH   3   5
ENDBRANCH   2   3
ENDBRANCH   1   2
BRANCH   1   7
HETATM    7  C   LIG     1      17.019  32.376  15.318  1.00  0.00     0.110 C 
BRANCH   7   8
HETATM    8  C   LIG     1      17.194  33.106  14.018  1.00  0.00     0.139 C 
HETATM    9  O   LIG     1      17.321  34.358  14.015  1.00  0.00    -0.650 OA
BRANCH   8  10
HETATM   10  O   LIG     1      17.196  32.417  12.808  1.00  0.00    -0.776 OA
HETATM   11  H   LIG     1      17.968  32.499  12.158  1.00  0.00     0.167 HD
ENDBRANCH   8  10
ENDBRANCH   7   8
ENDBRANCH   1   7
TORSDOF 6
ENDMDL
MODEL 17
REMARK VINA RESULT:      -4.0      6.518      7.859
REMARK  6 active torsions:
REMARK  status: ('A' for Active; 'I' for Inactive)
REMARK    1  A    between atoms: O_1  and  C_2 
REMARK    2  A    between atoms: C_2  and  C_3 
REMARK    3  A    between atoms: C_3  and  C_4 
REMARK    4  A    between atoms: C_4  and  C_5 
REMARK    5  A    between atoms: C_5  and  C_6 
REMARK    6  A    between atoms: C_6  and  O_7 
ROOT
HETATM    1  C   LIG     1      15.577  31.842  16.102  1.00  0.00     0.021 C 
ENDROOT
BRANCH   1   2
HETATM    2  C   LIG     1      15.542  31.724  14.569  1.00  0.00     0.110 C 
BRANCH   2   3
HETATM    3  C   LIG     1      16.600  32.557  13.908  1.00  0.00     0.139 C 
HETATM    4  O   LIG     1      17.741  32.655  14.431  1.00  0.00    -0.650 OA
BRANCH   3   5
HETATM    5  O   LIG     1      16.335  33.226  12.716  1.00  0.00    -0.776 OA
HETATM    6  H   LIG     1      16.392  32.750  11.824  1.00  0.00     0.167 HD
ENDBRANCH   3   5
ENDBRANCH   2   3
ENDBRANCH   1   2
BRANCH   1   7
HETATM    7  C   LIG     1      14.605  32.897  16.660  1.00  0.00     0.110 C 
BRANCH   7   8
HETATM    8  C   LIG     1      15.307  34.139  17.125  1.00  0.00     0.139 C 
HETATM    9  O   LIG     1      15.968  34.830  16.305  1.00  0.00    -0.650 OA
BRANCH   8  10
HETATM   10  O   LIG     1      15.257  34.529  18.460  1.00  0.00    -0.776 OA
HETATM   11  H   LIG     1      15.857  34.101  19.156  1.00  0.00     0.167 HD
ENDBRANCH   8  10
ENDBRANCH   7   8
ENDBRANCH   1   7
TORSDOF 6
ENDMDL
MODEL 18
REMARK VINA RESULT:      -4.0      3.125      4.739
REMARK  6 active torsions:
REMARK  status: ('A' for Active; 'I' for Inactive)
REMARK    1  A    between atoms: O_1  and  C_2 
REMARK    2  A    between atoms: C_2  and  C_3 
REMARK    3  A    between atoms: C_3  and  C_4 
REMARK    4  A    between atoms: C_4  and  C_5 
REMARK    5  A    between atoms: C_5  and  C_6 
REMARK    6  A    between atoms: C_6  and  O_7 
ROOT
HETATM    1  C   LIG     1      17.220  37.837  22.122  1.00  0.00     0.021 C 
ENDROOT
BRANCH   1   2
HETATM    2  C   LIG     1      18.170  37.846  20.912  1.00  0.00     0.110 C 
BRANCH   2   3
HETATM    3  C   LIG     1      18.822  39.181  20.708  1.00  0.00     0.139 C 
HETATM    4  O   LIG     1      19.337  39.466  19.594  1.00  0.00    -0.650 OA
BRANCH   3   5
HETATM    5  O   LIG     1      18.866  40.115  21.739  1.00  0.00    -0.776 OA
HETATM    6  H   LIG     1      19.467  39.980  22.543  1.00  0.00     0.167 HD
ENDBRANCH   3   5
ENDBRANCH   2   3
ENDBRANCH   1   2
BRANCH   1   7
HETATM    7  C   LIG     1      16.108  36.779  22.023  1.00  0.00     0.110 C 
BRANCH   7   8
HETATM    8  C   LIG     1      16.616  35.385  22.250  1.00  0.00     0.139 C 
HETATM    9  O   LIG     1      16.538  34.532  21.327  1.00  0.00    -0.650 OA
BRANCH   8  10
HETATM   10  O   LIG     1      17.154  35.013  23.479  1.00  0.00    -0.776 OA
HETATM   11  H   LIG     1      18.144  35.110  23.670  1.00  0.00     0.167 HD
ENDBRANCH   8  10
ENDBRANCH   7   8
ENDBRANCH   1   7
TORSDOF 6
ENDMDL
MODEL 19
REMARK VINA RESULT:      -3.8      6.592      8.711
REMARK  6 active torsions:
REMARK  status: ('A' for Active; 'I' for Inactive)
REMARK    1  A    between atoms: O_1  and  C_2 
REMARK    2  A    between atoms: C_2  and  C_3 
REMARK    3  A    between atoms: C_3  and  C_4 
REMARK    4  A    between atoms: C_4  and  C_5 
REMARK    5  A    between atoms: C_5  and  C_6 
REMARK    6  A    between atoms: C_6  and  O_7 
ROOT
HETATM    1  C   LIG     1      14.814  31.491  15.853  1.00  0.00     0.021 C 
ENDROOT
BRANCH   1   2
HETATM    2  C   LIG     1      14.084  32.302  16.936  1.00  0.00     0.110 C 
BRANCH   2   3
HETATM    3  C   LIG     1      15.032  32.951  17.901  1.00  0.00     0.139 C 
HETATM    4  O   LIG     1      15.696  32.243  18.703  1.00  0.00    -0.650 OA
BRANCH   3   5
HETATM    5  O   LIG     1      15.189  34.334  17.920  1.00  0.00    -0.776 OA
HETATM    6  H   LIG     1      14.964  34.899  17.109  1.00  0.00     0.167 HD
ENDBRANCH   3   5
ENDBRANCH   2   3
ENDBRANCH   1   2
BRANCH   1   7
HETATM    7  C   LIG     1      15.825  32.320  15.042  1.00  0.00     0.110 C 
BRANCH   7   8
HETATM    8  C   LIG     1      16.017  31.794  13.649  1.00  0.00     0.139 C 
HETATM    9  O   LIG     1      15.280  30.866  13.224  1.00  0.00    -0.650 OA
BRANCH   8  10
HETATM   10  O   LIG     1      17.015  32.304  12.825  1.00  0.00    -0.776 OA
HETATM   11  H   LIG     1      16.908  32.324  11.818  1.00  0.00     0.167 HD
ENDBRANCH   8  10
ENDBRANCH   7   8
ENDBRANCH   1   7
TORSDOF 6
ENDMDL
MODEL 20
REMARK VINA RESULT:      -3.8      1.931      2.167
REMARK  6 active torsions:
REMARK  status: ('A' for Active; 'I' for Inactive)
REMARK    1  A    between atoms: O_1  and  C_2 
REMARK    2  A    between atoms: C_2  and  C_3 
REMARK    3  A    between atoms: C_3  and  C_4 
REMARK    4  A    between atoms: C_4  and  C_5 
REMARK    5  A    between atoms: C_5  and  C_6 
REMARK    6  A    between atoms: C_6  and  O_7 
ROOT
HETATM    1  C   LIG     1      16.239  36.858  22.437  1.00  0.00     0.021 C 
ENDROOT
BRANCH   1   2
HETATM    2  C   LIG     1      16.747  35.937  21.315  1.00  0.00     0.110 C 
BRANCH   2   3
HETATM    3  C   LIG     1      15.749  34.879  20.948  1.00  0.00     0.139 C 
HETATM    4  O   LIG     1      14.715  34.720  21.650  1.00  0.00    -0.650 OA
BRANCH   3   5
HETATM    5  O   LIG     1      15.951  34.068  19.835  1.00  0.00    -0.776 OA
HETATM    6  H   LIG     1      15.208  33.485  19.470  1.00  0.00     0.167 HD
ENDBRANCH   3   5
ENDBRANCH   2   3
ENDBRANCH   1   2
BRANCH   1   7
HETATM    7  C   LIG     1      16.678  38.324  22.275  1.00  0.00     0.110 C 
BRANCH   7   8
HETATM    8  C   LIG     1      18.000  38.606  22.928  1.00  0.00     0.139 C 
HETATM    9  O   LIG     1      18.180  38.297  24.135  1.00  0.00    -0.650 OA
BRANCH   8  10
HETATM   10  O   LIG     1      19.027  39.226  22.221  1.00  0.00    -0.776 OA
HETATM   11  H   LIG     1      18.979  40.208  21.978  1.00  0.00     0.167 HD
ENDBRANCH   8  10
ENDBRANCH   7   8
ENDBRANCH   1   7
TORSDOF 6
ENDMDL
