MODEL 1
REMARK VINA RESULT:      -5.3      0.000      0.000
REMARK  4 active torsions:
REMARK  status: ('A' for Active; 'I' for Inactive)
REMARK    1  A    between atoms: C_2  and  C_3 
REMARK    2  A    between atoms: C_3  and  C_4 
REMARK    3  A    between atoms: C_4  and  C_5 
REMARK    4  A    between atoms: C_5  and  C_6 
ROOT
HETATM    1  C   LIG     1      17.574  38.228  24.372  1.00  0.00     0.077 C 
ENDROOT
BRANCH   1   2
HETATM    2  C   LIG     1      16.502  37.674  23.473  1.00  0.00     0.123 C 
HETATM    3  C   LIG     1      16.849  36.695  22.393  1.00  0.00     0.091 C 
HETATM    4  O   LIG     1      15.344  38.033  23.617  1.00  0.00    -0.298 OA
ENDBRANCH   1   2
BRANCH   1   5
HETATM    5  C   LIG     1      17.458  37.642  25.784  1.00  0.00     0.007 C 
BRANCH   5   6
HETATM    6  C   LIG     1      18.714  36.840  26.152  1.00  0.00     0.000 C 
BRANCH   6   7
HETATM    7  C   LIG     1      18.398  35.377  26.503  1.00  0.00    -0.005 C 
HETATM    8  C   LIG     1      17.267  34.796  25.655  1.00  0.00     0.005 C 
ENDBRANCH   6   7
ENDBRANCH   5   6
ENDBRANCH   1   5
TORSDOF 4
ENDMDL
MODEL 2
REMARK VINA RESULT:      -5.1      1.410      1.523
REMARK  4 active torsions:
REMARK  status: ('A' for Active; 'I' for Inactive)
REMARK    1  A    between atoms: C_2  and  C_3 
REMARK    2  A    between atoms: C_3  and  C_4 
REMARK    3  A    between atoms: C_4  and  C_5 
REMARK    4  A    between atoms: C_5  and  C_6 
ROOT
HETATM    1  C   LIG     1      17.131  37.150  23.211  1.00  0.00     0.077 C 
ENDROOT
BRANCH   1   2
HETATM    2  C   LIG     1      16.997  38.523  22.610  1.00  0.00     0.123 C 
HETATM    3  C   LIG     1      18.089  39.085  21.752  1.00  0.00     0.091 C 
HETATM    4  O   LIG     1      15.998  39.189  22.834  1.00  0.00    -0.298 OA
ENDBRANCH   1   2
BRANCH   1   5
HETATM    5  C   LIG     1      16.918  37.196  24.729  1.00  0.00     0.007 C 
BRANCH   5   6
HETATM    6  C   LIG     1      18.259  37.309  25.468  1.00  0.00     0.000 C 
BRANCH   6   7
HETATM    7  C   LIG     1      18.391  36.290  26.611  1.00  0.00    -0.005 C 
HETATM    8  C   LIG     1      17.939  34.886  26.207  1.00  0.00     0.005 C 
ENDBRANCH   6   7
ENDBRANCH   5   6
ENDBRANCH   1   5
TORSDOF 4
ENDMDL
MODEL 3
REMARK VINA RESULT:      -5.0      2.637      4.492
REMARK  4 active torsions:
REMARK  status: ('A' for Active; 'I' for Inactive)
REMARK    1  A    between atoms: C_2  and  C_3 
REMARK    2  A    between atoms: C_3  and  C_4 
REMARK    3  A    between atoms: C_4  and  C_5 
REMARK    4  A    between atoms: C_5  and  C_6 
ROOT
HETATM    1  C   LIG     1      16.960  38.907  22.328  1.00  0.00     0.077 C 
ENDROOT
BRANCH   1   2
HETATM    2  C   LIG     1      16.617  37.755  23.233  1.00  0.00     0.123 C 
HETATM    3  C   LIG     1      16.830  36.343  22.779  1.00  0.00     0.091 C 
HETATM    4  O   LIG     1      16.149  37.972  24.340  1.00  0.00    -0.298 OA
ENDBRANCH   1   2
BRANCH   1   5
HETATM    5  C   LIG     1      18.463  38.933  22.026  1.00  0.00     0.007 C 
BRANCH   5   6
HETATM    6  C   LIG     1      18.725  39.367  20.576  1.00  0.00     0.000 C 
BRANCH   6   7
HETATM    7  C   LIG     1      19.665  38.405  19.833  1.00  0.00    -0.005 C 
HETATM    8  C   LIG     1      19.023  37.046  19.557  1.00  0.00     0.005 C 
ENDBRANCH   6   7
ENDBRANCH   5   6
ENDBRANCH   1   5
TORSDOF 4
ENDMDL
MODEL 4
REMARK VINA RESULT:      -5.0      3.491      4.448
REMARK  4 active torsions:
REMARK  status: ('A' for Active; 'I' for Inactive)
REMARK    1  A    between atoms: C_2  and  C_3 
REMARK    2  A    between atoms: C_3  and  C_4 
REMARK    3  A    between atoms: C_4  and  C_5 
REMARK    4  A    between atoms: C_5  and  C_6 
ROOT
HETATM    1  C   LIG     1      18.766  39.355  21.069  1.00  0.00     0.077 C 
ENDROOT
BRANCH   1   2
HETATM    2  C   LIG     1      19.544  38.761  19.927  1.00  0.00     0.123 C 
HETATM    3  C   LIG     1      19.287  37.353  19.484  1.00  0.00     0.091 C 
HETATM    4  O   LIG     1      20.400  39.426  19.364  1.00  0.00    -0.298 OA
ENDBRANCH   1   2
BRANCH   1   5
HETATM    5  C   LIG     1      17.730  38.357  21.600  1.00  0.00     0.007 C 
BRANCH   5   6
HETATM    6  C   LIG     1      17.077  38.877  22.889  1.00  0.00     0.000 C 
BRANCH   6   7
HETATM    7  C   LIG     1      16.771  37.752  23.891  1.00  0.00    -0.005 C 
HETATM    8  C   LIG     1      17.337  38.030  25.284  1.00  0.00     0.005 C 
ENDBRANCH   6   7
ENDBRANCH   5   6
ENDBRANCH   1   5
TORSDOF 4
ENDMDL
MODEL 5
REMARK VINA RESULT:      -4.9      2.092      4.313
REMARK  4 active torsions:
REMARK  status: ('A' for Active; 'I' for Inactive)
REMARK    1  A    between atoms: C_2  and  C_3 
REMARK    2  A    between atoms: C_3  and  C_4 
REMARK    3  A    between atoms: C_4  and  C_5 
REMARK    4  A    between atoms: C_5  and  C_6 
ROOT
HETATM    1  C   LIG     1      17.068  36.780  24.008  1.00  0.00     0.077 C 
ENDROOT
BRANCH   1   2
HETATM    2  C   LIG     1      17.494  37.484  25.267  1.00  0.00     0.123 C 
HETATM    3  C   LIG     1      18.340  36.778  26.282  1.00  0.00     0.091 C 
HETATM    4  O   LIG     1      17.140  38.635  25.468  1.00  0.00    -0.298 OA
ENDBRANCH   1   2
BRANCH   1   5
HETATM    5  C   LIG     1      16.523  37.780  22.981  1.00  0.00     0.007 C 
BRANCH   5   6
HETATM    6  C   LIG     1      17.450  37.875  21.761  1.00  0.00     0.000 C 
BRANCH   6   7
HETATM    7  C   LIG     1      18.386  39.093  21.824  1.00  0.00    -0.005 C 
HETATM    8  C   LIG     1      19.023  39.418  20.473  1.00  0.00     0.005 C 
ENDBRANCH   6   7
ENDBRANCH   5   6
ENDBRANCH   1   5
TORSDOF 4
ENDMDL
MODEL 6
REMARK VINA RESULT:      -4.6      1.889      3.651
REMARK  4 active torsions:
REMARK  status: ('A' for Active; 'I' for Inactive)
REMARK    1  A    between atoms: C_2  and  C_3 
REMARK    2  A    between atoms: C_3  and  C_4 
REMARK    3  A    between atoms: C_4  and  C_5 
REMARK    4  A    between atoms: C_5  and  C_6 
ROOT
HETATM    1  C   LIG     1      17.236  37.758  25.301  1.00  0.00     0.077 C 
ENDROOT
BRANCH   1   2
HETATM    2  C   LIG     1      17.867  36.529  25.896  1.00  0.00     0.123 C 
HETATM    3  C   LIG     1      17.541  35.170  25.354  1.00  0.00     0.091 C 
HETATM    4  O   LIG     1      18.641  36.638  26.834  1.00  0.00    -0.298 OA
ENDBRANCH   1   2
BRANCH   1   5
HETATM    5  C   LIG     1      17.900  38.121  23.967  1.00  0.00     0.007 C 
BRANCH   5   6
HETATM    6  C   LIG     1      16.847  38.373  22.879  1.00  0.00     0.000 C 
BRANCH   6   7
HETATM    7  C   LIG     1      16.119  37.088  22.453  1.00  0.00    -0.005 C 
HETATM    8  C   LIG     1      17.043  36.087  21.760  1.00  0.00     0.005 C 
ENDBRANCH   6   7
ENDBRANCH   5   6
ENDBRANCH   1   5
TORSDOF 4
ENDMDL
MODEL 7
REMARK VINA RESULT:      -4.4      8.076     10.248
REMARK  4 active torsions:
REMARK  status: ('A' for Active; 'I' for Inactive)
REMARK    1  A    between atoms: C_2  and  C_3 
REMARK    2  A    between atoms: C_3  and  C_4 
REMARK    3  A    between atoms: C_4  and  C_5 
REMARK    4  A    between atoms: C_5  and  C_6 
ROOT
HETATM    1  C   LIG     1      14.857  32.477  17.287  1.00  0.00     0.077 C 
ENDROOT
BRANCH   1   2
HETATM    2  C   LIG     1      15.150  32.609  18.756  1.00  0.00     0.123 C 
HETATM    3  C   LIG     1      14.820  31.493  19.699  1.00  0.00     0.091 C 
HETATM    4  O   LIG     1      15.649  33.638  19.186  1.00  0.00    -0.298 OA
ENDBRANCH   1   2
BRANCH   1   5
HETATM    5  C   LIG     1      13.469  31.866  17.060  1.00  0.00     0.007 C 
BRANCH   5   6
HETATM    6  C   LIG     1      13.520  30.769  15.988  1.00  0.00     0.000 C 
BRANCH   6   7
HETATM    7  C   LIG     1      14.759  30.883  15.085  1.00  0.00    -0.005 C 
HETATM    8  C   LIG     1      14.838  29.765  14.046  1.00  0.00     0.005 C 
ENDBRANCH   6   7
ENDBRANCH   5   6
ENDBRANCH   1   5
TORSDOF 4
ENDMDL
MODEL 8
REMARK VINA RESULT:      -4.4      1.853      2.933
REMARK  4 active torsions:
REMARK  status: ('A' for Active; 'I' for Inactive)
REMARK    1  A    between atoms: C_2  and  C_3 
REMARK    2  A    between atoms: C_3  and  C_4 
REMARK    3  A    between atoms: C_4  and  C_5 
REMARK    4  A    between atoms: C_5  and  C_6 
ROOT
HETATM    1  C   LIG     1      16.838  35.521  22.564  1.00  0.00     0.077 C 
ENDROOT
BRANCH   1   2
HETATM    2  C   LIG     1      15.737  35.277  21.569  1.00  0.00     0.123 C 
HETATM    3  C   LIG     1      15.792  34.095  20.650  1.00  0.00     0.091 C 
HETATM    4  O   LIG     1      14.796  36.054  21.501  1.00  0.00    -0.298 OA
ENDBRANCH   1   2
BRANCH   1   5
HETATM    5  C   LIG     1      16.960  37.015  22.887  1.00  0.00     0.007 C 
BRANCH   5   6
HETATM    6  C   LIG     1      16.787  37.268  24.391  1.00  0.00     0.000 C 
BRANCH   6   7
HETATM    7  C   LIG     1      18.118  37.576  25.095  1.00  0.00    -0.005 C 
HETATM    8  C   LIG     1      18.365  36.683  26.311  1.00  0.00     0.005 C 
ENDBRANCH   6   7
ENDBRANCH   5   6
ENDBRANCH   1   5
TORSDOF 4
ENDMDL
MODEL 9
REMARK VINA RESULT:      -4.2      2.783      4.875
REMARK  4 active torsions:
REMARK  status: ('A' for Active; 'I' for Inactive)
REMARK    1  A    between atoms: C_2  and  C_3 
REMARK    2  A    between atoms: C_3  and  C_4 
REMARK    3  A    between atoms: C_4  and  C_5 
REMARK    4  A    between atoms: C_5  and  C_6 
ROOT
HETATM    1  C   LIG     1      17.327  35.761  21.832  1.00  0.00     0.077 C 
ENDROOT
BRANCH   1   2
HETATM    2  C   LIG     1      16.845  36.545  23.023  1.00  0.00     0.123 C 
HETATM    3  C   LIG     1      15.941  37.725  22.839  1.00  0.00     0.091 C 
HETATM    4  O   LIG     1      17.202  36.224  24.146  1.00  0.00    -0.298 OA
ENDBRANCH   1   2
BRANCH   1   5
HETATM    5  C   LIG     1      17.328  36.633  20.571  1.00  0.00     0.007 C 
BRANCH   5   6
HETATM    6  C   LIG     1      18.729  36.692  19.946  1.00  0.00     0.000 C 
BRANCH   6   7
HETATM    7  C   LIG     1      19.192  38.132  19.671  1.00  0.00    -0.005 C 
HETATM    8  C   LIG     1      18.684  39.126  20.715  1.00  0.00     0.005 C 
ENDBRANCH   6   7
ENDBRANCH   5   6
ENDBRANCH   1   5
TORSDOF 4
ENDMDL
MODEL 10
REMARK VINA RESULT:      -4.2      2.242      4.323
REMARK  4 active torsions:
REMARK  status: ('A' for Active; 'I' for Inactive)
REMARK    1  A    between atoms: C_2  and  C_3 
REMARK    2  A    between atoms: C_3  and  C_4 
REMARK    3  A    between atoms: C_4  and  C_5 
REMARK    4  A    between atoms: C_5  and  C_6 
ROOT
HETATM    1  C   LIG     1      17.322  37.405  21.731  1.00  0.00     0.077 C 
ENDROOT
BRANCH   1   2
HETATM    2  C   LIG     1      16.623  37.914  22.962  1.00  0.00     0.123 C 
HETATM    3  C   LIG     1      16.927  37.325  24.306  1.00  0.00     0.091 C 
HETATM    4  O   LIG     1      15.793  38.805  22.864  1.00  0.00    -0.298 OA
ENDBRANCH   1   2
BRANCH   1   5
HETATM    5  C   LIG     1      17.148  35.888  21.593  1.00  0.00     0.007 C 
BRANCH   5   6
HETATM    6  C   LIG     1      15.912  35.551  20.746  1.00  0.00     0.000 C 
BRANCH   6   7
HETATM    7  C   LIG     1      15.269  34.214  21.147  1.00  0.00    -0.005 C 
HETATM    8  C   LIG     1      15.494  33.115  20.109  1.00  0.00     0.005 C 
ENDBRANCH   6   7
ENDBRANCH   5   6
ENDBRANCH   1   5
TORSDOF 4
ENDMDL
MODEL 11
REMARK VINA RESULT:      -4.2      9.855     11.914
REMARK  4 active torsions:
REMARK  status: ('A' for Active; 'I' for Inactive)
REMARK    1  A    between atoms: C_2  and  C_3 
REMARK    2  A    between atoms: C_3  and  C_4 
REMARK    3  A    between atoms: C_4  and  C_5 
REMARK    4  A    between atoms: C_5  and  C_6 
ROOT
HETATM    1  C   LIG     1      14.472  31.280  15.676  1.00  0.00     0.077 C 
ENDROOT
BRANCH   1   2
HETATM    2  C   LIG     1      14.365  32.045  16.967  1.00  0.00     0.123 C 
HETATM    3  C   LIG     1      14.898  33.442  17.067  1.00  0.00     0.091 C 
HETATM    4  O   LIG     1      13.852  31.521  17.943  1.00  0.00    -0.298 OA
ENDBRANCH   1   2
BRANCH   1   5
HETATM    5  C   LIG     1      13.254  30.368  15.481  1.00  0.00     0.007 C 
BRANCH   5   6
HETATM    6  C   LIG     1      13.487  29.379  14.331  1.00  0.00     0.000 C 
BRANCH   6   7
HETATM    7  C   LIG     1      14.978  29.185  14.012  1.00  0.00    -0.005 C 
HETATM    8  C   LIG     1      15.317  27.747  13.619  1.00  0.00     0.005 C 
ENDBRANCH   6   7
ENDBRANCH   5   6
ENDBRANCH   1   5
TORSDOF 4
ENDMDL
MODEL 12
REMARK VINA RESULT:      -4.2      5.391      6.967
REMARK  4 active torsions:
REMARK  status: ('A' for Active; 'I' for Inactive)
REMARK    1  A    between atoms: C_2  and  C_3 
REMARK    2  A    between atoms: C_3  and  C_4 
REMARK    3  A    between atoms: C_4  and  C_5 
REMARK    4  A    between atoms: C_5  and  C_6 
ROOT
HETATM    1  C   LIG     1      14.990  32.088  19.857  1.00  0.00     0.077 C 
ENDROOT
BRANCH   1   2
HETATM    2  C   LIG     1      14.571  31.943  18.419  1.00  0.00     0.123 C 
HETATM    3  C   LIG     1      15.048  32.919  17.388  1.00  0.00     0.091 C 
HETATM    4  O   LIG     1      13.829  31.030  18.093  1.00  0.00    -0.298 OA
ENDBRANCH   1   2
BRANCH   1   5
HETATM    5  C   LIG     1      15.676  33.439  20.091  1.00  0.00     0.007 C 
BRANCH   5   6
HETATM    6  C   LIG     1      15.052  34.172  21.288  1.00  0.00     0.000 C 
BRANCH   6   7
HETATM    7  C   LIG     1      15.805  35.463  21.647  1.00  0.00    -0.005 C 
HETATM    8  C   LIG     1      16.926  35.232  22.660  1.00  0.00     0.005 C 
ENDBRANCH   6   7
ENDBRANCH   5   6
ENDBRANCH   1   5
TORSDOF 4
ENDMDL
MODEL 13
REMARK VINA RESULT:      -4.0      9.103     10.903
REMARK  4 active torsions:
REMARK  status: ('A' for Active; 'I' for Inactive)
REMARK    1  A    between atoms: C_2  and  C_3 
REMARK    2  A    between atoms: C_3  and  C_4 
REMARK    3  A    between atoms: C_4  and  C_5 
REMARK    4  A    between atoms: C_5  and  C_6 
ROOT
HETATM    1  C   LIG     1      14.771  31.213  15.365  1.00  0.00     0.077 C 
ENDROOT
BRANCH   1   2
HETATM    2  C   LIG     1      15.376  30.547  14.159  1.00  0.00     0.123 C 
HETATM    3  C   LIG     1      15.186  29.079  13.927  1.00  0.00     0.091 C 
HETATM    4  O   LIG     1      16.036  31.205  13.370  1.00  0.00    -0.298 OA
ENDBRANCH   1   2
BRANCH   1   5
HETATM    5  C   LIG     1      15.568  32.463  15.755  1.00  0.00     0.007 C 
BRANCH   5   6
HETATM    6  C   LIG     1      15.015  33.088  17.044  1.00  0.00     0.000 C 
BRANCH   6   7
HETATM    7  C   LIG     1      14.533  32.032  18.052  1.00  0.00    -0.005 C 
HETATM    8  C   LIG     1      15.233  32.144  19.406  1.00  0.00     0.005 C 
ENDBRANCH   6   7
ENDBRANCH   5   6
ENDBRANCH   1   5
TORSDOF 4
ENDMDL
MODEL 14
REMARK VINA RESULT:      -4.0     10.735     11.360
REMARK  4 active torsions:
REMARK  status: ('A' for Active; 'I' for Inactive)
REMARK    1  A    between atoms: C_2  and  C_3 
REMARK    2  A    between atoms: C_3  and  C_4 
REMARK    3  A    between atoms: C_4  and  C_5 
REMARK    4  A    between atoms: C_5  and  C_6 
ROOT
HETATM    1  C   LIG     1      17.405  32.896  14.959  1.00  0.00     0.077 C 
ENDROOT
BRANCH   1   2
HETATM    2  C   LIG     1      17.795  33.993  14.008  1.00  0.00     0.123 C 
HETATM    3  C   LIG     1      18.631  33.690  12.801  1.00  0.00     0.091 C 
HETATM    4  O   LIG     1      17.440  35.141  14.226  1.00  0.00    -0.298 OA
ENDBRANCH   1   2
BRANCH   1   5
HETATM    5  C   LIG     1      16.194  32.119  14.428  1.00  0.00     0.007 C 
BRANCH   5   6
HETATM    6  C   LIG     1      15.189  31.831  15.553  1.00  0.00     0.000 C 
BRANCH   6   7
HETATM    7  C   LIG     1      14.269  30.642  15.232  1.00  0.00    -0.005 C 
HETATM    8  C   LIG     1      12.971  30.665  16.039  1.00  0.00     0.005 C 
ENDBRANCH   6   7
ENDBRANCH   5   6
ENDBRANCH   1   5
TORSDOF 4
ENDMDL
MODEL 15
REMARK VINA RESULT:      -3.9      6.472      8.643
REMARK  4 active torsions:
REMARK  status: ('A' for Active; 'I' for Inactive)
REMARK    1  A    between atoms: C_2  and  C_3 
REMARK    2  A    between atoms: C_3  and  C_4 
REMARK    3  A    between atoms: C_4  and  C_5 
REMARK    4  A    between atoms: C_5  and  C_6 
ROOT
HETATM    1  C   LIG     1      15.441  32.668  19.659  1.00  0.00     0.077 C 
ENDROOT
BRANCH   1   2
HETATM    2  C   LIG     1      15.605  34.107  20.067  1.00  0.00     0.123 C 
HETATM    3  C   LIG     1      15.215  34.555  21.443  1.00  0.00     0.091 C 
HETATM    4  O   LIG     1      16.048  34.917  19.268  1.00  0.00    -0.298 OA
ENDBRANCH   1   2
BRANCH   1   5
HETATM    5  C   LIG     1      15.069  32.561  18.175  1.00  0.00     0.007 C 
BRANCH   5   6
HETATM    6  C   LIG     1      14.084  31.408  17.937  1.00  0.00     0.000 C 
BRANCH   6   7
HETATM    7  C   LIG     1      13.364  31.517  16.584  1.00  0.00    -0.005 C 
HETATM    8  C   LIG     1      13.993  30.634  15.506  1.00  0.00     0.005 C 
ENDBRANCH   6   7
ENDBRANCH   5   6
ENDBRANCH   1   5
TORSDOF 4
ENDMDL
MODEL 16
REMARK VINA RESULT:      -3.9     11.477     12.385
REMARK  4 active torsions:
REMARK  status: ('A' for Active; 'I' for Inactive)
REMARK    1  A    between atoms: C_2  and  C_3 
REMARK    2  A    between atoms: C_3  and  C_4 
REMARK    3  A    between atoms: C_4  and  C_5 
REMARK    4  A    between atoms: C_5  and  C_6 
ROOT
HETATM    1  C   LIG     1      15.066  30.260  14.177  1.00  0.00     0.077 C 
ENDROOT
BRANCH   1   2
HETATM    2  C   LIG     1      13.705  29.908  14.713  1.00  0.00     0.123 C 
HETATM    3  C   LIG     1      13.141  30.641  15.892  1.00  0.00     0.091 C 
HETATM    4  O   LIG     1      13.060  29.012  14.191  1.00  0.00    -0.298 OA
ENDBRANCH   1   2
BRANCH   1   5
HETATM    5  C   LIG     1      15.596  31.540  14.833  1.00  0.00     0.007 C 
BRANCH   5   6
HETATM    6  C   LIG     1      16.356  32.404  13.817  1.00  0.00     0.000 C 
BRANCH   6   7
HETATM    7  C   LIG     1      17.494  33.212  14.463  1.00  0.00    -0.005 C 
HETATM    8  C   LIG     1      18.485  33.761  13.437  1.00  0.00     0.005 C 
ENDBRANCH   6   7
ENDBRANCH   5   6
ENDBRANCH   1   5
TORSDOF 4
ENDMDL
MODEL 17
REMARK VINA RESULT:      -3.8      4.584      6.685
REMARK  4 active torsions:
REMARK  status: ('A' for Active; 'I' for Inactive)
REMARK    1  A    between atoms: C_2  and  C_3 
REMARK    2  A    between atoms: C_3  and  C_4 
REMARK    3  A    between atoms: C_4  and  C_5 
REMARK    4  A    between atoms: C_5  and  C_6 
ROOT
HETATM    1  C   LIG     1      16.042  34.375  20.467  1.00  0.00     0.077 C 
ENDROOT
BRANCH   1   2
HETATM    2  C   LIG     1      15.764  35.385  21.547  1.00  0.00     0.123 C 
HETATM    3  C   LIG     1      16.770  35.636  22.629  1.00  0.00     0.091 C 
HETATM    4  O   LIG     1      14.706  35.995  21.549  1.00  0.00    -0.298 OA
ENDBRANCH   1   2
BRANCH   1   5
HETATM    5  C   LIG     1      15.084  33.183  20.576  1.00  0.00     0.007 C 
BRANCH   5   6
HETATM    6  C   LIG     1      15.430  32.103  19.540  1.00  0.00     0.000 C 
BRANCH   6   7
HETATM    7  C   LIG     1      15.157  32.560  18.098  1.00  0.00    -0.005 C 
HETATM    8  C   LIG     1      13.985  31.818  17.455  1.00  0.00     0.005 C 
ENDBRANCH   6   7
ENDBRANCH   5   6
ENDBRANCH   1   5
TORSDOF 4
ENDMDL
MODEL 18
REMARK VINA RESULT:      -3.8      9.642     11.551
REMARK  4 active torsions:
REMARK  status: ('A' for Active; 'I' for Inactive)
REMARK    1  A    between atoms: C_2  and  C_3 
REMARK    2  A    between atoms: C_3  and  C_4 
REMARK    3  A    between atoms: C_4  and  C_5 
REMARK    4  A    between atoms: C_5  and  C_6 
ROOT
HETATM    1  C   LIG     1      13.559  30.027  15.046  1.00  0.00     0.077 C 
ENDROOT
BRANCH   1   2
HETATM    2  C   LIG     1      14.887  29.960  14.343  1.00  0.00     0.123 C 
HETATM    3  C   LIG     1      15.522  31.205  13.802  1.00  0.00     0.091 C 
HETATM    4  O   LIG     1      15.447  28.884  14.202  1.00  0.00    -0.298 OA
ENDBRANCH   1   2
BRANCH   1   5
HETATM    5  C   LIG     1      13.431  31.326  15.850  1.00  0.00     0.007 C 
BRANCH   5   6
HETATM    6  C   LIG     1      13.888  31.122  17.301  1.00  0.00     0.000 C 
BRANCH   6   7
HETATM    7  C   LIG     1      14.707  32.309  17.835  1.00  0.00    -0.005 C 
HETATM    8  C   LIG     1      14.934  33.392  16.781  1.00  0.00     0.005 C 
ENDBRANCH   6   7
ENDBRANCH   5   6
ENDBRANCH   1   5
TORSDOF 4
ENDMDL
MODEL 19
REMARK VINA RESULT:      -3.8     11.053     11.966
REMARK  4 active torsions:
REMARK  status: ('A' for Active; 'I' for Inactive)
REMARK    1  A    between atoms: C_2  and  C_3 
REMARK    2  A    between atoms: C_3  and  C_4 
REMARK    3  A    between atoms: C_4  and  C_5 
REMARK    4  A    between atoms: C_5  and  C_6 
ROOT
HETATM    1  C   LIG     1      14.699  31.326  15.593  1.00  0.00     0.077 C 
ENDROOT
BRANCH   1   2
HETATM    2  C   LIG     1      13.417  30.541  15.649  1.00  0.00     0.123 C 
HETATM    3  C   LIG     1      13.083  29.556  14.571  1.00  0.00     0.091 C 
HETATM    4  O   LIG     1      12.638  30.715  16.574  1.00  0.00    -0.298 OA
ENDBRANCH   1   2
BRANCH   1   5
HETATM    5  C   LIG     1      15.534  30.920  14.374  1.00  0.00     0.007 C 
BRANCH   5   6
HETATM    6  C   LIG     1      16.132  32.153  13.681  1.00  0.00     0.000 C 
BRANCH   6   7
HETATM    7  C   LIG     1      17.066  32.953  14.604  1.00  0.00    -0.005 C 
HETATM    8  C   LIG     1      18.102  33.770  13.831  1.00  0.00     0.005 C 
ENDBRANCH   6   7
ENDBRANCH   5   6
ENDBRANCH   1   5
TORSDOF 4
ENDMDL
MODEL 20
REMARK VINA RESULT:      -3.7      9.844     10.950
REMARK  4 active torsions:
REMARK  status: ('A' for Active; 'I' for Inactive)
REMARK    1  A    between atoms: C_2  and  C_3 
REMARK    2  A    between atoms: C_3  and  C_4 
REMARK    3  A    between atoms: C_4  and  C_5 
REMARK    4  A    between atoms: C_5  and  C_6 
ROOT
HETATM    1  C   LIG     1      16.521  32.234  15.541  1.00  0.00     0.077 C 
ENDROOT
BRANCH   1   2
HETATM    2  C   LIG     1      16.479  32.403  14.047  1.00  0.00     0.123 C 
HETATM    3  C   LIG     1      17.367  33.403  13.370  1.00  0.00     0.091 C 
HETATM    4  O   LIG     1      15.709  31.729  13.381  1.00  0.00    -0.298 OA
ENDBRANCH   1   2
BRANCH   1   5
HETATM    5  C   LIG     1      15.444  33.090  16.217  1.00  0.00     0.007 C 
BRANCH   5   6
HETATM    6  C   LIG     1      14.688  32.283  17.282  1.00  0.00     0.000 C 
BRANCH   6   7
HETATM    7  C   LIG     1      13.252  31.941  16.855  1.00  0.00    -0.005 C 
HETATM    8  C   LIG     1      13.176  30.683  15.990  1.00  0.00     0.005 C 
ENDBRANCH   6   7
ENDBRANCH   5   6
ENDBRANCH   1   5
TORSDOF 4
ENDMDL
