REMARK  0 active torsions:
REMARK  status: ('A' for Active; 'I' for Inactive)
ROOT
HETATM    1  C   LIG     1       1.066  -0.617  -0.204  1.00  0.00     0.141 A 
HETATM    2  C   LIG     1       0.687   0.707  -0.131  1.00  0.00     0.026 A 
HETATM    3  C   LIG     1      -0.688   0.713  -0.220  1.00  0.00     0.026 A 
HETATM    4  C   LIG     1      -1.066  -0.608  -0.344  1.00  0.00     0.141 A 
HETATM    5  O   LIG     1       0.000  -1.374  -0.330  1.00  0.00    -0.335 OA
ENDROOT
TORSDOF 0
