REMARK  9 active torsions:
REMARK  status: ('A' for Active; 'I' for Inactive)
REMARK    1  A    between atoms: C_2  and  C_3 
REMARK    2  A    between atoms: C_3  and  C_4 
REMARK    3  A    between atoms: C_4  and  C_5 
REMARK    4  A    between atoms: C_5  and  C_6 
REMARK    5  A    between atoms: C_6  and  C_7 
REMARK    6  A    between atoms: C_7  and  C_8 
REMARK    7  A    between atoms: C_8  and  C_9 
REMARK    8  A    between atoms: C_9  and  C_10 
REMARK    9  A    between atoms: C_10  and  O_11 
ROOT
HETATM    1  C   LIG     1       0.969  -0.037  -0.539  1.00  0.00     0.000 C 
ENDROOT
BRANCH   1   2
HETATM    2  C   LIG     1      -0.259   0.356   0.298  1.00  0.00     0.000 C 
BRANCH   2   3
HETATM    3  C   LIG     1      -1.259  -0.802   0.459  1.00  0.00     0.000 C 
BRANCH   3   4
HETATM    4  C   LIG     1      -2.456  -0.437   1.357  1.00  0.00     0.000 C 
BRANCH   4   5
HETATM    5  C   LIG     1      -3.337   0.718   0.840  1.00  0.00    -0.000 C 
BRANCH   5   6
HETATM    6  C   LIG     1      -3.914   0.515  -0.572  1.00  0.00    -0.005 C 
HETATM    7  C   LIG     1      -4.822  -0.710  -0.673  1.00  0.00     0.005 C 
ENDBRANCH   5   6
ENDBRANCH   4   5
ENDBRANCH   3   4
ENDBRANCH   2   3
ENDBRANCH   1   2
BRANCH   1   8
HETATM    8  C   LIG     1       1.962  -0.916   0.242  1.00  0.00     0.010 C 
BRANCH   8   9
HETATM    9  C   LIG     1       3.217  -1.238  -0.581  1.00  0.00     0.111 C 
BRANCH   9  10
HETATM   10  C   LIG     1       4.061  -0.021  -0.811  1.00  0.00     0.258 C 
HETATM   11  O   LIG     1       4.272   0.383  -1.987  1.00  0.00    -0.265 OA
BRANCH  10  12
HETATM   12  O   LIG     1       4.612   0.653   0.283  1.00  0.00    -0.326 OA
HETATM   13  C   LIG     1       5.409   1.823   0.140  1.00  0.00     0.213 C 
ENDBRANCH  10  12
ENDBRANCH   9  10
ENDBRANCH   8   9
ENDBRANCH   1   8
TORSDOF 9
