MODEL 1
REMARK VINA RESULT:      -5.4      0.000      0.000
REMARK  3 active torsions:
REMARK  status: ('A' for Active; 'I' for Inactive)
REMARK    1  A    between atoms: C_3  and  C_4 
REMARK    2  A    between atoms: C_5  and  C_6 
REMARK    3  A    between atoms: C_6  and  O_7 
ROOT
HETATM    1  C   LIG     1      17.701  37.572  21.551  1.00  0.00     0.006 C 
HETATM    2  C   LIG     1      17.005  37.038  22.565  1.00  0.00     0.081 C 
ENDROOT
BRANCH   2   3
HETATM    3  C   LIG     1      16.259  37.792  23.592  1.00  0.00     0.165 C 
HETATM    4  O   LIG     1      16.826  38.067  24.681  1.00  0.00    -0.647 OA
BRANCH   3   5
HETATM    5  O   LIG     1      14.923  38.141  23.410  1.00  0.00    -0.773 OA
HETATM    6  H   LIG     1      14.185  37.462  23.549  1.00  0.00     0.167 HD
ENDBRANCH   3   5
ENDBRANCH   2   3
BRANCH   1   7
HETATM    7  C   LIG     1      17.984  39.016  21.390  1.00  0.00    -0.004 C 
HETATM    8  C   LIG     1      18.945  39.491  20.588  1.00  0.00    -0.031 C 
HETATM    9  C   LIG     1      19.817  38.627  19.729  1.00  0.00     0.036 C 
ENDBRANCH   1   7
TORSDOF 3
ENDMDL
MODEL 2
REMARK VINA RESULT:      -5.2      1.350      2.240
REMARK  3 active torsions:
REMARK  status: ('A' for Active; 'I' for Inactive)
REMARK    1  A    between atoms: C_3  and  C_4 
REMARK    2  A    between atoms: C_5  and  C_6 
REMARK    3  A    between atoms: C_6  and  O_7 
ROOT
HETATM    1  C   LIG     1      17.701  38.465  21.687  1.00  0.00     0.006 C 
HETATM    2  C   LIG     1      17.592  39.006  22.909  1.00  0.00     0.081 C 
ENDROOT
BRANCH   2   3
HETATM    3  C   LIG     1      17.376  38.264  24.166  1.00  0.00     0.165 C 
HETATM    4  O   LIG     1      16.205  37.928  24.484  1.00  0.00    -0.647 OA
BRANCH   3   5
HETATM    5  O   LIG     1      18.425  37.993  25.040  1.00  0.00    -0.773 OA
HETATM    6  H   LIG     1      18.398  37.184  25.650  1.00  0.00     0.167 HD
ENDBRANCH   3   5
ENDBRANCH   2   3
BRANCH   1   7
HETATM    7  C   LIG     1      17.450  37.041  21.370  1.00  0.00    -0.004 C 
HETATM    8  C   LIG     1      18.048  36.396  20.360  1.00  0.00    -0.031 C 
HETATM    9  C   LIG     1      19.071  37.022  19.462  1.00  0.00     0.036 C 
ENDBRANCH   1   7
TORSDOF 3
ENDMDL
MODEL 3
REMARK VINA RESULT:      -5.2      2.604      4.369
REMARK  3 active torsions:
REMARK  status: ('A' for Active; 'I' for Inactive)
REMARK    1  A    between atoms: C_3  and  C_4 
REMARK    2  A    between atoms: C_5  and  C_6 
REMARK    3  A    between atoms: C_6  and  O_7 
ROOT
HETATM    1  C   LIG     1      17.600  37.372  24.951  1.00  0.00     0.006 C 
HETATM    2  C   LIG     1      17.487  38.455  24.168  1.00  0.00     0.081 C 
ENDROOT
BRANCH   2   3
HETATM    3  C   LIG     1      16.711  38.537  22.915  1.00  0.00     0.165 C 
HETATM    4  O   LIG     1      17.325  38.652  21.823  1.00  0.00    -0.647 OA
BRANCH   3   5
HETATM    5  O   LIG     1      15.319  38.562  22.922  1.00  0.00    -0.773 OA
HETATM    6  H   LIG     1      14.786  38.059  22.222  1.00  0.00     0.167 HD
ENDBRANCH   3   5
ENDBRANCH   2   3
BRANCH   1   7
HETATM    7  C   LIG     1      17.106  36.021  24.600  1.00  0.00    -0.004 C 
HETATM    8  C   LIG     1      17.475  34.912  25.252  1.00  0.00    -0.031 C 
HETATM    9  C   LIG     1      18.392  34.907  26.436  1.00  0.00     0.036 C 
ENDBRANCH   1   7
TORSDOF 3
ENDMDL
MODEL 4
REMARK VINA RESULT:      -5.1      3.562      4.808
REMARK  3 active torsions:
REMARK  status: ('A' for Active; 'I' for Inactive)
REMARK    1  A    between atoms: C_3  and  C_4 
REMARK    2  A    between atoms: C_5  and  C_6 
REMARK    3  A    between atoms: C_6  and  O_7 
ROOT
HETATM    1  C   LIG     1      18.402  37.738  20.725  1.00  0.00     0.006 C 
HETATM    2  C   LIG     1      18.951  37.789  19.502  1.00  0.00     0.081 C 
ENDROOT
BRANCH   2   3
HETATM    3  C   LIG     1      19.472  39.000  18.839  1.00  0.00     0.165 C 
HETATM    4  O   LIG     1      18.732  39.622  18.034  1.00  0.00    -0.647 OA
BRANCH   3   5
HETATM    5  O   LIG     1      20.783  39.426  19.031  1.00  0.00    -0.773 OA
HETATM    6  H   LIG     1      21.414  39.536  18.245  1.00  0.00     0.167 HD
ENDBRANCH   3   5
ENDBRANCH   2   3
BRANCH   1   7
HETATM    7  C   LIG     1      18.068  38.920  21.549  1.00  0.00    -0.004 C 
HETATM    8  C   LIG     1      17.063  38.939  22.434  1.00  0.00    -0.031 C 
HETATM    9  C   LIG     1      16.188  37.759  22.726  1.00  0.00     0.036 C 
ENDBRANCH   1   7
TORSDOF 3
ENDMDL
MODEL 5
REMARK VINA RESULT:      -5.1      2.670      4.364
REMARK  3 active torsions:
REMARK  status: ('A' for Active; 'I' for Inactive)
REMARK    1  A    between atoms: C_3  and  C_4 
REMARK    2  A    between atoms: C_5  and  C_6 
REMARK    3  A    between atoms: C_6  and  O_7 
ROOT
HETATM    1  C   LIG     1      17.169  36.476  24.133  1.00  0.00     0.006 C 
HETATM    2  C   LIG     1      16.795  37.150  23.036  1.00  0.00     0.081 C 
ENDROOT
BRANCH   2   3
HETATM    3  C   LIG     1      17.067  38.575  22.763  1.00  0.00     0.165 C 
HETATM    4  O   LIG     1      16.127  39.406  22.856  1.00  0.00    -0.647 OA
BRANCH   3   5
HETATM    5  O   LIG     1      18.320  39.006  22.335  1.00  0.00    -0.773 OA
HETATM    6  H   LIG     1      19.020  39.312  23.001  1.00  0.00     0.167 HD
ENDBRANCH   3   5
ENDBRANCH   2   3
BRANCH   1   7
HETATM    7  C   LIG     1      17.772  37.092  25.337  1.00  0.00    -0.004 C 
HETATM    8  C   LIG     1      18.281  36.380  26.350  1.00  0.00    -0.031 C 
HETATM    9  C   LIG     1      18.342  34.883  26.368  1.00  0.00     0.036 C 
ENDBRANCH   1   7
TORSDOF 3
ENDMDL
MODEL 6
REMARK VINA RESULT:      -5.0      2.858      3.750
REMARK  3 active torsions:
REMARK  status: ('A' for Active; 'I' for Inactive)
REMARK    1  A    between atoms: C_3  and  C_4 
REMARK    2  A    between atoms: C_5  and  C_6 
REMARK    3  A    between atoms: C_6  and  O_7 
ROOT
HETATM    1  C   LIG     1      17.091  35.131  23.481  1.00  0.00     0.006 C 
HETATM    2  C   LIG     1      17.221  35.831  24.618  1.00  0.00     0.081 C 
ENDROOT
BRANCH   2   3
HETATM    3  C   LIG     1      17.247  37.302  24.728  1.00  0.00     0.165 C 
HETATM    4  O   LIG     1      16.198  37.952  24.480  1.00  0.00    -0.647 OA
BRANCH   3   5
HETATM    5  O   LIG     1      18.421  37.988  25.027  1.00  0.00    -0.773 OA
HETATM    6  H   LIG     1      18.414  38.778  25.662  1.00  0.00     0.167 HD
ENDBRANCH   3   5
ENDBRANCH   2   3
BRANCH   1   7
HETATM    7  C   LIG     1      17.125  35.715  22.122  1.00  0.00    -0.004 C 
HETATM    8  C   LIG     1      16.275  35.364  21.149  1.00  0.00    -0.031 C 
HETATM    9  C   LIG     1      15.164  34.376  21.331  1.00  0.00     0.036 C 
ENDBRANCH   1   7
TORSDOF 3
ENDMDL
MODEL 7
REMARK VINA RESULT:      -4.9      1.916      3.201
REMARK  3 active torsions:
REMARK  status: ('A' for Active; 'I' for Inactive)
REMARK    1  A    between atoms: C_3  and  C_4 
REMARK    2  A    between atoms: C_5  and  C_6 
REMARK    3  A    between atoms: C_6  and  O_7 
ROOT
HETATM    1  C   LIG     1      17.355  36.585  21.552  1.00  0.00     0.006 C 
HETATM    2  C   LIG     1      17.058  37.714  22.212  1.00  0.00     0.081 C 
ENDROOT
BRANCH   2   3
HETATM    3  C   LIG     1      16.327  37.800  23.492  1.00  0.00     0.165 C 
HETATM    4  O   LIG     1      16.943  37.567  24.564  1.00  0.00    -0.647 OA
BRANCH   3   5
HETATM    5  O   LIG     1      14.960  38.060  23.532  1.00  0.00    -0.773 OA
HETATM    6  H   LIG     1      14.389  37.971  22.700  1.00  0.00     0.167 HD
ENDBRANCH   3   5
ENDBRANCH   2   3
BRANCH   1   7
HETATM    7  C   LIG     1      16.847  35.241  21.909  1.00  0.00    -0.004 C 
HETATM    8  C   LIG     1      16.073  34.509  21.099  1.00  0.00    -0.031 C 
HETATM    9  C   LIG     1      15.665  34.939  19.723  1.00  0.00     0.036 C 
ENDBRANCH   1   7
TORSDOF 3
ENDMDL
MODEL 8
REMARK VINA RESULT:      -4.8      9.943     10.531
REMARK  3 active torsions:
REMARK  status: ('A' for Active; 'I' for Inactive)
REMARK    1  A    between atoms: C_3  and  C_4 
REMARK    2  A    between atoms: C_5  and  C_6 
REMARK    3  A    between atoms: C_6  and  O_7 
ROOT
HETATM    1  C   LIG     1      13.404  30.366  15.224  1.00  0.00     0.006 C 
HETATM    2  C   LIG     1      12.976  30.799  16.418  1.00  0.00     0.081 C 
ENDROOT
BRANCH   2   3
HETATM    3  C   LIG     1      13.680  31.758  17.293  1.00  0.00     0.165 C 
HETATM    4  O   LIG     1      14.170  31.348  18.377  1.00  0.00    -0.647 OA
BRANCH   3   5
HETATM    5  O   LIG     1      13.750  33.112  16.979  1.00  0.00    -0.773 OA
HETATM    6  H   LIG     1      13.529  33.442  16.047  1.00  0.00     0.167 HD
ENDBRANCH   3   5
ENDBRANCH   2   3
BRANCH   1   7
HETATM    7  C   LIG     1      14.743  30.645  14.656  1.00  0.00    -0.004 C 
HETATM    8  C   LIG     1      15.479  29.722  14.024  1.00  0.00    -0.031 C 
HETATM    9  C   LIG     1      15.021  28.317  13.777  1.00  0.00     0.036 C 
ENDBRANCH   1   7
TORSDOF 3
ENDMDL
MODEL 9
REMARK VINA RESULT:      -4.8      2.186      2.529
REMARK  3 active torsions:
REMARK  status: ('A' for Active; 'I' for Inactive)
REMARK    1  A    between atoms: C_3  and  C_4 
REMARK    2  A    between atoms: C_5  and  C_6 
REMARK    3  A    between atoms: C_6  and  O_7 
ROOT
HETATM    1  C   LIG     1      17.555  37.377  21.378  1.00  0.00     0.006 C 
HETATM    2  C   LIG     1      16.413  37.054  22.003  1.00  0.00     0.081 C 
ENDROOT
BRANCH   2   3
HETATM    3  C   LIG     1      15.630  35.822  21.787  1.00  0.00     0.165 C 
HETATM    4  O   LIG     1      16.131  34.714  22.113  1.00  0.00    -0.647 OA
BRANCH   3   5
HETATM    5  O   LIG     1      14.384  35.851  21.167  1.00  0.00    -0.773 OA
HETATM    6  H   LIG     1      14.130  35.155  20.475  1.00  0.00     0.167 HD
ENDBRANCH   3   5
ENDBRANCH   2   3
BRANCH   1   7
HETATM    7  C   LIG     1      18.134  36.631  20.239  1.00  0.00    -0.004 C 
HETATM    8  C   LIG     1      19.110  37.118  19.462  1.00  0.00    -0.031 C 
HETATM    9  C   LIG     1      19.760  38.450  19.677  1.00  0.00     0.036 C 
ENDBRANCH   1   7
TORSDOF 3
ENDMDL
MODEL 10
REMARK VINA RESULT:      -4.7      2.550      3.188
REMARK  3 active torsions:
REMARK  status: ('A' for Active; 'I' for Inactive)
REMARK    1  A    between atoms: C_3  and  C_4 
REMARK    2  A    between atoms: C_5  and  C_6 
REMARK    3  A    between atoms: C_6  and  O_7 
ROOT
HETATM    1  C   LIG     1      17.249  36.300  21.369  1.00  0.00     0.006 C 
HETATM    2  C   LIG     1      16.554  35.212  21.004  1.00  0.00     0.081 C 
ENDROOT
BRANCH   2   3
HETATM    3  C   LIG     1      15.119  34.978  21.258  1.00  0.00     0.165 C 
HETATM    4  O   LIG     1      14.756  33.871  21.734  1.00  0.00    -0.647 OA
BRANCH   3   5
HETATM    5  O   LIG     1      14.157  35.924  20.916  1.00  0.00    -0.773 OA
HETATM    6  H   LIG     1      14.110  36.815  21.397  1.00  0.00     0.167 HD
ENDBRANCH   3   5
ENDBRANCH   2   3
BRANCH   1   7
HETATM    7  C   LIG     1      16.731  37.376  22.243  1.00  0.00    -0.004 C 
HETATM    8  C   LIG     1      17.230  38.619  22.252  1.00  0.00    -0.031 C 
HETATM    9  C   LIG     1      18.335  39.080  21.351  1.00  0.00     0.036 C 
ENDBRANCH   1   7
TORSDOF 3
ENDMDL
MODEL 11
REMARK VINA RESULT:      -4.6      2.037      2.912
REMARK  3 active torsions:
REMARK  status: ('A' for Active; 'I' for Inactive)
REMARK    1  A    between atoms: C_3  and  C_4 
REMARK    2  A    between atoms: C_5  and  C_6 
REMARK    3  A    between atoms: C_6  and  O_7 
ROOT
HETATM    1  C   LIG     1      16.991  38.329  24.034  1.00  0.00     0.006 C 
HETATM    2  C   LIG     1      17.238  38.030  25.317  1.00  0.00     0.081 C 
ENDROOT
BRANCH   2   3
HETATM    3  C   LIG     1      17.831  36.772  25.812  1.00  0.00     0.165 C 
HETATM    4  O   LIG     1      19.043  36.759  26.149  1.00  0.00    -0.647 OA
BRANCH   3   5
HETATM    5  O   LIG     1      17.100  35.588  25.844  1.00  0.00    -0.773 OA
HETATM    6  H   LIG     1      17.362  34.831  26.465  1.00  0.00     0.167 HD
ENDBRANCH   3   5
ENDBRANCH   2   3
BRANCH   1   7
HETATM    7  C   LIG     1      17.110  37.376  22.907  1.00  0.00    -0.004 C 
HETATM    8  C   LIG     1      17.624  37.708  21.716  1.00  0.00    -0.031 C 
HETATM    9  C   LIG     1      18.178  39.062  21.395  1.00  0.00     0.036 C 
ENDBRANCH   1   7
TORSDOF 3
ENDMDL
MODEL 12
REMARK VINA RESULT:      -4.5      9.875     10.815
REMARK  3 active torsions:
REMARK  status: ('A' for Active; 'I' for Inactive)
REMARK    1  A    between atoms: C_3  and  C_4 
REMARK    2  A    between atoms: C_5  and  C_6 
REMARK    3  A    between atoms: C_6  and  O_7 
ROOT
HETATM    1  C   LIG     1      16.543  32.211  15.148  1.00  0.00     0.006 C 
HETATM    2  C   LIG     1      17.427  33.129  14.732  1.00  0.00     0.081 C 
ENDROOT
BRANCH   2   3
HETATM    3  C   LIG     1      17.635  33.559  13.335  1.00  0.00     0.165 C 
HETATM    4  O   LIG     1      17.364  34.745  13.014  1.00  0.00    -0.647 OA
BRANCH   3   5
HETATM    5  O   LIG     1      18.054  32.664  12.354  1.00  0.00    -0.773 OA
HETATM    6  H   LIG     1      18.981  32.733  11.949  1.00  0.00     0.167 HD
ENDBRANCH   3   5
ENDBRANCH   2   3
BRANCH   1   7
HETATM    7  C   LIG     1      15.742  31.345  14.252  1.00  0.00    -0.004 C 
HETATM    8  C   LIG     1      14.614  30.736  14.636  1.00  0.00    -0.031 C 
HETATM    9  C   LIG     1      14.004  30.891  15.996  1.00  0.00     0.036 C 
ENDBRANCH   1   7
TORSDOF 3
ENDMDL
MODEL 13
REMARK VINA RESULT:      -4.4      2.935      3.718
REMARK  3 active torsions:
REMARK  status: ('A' for Active; 'I' for Inactive)
REMARK    1  A    between atoms: C_3  and  C_4 
REMARK    2  A    between atoms: C_5  and  C_6 
REMARK    3  A    between atoms: C_6  and  O_7 
ROOT
HETATM    1  C   LIG     1      16.080  37.839  22.809  1.00  0.00     0.006 C 
HETATM    2  C   LIG     1      15.832  36.764  22.048  1.00  0.00     0.081 C 
ENDROOT
BRANCH   2   3
HETATM    3  C   LIG     1      16.842  35.819  21.532  1.00  0.00     0.165 C 
HETATM    4  O   LIG     1      17.331  34.962  22.312  1.00  0.00    -0.647 OA
BRANCH   3   5
HETATM    5  O   LIG     1      17.316  35.904  20.225  1.00  0.00    -0.773 OA
HETATM    6  H   LIG     1      18.064  35.301  19.904  1.00  0.00     0.167 HD
ENDBRANCH   3   5
ENDBRANCH   2   3
BRANCH   1   7
HETATM    7  C   LIG     1      17.431  38.360  23.119  1.00  0.00    -0.004 C 
HETATM    8  C   LIG     1      18.033  38.183  24.302  1.00  0.00    -0.031 C 
HETATM    9  C   LIG     1      17.435  37.403  25.432  1.00  0.00     0.036 C 
ENDBRANCH   1   7
TORSDOF 3
ENDMDL
MODEL 14
REMARK VINA RESULT:      -4.4      9.118      9.855
REMARK  3 active torsions:
REMARK  status: ('A' for Active; 'I' for Inactive)
REMARK    1  A    between atoms: C_3  and  C_4 
REMARK    2  A    between atoms: C_5  and  C_6 
REMARK    3  A    between atoms: C_6  and  O_7 
ROOT
HETATM    1  C   LIG     1      15.784  31.714  14.856  1.00  0.00     0.006 C 
HETATM    2  C   LIG     1      16.178  32.811  15.518  1.00  0.00     0.081 C 
ENDROOT
BRANCH   2   3
HETATM    3  C   LIG     1      15.505  33.399  16.693  1.00  0.00     0.165 C 
HETATM    4  O   LIG     1      14.952  34.523  16.581  1.00  0.00    -0.647 OA
BRANCH   3   5
HETATM    5  O   LIG     1      15.532  32.771  17.936  1.00  0.00    -0.773 OA
HETATM    6  H   LIG     1      16.213  33.038  18.638  1.00  0.00     0.167 HD
ENDBRANCH   3   5
ENDBRANCH   2   3
BRANCH   1   7
HETATM    7  C   LIG     1      14.506  31.003  15.085  1.00  0.00    -0.004 C 
HETATM    8  C   LIG     1      14.245  29.785  14.596  1.00  0.00    -0.031 C 
HETATM    9  C   LIG     1      15.225  28.979  13.799  1.00  0.00     0.036 C 
ENDBRANCH   1   7
TORSDOF 3
ENDMDL
MODEL 15
REMARK VINA RESULT:      -4.4      3.275      3.797
REMARK  3 active torsions:
REMARK  status: ('A' for Active; 'I' for Inactive)
REMARK    1  A    between atoms: C_3  and  C_4 
REMARK    2  A    between atoms: C_5  and  C_6 
REMARK    3  A    between atoms: C_6  and  O_7 
ROOT
HETATM    1  C   LIG     1      17.249  36.528  21.216  1.00  0.00     0.006 C 
HETATM    2  C   LIG     1      16.154  35.756  21.156  1.00  0.00     0.081 C 
ENDROOT
BRANCH   2   3
HETATM    3  C   LIG     1      15.887  34.713  20.146  1.00  0.00     0.165 C 
HETATM    4  O   LIG     1      15.760  35.049  18.940  1.00  0.00    -0.647 OA
BRANCH   3   5
HETATM    5  O   LIG     1      15.703  33.381  20.507  1.00  0.00    -0.773 OA
HETATM    6  H   LIG     1      16.359  32.667  20.213  1.00  0.00     0.167 HD
ENDBRANCH   3   5
ENDBRANCH   2   3
BRANCH   1   7
HETATM    7  C   LIG     1      18.300  36.584  20.175  1.00  0.00    -0.004 C 
HETATM    8  C   LIG     1      18.956  37.706  19.854  1.00  0.00    -0.031 C 
HETATM    9  C   LIG     1      18.739  39.023  20.535  1.00  0.00     0.036 C 
ENDBRANCH   1   7
TORSDOF 3
ENDMDL
MODEL 16
REMARK VINA RESULT:      -4.3      2.102      2.518
REMARK  3 active torsions:
REMARK  status: ('A' for Active; 'I' for Inactive)
REMARK    1  A    between atoms: C_3  and  C_4 
REMARK    2  A    between atoms: C_5  and  C_6 
REMARK    3  A    between atoms: C_6  and  O_7 
ROOT
HETATM    1  C   LIG     1      16.454  38.244  22.665  1.00  0.00     0.006 C 
HETATM    2  C   LIG     1      16.059  37.000  22.358  1.00  0.00     0.081 C 
ENDROOT
BRANCH   2   3
HETATM    3  C   LIG     1      16.874  35.777  22.490  1.00  0.00     0.165 C 
HETATM    4  O   LIG     1      17.316  35.221  21.451  1.00  0.00    -0.647 OA
BRANCH   3   5
HETATM    5  O   LIG     1      17.103  35.187  23.730  1.00  0.00    -0.773 OA
HETATM    6  H   LIG     1      17.598  34.305  23.804  1.00  0.00     0.167 HD
ENDBRANCH   3   5
ENDBRANCH   2   3
BRANCH   1   7
HETATM    7  C   LIG     1      17.838  38.623  23.027  1.00  0.00    -0.004 C 
HETATM    8  C   LIG     1      18.747  39.030  22.131  1.00  0.00    -0.031 C 
HETATM    9  C   LIG     1      18.461  39.192  20.670  1.00  0.00     0.036 C 
ENDBRANCH   1   7
TORSDOF 3
ENDMDL
MODEL 17
REMARK VINA RESULT:      -4.3     10.795     11.448
REMARK  3 active torsions:
REMARK  status: ('A' for Active; 'I' for Inactive)
REMARK    1  A    between atoms: C_3  and  C_4 
REMARK    2  A    between atoms: C_5  and  C_6 
REMARK    3  A    between atoms: C_6  and  O_7 
ROOT
HETATM    1  C   LIG     1      21.350  34.843  11.424  1.00  0.00     0.006 C 
HETATM    2  C   LIG     1      20.152  34.544  10.900  1.00  0.00     0.081 C 
ENDROOT
BRANCH   2   3
HETATM    3  C   LIG     1      18.987  34.031  11.646  1.00  0.00     0.165 C 
HETATM    4  O   LIG     1      18.249  34.844  12.261  1.00  0.00    -0.647 OA
BRANCH   3   5
HETATM    5  O   LIG     1      18.729  32.666  11.743  1.00  0.00    -0.773 OA
HETATM    6  H   LIG     1      19.311  32.066  12.317  1.00  0.00     0.167 HD
ENDBRANCH   3   5
ENDBRANCH   2   3
BRANCH   1   7
HETATM    7  C   LIG     1      21.760  34.544  12.815  1.00  0.00    -0.004 C 
HETATM    8  C   LIG     1      22.793  35.143  13.421  1.00  0.00    -0.031 C 
HETATM    9  C   LIG     1      23.626  36.213  12.784  1.00  0.00     0.036 C 
ENDBRANCH   1   7
TORSDOF 3
ENDMDL
MODEL 18
REMARK VINA RESULT:      -4.3      9.828     10.647
REMARK  3 active torsions:
REMARK  status: ('A' for Active; 'I' for Inactive)
REMARK    1  A    between atoms: C_3  and  C_4 
REMARK    2  A    between atoms: C_5  and  C_6 
REMARK    3  A    between atoms: C_6  and  O_7 
ROOT
HETATM    1  C   LIG     1      15.398  31.366  14.028  1.00  0.00     0.006 C 
HETATM    2  C   LIG     1      16.370  32.267  13.824  1.00  0.00     0.081 C 
ENDROOT
BRANCH   2   3
HETATM    3  C   LIG     1      17.079  33.025  14.873  1.00  0.00     0.165 C 
HETATM    4  O   LIG     1      18.223  32.644  15.234  1.00  0.00    -0.647 OA
BRANCH   3   5
HETATM    5  O   LIG     1      16.482  34.104  15.519  1.00  0.00    -0.773 OA
HETATM    6  H   LIG     1      16.268  34.063  16.509  1.00  0.00     0.167 HD
ENDBRANCH   3   5
ENDBRANCH   2   3
BRANCH   1   7
HETATM    7  C   LIG     1      14.750  31.105  15.333  1.00  0.00    -0.004 C 
HETATM    8  C   LIG     1      13.723  30.260  15.487  1.00  0.00    -0.031 C 
HETATM    9  C   LIG     1      13.137  29.448  14.372  1.00  0.00     0.036 C 
ENDBRANCH   1   7
TORSDOF 3
ENDMDL
MODEL 19
REMARK VINA RESULT:      -4.2      3.143      4.275
REMARK  3 active torsions:
REMARK  status: ('A' for Active; 'I' for Inactive)
REMARK    1  A    between atoms: C_3  and  C_4 
REMARK    2  A    between atoms: C_5  and  C_6 
REMARK    3  A    between atoms: C_6  and  O_7 
ROOT
HETATM    1  C   LIG     1      17.104  36.887  21.927  1.00  0.00     0.006 C 
HETATM    2  C   LIG     1      17.554  36.494  20.727  1.00  0.00     0.081 C 
ENDROOT
BRANCH   2   3
HETATM    3  C   LIG     1      18.676  37.099  19.984  1.00  0.00     0.165 C 
HETATM    4  O   LIG     1      18.661  38.337  19.756  1.00  0.00    -0.647 OA
BRANCH   3   5
HETATM    5  O   LIG     1      19.711  36.322  19.470  1.00  0.00    -0.773 OA
HETATM    6  H   LIG     1      20.436  36.736  18.895  1.00  0.00     0.167 HD
ENDBRANCH   3   5
ENDBRANCH   2   3
BRANCH   1   7
HETATM    7  C   LIG     1      17.549  38.109  22.635  1.00  0.00    -0.004 C 
HETATM    8  C   LIG     1      17.654  38.189  23.968  1.00  0.00    -0.031 C 
HETATM    9  C   LIG     1      17.380  37.044  24.895  1.00  0.00     0.036 C 
ENDBRANCH   1   7
TORSDOF 3
ENDMDL
MODEL 20
REMARK VINA RESULT:      -4.2      9.719     10.572
REMARK  3 active torsions:
REMARK  status: ('A' for Active; 'I' for Inactive)
REMARK    1  A    between atoms: C_3  and  C_4 
REMARK    2  A    between atoms: C_5  and  C_6 
REMARK    3  A    between atoms: C_6  and  O_7 
ROOT
HETATM    1  C   LIG     1      14.566  30.316  15.202  1.00  0.00     0.006 C 
HETATM    2  C   LIG     1      15.640  30.787  14.551  1.00  0.00     0.081 C 
ENDROOT
BRANCH   2   3
HETATM    3  C   LIG     1      15.908  32.205  14.240  1.00  0.00     0.165 C 
HETATM    4  O   LIG     1      16.001  33.030  15.185  1.00  0.00    -0.647 OA
BRANCH   3   5
HETATM    5  O   LIG     1      15.988  32.659  12.927  1.00  0.00    -0.773 OA
HETATM    6  H   LIG     1      16.460  33.528  12.704  1.00  0.00     0.167 HD
ENDBRANCH   3   5
ENDBRANCH   2   3
BRANCH   1   7
HETATM    7  C   LIG     1      13.380  31.124  15.567  1.00  0.00    -0.004 C 
HETATM    8  C   LIG     1      13.214  31.680  16.774  1.00  0.00    -0.031 C 
HETATM    9  C   LIG     1      14.221  31.590  17.879  1.00  0.00     0.036 C 
ENDBRANCH   1   7
TORSDOF 3
ENDMDL
