MODEL 1
REMARK VINA RESULT:      -6.5      0.000      0.000
REMARK  9 active torsions:
REMARK  status: ('A' for Active; 'I' for Inactive)
REMARK    1  A    between atoms: C_2  and  C_3 
REMARK    2  A    between atoms: C_3  and  C_4 
REMARK    3  A    between atoms: C_4  and  C_5 
REMARK    4  A    between atoms: C_5  and  C_6 
REMARK    5  A    between atoms: C_6  and  C_7 
REMARK    6  A    between atoms: C_7  and  C_8 
REMARK    7  A    between atoms: C_8  and  C_9 
REMARK    8  A    between atoms: C_9  and  C_10 
REMARK    9  A    between atoms: C_10  and  O_11 
ROOT
HETATM    1  C   LIG     1      17.348  36.830  21.469  1.00  0.00     0.000 C 
ENDROOT
BRANCH   1   2
HETATM    2  C   LIG     1      16.667  37.099  22.821  1.00  0.00     0.000 C 
BRANCH   2   3
HETATM    3  C   LIG     1      17.513  37.995  23.741  1.00  0.00     0.000 C 
BRANCH   3   4
HETATM    4  C   LIG     1      17.314  37.675  25.234  1.00  0.00     0.000 C 
BRANCH   4   5
HETATM    5  C   LIG     1      18.553  37.105  25.954  1.00  0.00    -0.000 C 
BRANCH   5   6
HETATM    6  C   LIG     1      18.364  35.705  26.565  1.00  0.00    -0.005 C 
HETATM    7  C   LIG     1      17.363  34.848  25.790  1.00  0.00     0.005 C 
ENDBRANCH   5   6
ENDBRANCH   4   5
ENDBRANCH   3   4
ENDBRANCH   2   3
ENDBRANCH   1   2
BRANCH   1   8
HETATM    8  C   LIG     1      18.199  38.019  20.988  1.00  0.00     0.010 C 
BRANCH   8   9
HETATM    9  C   LIG     1      18.899  37.724  19.654  1.00  0.00     0.111 C 
BRANCH   9  10
HETATM   10  C   LIG     1      19.467  38.965  19.036  1.00  0.00     0.258 C 
HETATM   11  O   LIG     1      20.644  39.324  19.315  1.00  0.00    -0.265 OA
BRANCH  10  12
HETATM   12  O   LIG     1      18.683  39.719  18.157  1.00  0.00    -0.326 OA
HETATM   13  C   LIG     1      18.765  39.577  16.743  1.00  0.00     0.213 C 
ENDBRANCH  10  12
ENDBRANCH   9  10
ENDBRANCH   8   9
ENDBRANCH   1   8
TORSDOF 9
ENDMDL
MODEL 2
REMARK VINA RESULT:      -6.5      3.627      4.513
REMARK  9 active torsions:
REMARK  status: ('A' for Active; 'I' for Inactive)
REMARK    1  A    between atoms: C_2  and  C_3 
REMARK    2  A    between atoms: C_3  and  C_4 
REMARK    3  A    between atoms: C_4  and  C_5 
REMARK    4  A    between atoms: C_5  and  C_6 
REMARK    5  A    between atoms: C_6  and  C_7 
REMARK    6  A    between atoms: C_7  and  C_8 
REMARK    7  A    between atoms: C_8  and  C_9 
REMARK    8  A    between atoms: C_9  and  C_10 
REMARK    9  A    between atoms: C_10  and  O_11 
ROOT
HETATM    1  C   LIG     1      17.295  37.431  22.019  1.00  0.00     0.000 C 
ENDROOT
BRANCH   1   2
HETATM    2  C   LIG     1      17.018  38.429  23.155  1.00  0.00     0.000 C 
BRANCH   2   3
HETATM    3  C   LIG     1      18.049  38.331  24.292  1.00  0.00     0.000 C 
BRANCH   3   4
HETATM    4  C   LIG     1      17.495  37.620  25.541  1.00  0.00     0.000 C 
BRANCH   4   5
HETATM    5  C   LIG     1      18.519  36.773  26.324  1.00  0.00    -0.000 C 
BRANCH   5   6
HETATM    6  C   LIG     1      18.225  35.263  26.359  1.00  0.00    -0.005 C 
HETATM    7  C   LIG     1      17.309  34.809  25.222  1.00  0.00     0.005 C 
ENDBRANCH   5   6
ENDBRANCH   4   5
ENDBRANCH   3   4
ENDBRANCH   2   3
ENDBRANCH   1   2
BRANCH   1   8
HETATM    8  C   LIG     1      16.118  36.469  21.776  1.00  0.00     0.010 C 
BRANCH   8   9
HETATM    9  C   LIG     1      16.589  35.021  21.580  1.00  0.00     0.111 C 
BRANCH   9  10
HETATM   10  C   LIG     1      15.517  34.162  20.981  1.00  0.00     0.258 C 
HETATM   11  O   LIG     1      14.440  33.973  21.609  1.00  0.00    -0.265 OA
BRANCH  10  12
HETATM   12  O   LIG     1      15.725  33.572  19.730  1.00  0.00    -0.326 OA
HETATM   13  C   LIG     1      15.254  32.268  19.411  1.00  0.00     0.213 C 
ENDBRANCH  10  12
ENDBRANCH   9  10
ENDBRANCH   8   9
ENDBRANCH   1   8
TORSDOF 9
ENDMDL
MODEL 3
REMARK VINA RESULT:      -5.6      3.009      6.793
REMARK  9 active torsions:
REMARK  status: ('A' for Active; 'I' for Inactive)
REMARK    1  A    between atoms: C_2  and  C_3 
REMARK    2  A    between atoms: C_3  and  C_4 
REMARK    3  A    between atoms: C_4  and  C_5 
REMARK    4  A    between atoms: C_5  and  C_6 
REMARK    5  A    between atoms: C_6  and  C_7 
REMARK    6  A    between atoms: C_7  and  C_8 
REMARK    7  A    between atoms: C_8  and  C_9 
REMARK    8  A    between atoms: C_9  and  C_10 
REMARK    9  A    between atoms: C_10  and  O_11 
ROOT
HETATM    1  C   LIG     1      17.409  35.608  21.446  1.00  0.00     0.000 C 
ENDROOT
BRANCH   1   2
HETATM    2  C   LIG     1      17.778  36.932  20.758  1.00  0.00     0.000 C 
BRANCH   2   3
HETATM    3  C   LIG     1      18.623  36.722  19.489  1.00  0.00     0.000 C 
BRANCH   3   4
HETATM    4  C   LIG     1      19.832  37.674  19.412  1.00  0.00     0.000 C 
BRANCH   4   5
HETATM    5  C   LIG     1      19.483  39.174  19.332  1.00  0.00    -0.000 C 
BRANCH   5   6
HETATM    6  C   LIG     1      18.455  39.546  18.250  1.00  0.00    -0.005 C 
HETATM    7  C   LIG     1      19.043  39.527  16.839  1.00  0.00     0.005 C 
ENDBRANCH   5   6
ENDBRANCH   4   5
ENDBRANCH   3   4
ENDBRANCH   2   3
ENDBRANCH   1   2
BRANCH   1   8
HETATM    8  C   LIG     1      16.869  35.812  22.873  1.00  0.00     0.010 C 
BRANCH   8   9
HETATM    9  C   LIG     1      16.910  37.286  23.299  1.00  0.00     0.111 C 
BRANCH   9  10
HETATM   10  C   LIG     1      17.092  37.435  24.779  1.00  0.00     0.258 C 
HETATM   11  O   LIG     1      17.057  38.581  25.304  1.00  0.00    -0.265 OA
BRANCH  10  12
HETATM   12  O   LIG     1      17.304  36.298  25.565  1.00  0.00    -0.326 OA
HETATM   13  C   LIG     1      18.323  36.231  26.556  1.00  0.00     0.213 C 
ENDBRANCH  10  12
ENDBRANCH   9  10
ENDBRANCH   8   9
ENDBRANCH   1   8
TORSDOF 9
ENDMDL
MODEL 4
REMARK VINA RESULT:      -5.5      4.516      5.405
REMARK  9 active torsions:
REMARK  status: ('A' for Active; 'I' for Inactive)
REMARK    1  A    between atoms: C_2  and  C_3 
REMARK    2  A    between atoms: C_3  and  C_4 
REMARK    3  A    between atoms: C_4  and  C_5 
REMARK    4  A    between atoms: C_5  and  C_6 
REMARK    5  A    between atoms: C_6  and  C_7 
REMARK    6  A    between atoms: C_7  and  C_8 
REMARK    7  A    between atoms: C_8  and  C_9 
REMARK    8  A    between atoms: C_9  and  C_10 
REMARK    9  A    between atoms: C_10  and  O_11 
ROOT
HETATM    1  C   LIG     1      15.633  34.983  20.779  1.00  0.00     0.000 C 
ENDROOT
BRANCH   1   2
HETATM    2  C   LIG     1      16.450  35.323  22.036  1.00  0.00     0.000 C 
BRANCH   2   3
HETATM    3  C   LIG     1      17.255  36.625  21.882  1.00  0.00     0.000 C 
BRANCH   3   4
HETATM    4  C   LIG     1      16.705  37.773  22.749  1.00  0.00     0.000 C 
BRANCH   4   5
HETATM    5  C   LIG     1      17.629  38.232  23.895  1.00  0.00    -0.000 C 
BRANCH   5   6
HETATM    6  C   LIG     1      17.271  37.674  25.283  1.00  0.00    -0.005 C 
HETATM    7  C   LIG     1      18.414  36.884  25.920  1.00  0.00     0.005 C 
ENDBRANCH   5   6
ENDBRANCH   4   5
ENDBRANCH   3   4
ENDBRANCH   2   3
ENDBRANCH   1   2
BRANCH   1   8
HETATM    8  C   LIG     1      14.916  33.625  20.888  1.00  0.00     0.010 C 
BRANCH   8   9
HETATM    9  C   LIG     1      15.658  32.519  20.126  1.00  0.00     0.111 C 
BRANCH   9  10
HETATM   10  C   LIG     1      15.117  32.335  18.741  1.00  0.00     0.258 C 
HETATM   11  O   LIG     1      14.109  31.600  18.554  1.00  0.00    -0.265 OA
BRANCH  10  12
HETATM   12  O   LIG     1      15.739  32.976  17.666  1.00  0.00    -0.326 OA
HETATM   13  C   LIG     1      15.009  33.536  16.581  1.00  0.00     0.213 C 
ENDBRANCH  10  12
ENDBRANCH   9  10
ENDBRANCH   8   9
ENDBRANCH   1   8
TORSDOF 9
ENDMDL
MODEL 5
REMARK VINA RESULT:      -5.4      3.061      7.087
REMARK  9 active torsions:
REMARK  status: ('A' for Active; 'I' for Inactive)
REMARK    1  A    between atoms: C_2  and  C_3 
REMARK    2  A    between atoms: C_3  and  C_4 
REMARK    3  A    between atoms: C_4  and  C_5 
REMARK    4  A    between atoms: C_5  and  C_6 
REMARK    5  A    between atoms: C_6  and  C_7 
REMARK    6  A    between atoms: C_7  and  C_8 
REMARK    7  A    between atoms: C_8  and  C_9 
REMARK    8  A    between atoms: C_9  and  C_10 
REMARK    9  A    between atoms: C_10  and  O_11 
ROOT
HETATM    1  C   LIG     1      17.602  38.859  22.842  1.00  0.00     0.000 C 
ENDROOT
BRANCH   1   2
HETATM    2  C   LIG     1      17.991  38.462  21.409  1.00  0.00     0.000 C 
BRANCH   2   3
HETATM    3  C   LIG     1      18.878  39.516  20.725  1.00  0.00     0.000 C 
BRANCH   3   4
HETATM    4  C   LIG     1      19.743  38.926  19.595  1.00  0.00     0.000 C 
BRANCH   4   5
HETATM    5  C   LIG     1      18.977  38.548  18.311  1.00  0.00    -0.000 C 
BRANCH   5   6
HETATM    6  C   LIG     1      19.215  39.483  17.112  1.00  0.00    -0.005 C 
HETATM    7  C   LIG     1      18.011  40.374  16.805  1.00  0.00     0.005 C 
ENDBRANCH   5   6
ENDBRANCH   4   5
ENDBRANCH   3   4
ENDBRANCH   2   3
ENDBRANCH   1   2
BRANCH   1   8
HETATM    8  C   LIG     1      16.502  37.957  23.429  1.00  0.00     0.010 C 
BRANCH   8   9
HETATM    9  C   LIG     1      17.022  37.094  24.587  1.00  0.00     0.111 C 
BRANCH   9  10
HETATM   10  C   LIG     1      17.164  35.655  24.191  1.00  0.00     0.258 C 
HETATM   11  O   LIG     1      16.987  35.315  22.989  1.00  0.00    -0.265 OA
BRANCH  10  12
HETATM   12  O   LIG     1      17.486  34.701  25.161  1.00  0.00    -0.326 OA
HETATM   13  C   LIG     1      18.180  35.030  26.359  1.00  0.00     0.213 C 
ENDBRANCH  10  12
ENDBRANCH   9  10
ENDBRANCH   8   9
ENDBRANCH   1   8
TORSDOF 9
ENDMDL
MODEL 6
REMARK VINA RESULT:      -5.3      1.720      2.434
REMARK  9 active torsions:
REMARK  status: ('A' for Active; 'I' for Inactive)
REMARK    1  A    between atoms: C_2  and  C_3 
REMARK    2  A    between atoms: C_3  and  C_4 
REMARK    3  A    between atoms: C_4  and  C_5 
REMARK    4  A    between atoms: C_5  and  C_6 
REMARK    5  A    between atoms: C_6  and  C_7 
REMARK    6  A    between atoms: C_7  and  C_8 
REMARK    7  A    between atoms: C_8  and  C_9 
REMARK    8  A    between atoms: C_9  and  C_10 
REMARK    9  A    between atoms: C_10  and  O_11 
ROOT
HETATM    1  C   LIG     1      18.252  39.414  21.736  1.00  0.00     0.000 C 
ENDROOT
BRANCH   1   2
HETATM    2  C   LIG     1      17.134  38.821  22.609  1.00  0.00     0.000 C 
BRANCH   2   3
HETATM    3  C   LIG     1      17.679  37.969  23.768  1.00  0.00     0.000 C 
BRANCH   3   4
HETATM    4  C   LIG     1      16.709  36.851  24.195  1.00  0.00     0.000 C 
BRANCH   4   5
HETATM    5  C   LIG     1      17.082  35.436  23.709  1.00  0.00    -0.000 C 
BRANCH   5   6
HETATM    6  C   LIG     1      17.128  35.264  22.181  1.00  0.00    -0.005 C 
HETATM    7  C   LIG     1      15.801  34.782  21.597  1.00  0.00     0.005 C 
ENDBRANCH   5   6
ENDBRANCH   4   5
ENDBRANCH   3   4
ENDBRANCH   2   3
ENDBRANCH   1   2
BRANCH   1   8
HETATM    8  C   LIG     1      18.978  38.346  20.898  1.00  0.00     0.010 C 
BRANCH   8   9
HETATM    9  C   LIG     1      19.734  38.962  19.712  1.00  0.00     0.111 C 
BRANCH   9  10
HETATM   10  C   LIG     1      18.965  38.832  18.432  1.00  0.00     0.258 C 
HETATM   11  O   LIG     1      18.477  37.717  18.103  1.00  0.00    -0.265 OA
BRANCH  10  12
HETATM   12  O   LIG     1      18.800  39.952  17.611  1.00  0.00    -0.326 OA
HETATM   13  C   LIG     1      18.572  39.847  16.210  1.00  0.00     0.213 C 
ENDBRANCH  10  12
ENDBRANCH   9  10
ENDBRANCH   8   9
ENDBRANCH   1   8
TORSDOF 9
ENDMDL
MODEL 7
REMARK VINA RESULT:      -5.3      5.460      7.819
REMARK  9 active torsions:
REMARK  status: ('A' for Active; 'I' for Inactive)
REMARK    1  A    between atoms: C_2  and  C_3 
REMARK    2  A    between atoms: C_3  and  C_4 
REMARK    3  A    between atoms: C_4  and  C_5 
REMARK    4  A    between atoms: C_5  and  C_6 
REMARK    5  A    between atoms: C_6  and  C_7 
REMARK    6  A    between atoms: C_7  and  C_8 
REMARK    7  A    between atoms: C_8  and  C_9 
REMARK    8  A    between atoms: C_9  and  C_10 
REMARK    9  A    between atoms: C_10  and  O_11 
ROOT
HETATM    1  C   LIG     1      15.391  34.216  21.129  1.00  0.00     0.000 C 
ENDROOT
BRANCH   1   2
HETATM    2  C   LIG     1      15.567  33.646  19.712  1.00  0.00     0.000 C 
BRANCH   2   3
HETATM    3  C   LIG     1      15.609  32.108  19.695  1.00  0.00     0.000 C 
BRANCH   3   4
HETATM    4  C   LIG     1      14.413  31.486  18.950  1.00  0.00     0.000 C 
BRANCH   4   5
HETATM    5  C   LIG     1      14.176  32.023  17.524  1.00  0.00    -0.000 C 
BRANCH   5   6
HETATM    6  C   LIG     1      13.562  31.010  16.542  1.00  0.00    -0.005 C 
HETATM    7  C   LIG     1      14.429  30.783  15.304  1.00  0.00     0.005 C 
ENDBRANCH   5   6
ENDBRANCH   4   5
ENDBRANCH   3   4
ENDBRANCH   2   3
ENDBRANCH   1   2
BRANCH   1   8
HETATM    8  C   LIG     1      16.272  35.453  21.383  1.00  0.00     0.010 C 
BRANCH   8   9
HETATM    9  C   LIG     1      16.932  35.414  22.768  1.00  0.00     0.111 C 
BRANCH   9  10
HETATM   10  C   LIG     1      16.944  36.764  23.419  1.00  0.00     0.258 C 
HETATM   11  O   LIG     1      16.950  37.804  22.706  1.00  0.00    -0.265 OA
BRANCH  10  12
HETATM   12  O   LIG     1      16.953  36.857  24.814  1.00  0.00    -0.326 OA
HETATM   13  C   LIG     1      17.398  38.021  25.502  1.00  0.00     0.213 C 
ENDBRANCH  10  12
ENDBRANCH   9  10
ENDBRANCH   8   9
ENDBRANCH   1   8
TORSDOF 9
ENDMDL
MODEL 8
REMARK VINA RESULT:      -5.2      4.813      7.266
REMARK  9 active torsions:
REMARK  status: ('A' for Active; 'I' for Inactive)
REMARK    1  A    between atoms: C_2  and  C_3 
REMARK    2  A    between atoms: C_3  and  C_4 
REMARK    3  A    between atoms: C_4  and  C_5 
REMARK    4  A    between atoms: C_5  and  C_6 
REMARK    5  A    between atoms: C_6  and  C_7 
REMARK    6  A    between atoms: C_7  and  C_8 
REMARK    7  A    between atoms: C_8  and  C_9 
REMARK    8  A    between atoms: C_9  and  C_10 
REMARK    9  A    between atoms: C_10  and  O_11 
ROOT
HETATM    1  C   LIG     1      16.335  35.316  22.235  1.00  0.00     0.000 C 
ENDROOT
BRANCH   1   2
HETATM    2  C   LIG     1      16.468  34.591  20.887  1.00  0.00     0.000 C 
BRANCH   2   3
HETATM    3  C   LIG     1      15.267  33.679  20.585  1.00  0.00     0.000 C 
BRANCH   3   4
HETATM    4  C   LIG     1      15.670  32.378  19.866  1.00  0.00     0.000 C 
BRANCH   4   5
HETATM    5  C   LIG     1      14.547  31.701  19.055  1.00  0.00    -0.000 C 
BRANCH   5   6
HETATM    6  C   LIG     1      14.426  32.169  17.594  1.00  0.00    -0.005 C 
HETATM    7  C   LIG     1      13.682  31.170  16.708  1.00  0.00     0.005 C 
ENDBRANCH   5   6
ENDBRANCH   4   5
ENDBRANCH   3   4
ENDBRANCH   2   3
ENDBRANCH   1   2
BRANCH   1   8
HETATM    8  C   LIG     1      16.875  36.757  22.189  1.00  0.00     0.010 C 
BRANCH   8   9
HETATM    9  C   LIG     1      16.225  37.650  23.255  1.00  0.00     0.111 C 
BRANCH   9  10
HETATM   10  C   LIG     1      17.038  37.700  24.513  1.00  0.00     0.258 C 
HETATM   11  O   LIG     1      17.016  38.735  25.233  1.00  0.00    -0.265 OA
BRANCH  10  12
HETATM   12  O   LIG     1      17.819  36.598  24.874  1.00  0.00    -0.326 OA
HETATM   13  C   LIG     1      17.526  35.789  26.007  1.00  0.00     0.213 C 
ENDBRANCH  10  12
ENDBRANCH   9  10
ENDBRANCH   8   9
ENDBRANCH   1   8
TORSDOF 9
ENDMDL
MODEL 9
REMARK VINA RESULT:      -5.2      6.488      8.658
REMARK  9 active torsions:
REMARK  status: ('A' for Active; 'I' for Inactive)
REMARK    1  A    between atoms: C_2  and  C_3 
REMARK    2  A    between atoms: C_3  and  C_4 
REMARK    3  A    between atoms: C_4  and  C_5 
REMARK    4  A    between atoms: C_5  and  C_6 
REMARK    5  A    between atoms: C_6  and  C_7 
REMARK    6  A    between atoms: C_7  and  C_8 
REMARK    7  A    between atoms: C_8  and  C_9 
REMARK    8  A    between atoms: C_9  and  C_10 
REMARK    9  A    between atoms: C_10  and  O_11 
ROOT
HETATM    1  C   LIG     1      15.674  32.572  19.847  1.00  0.00     0.000 C 
ENDROOT
BRANCH   1   2
HETATM    2  C   LIG     1      15.139  32.663  18.408  1.00  0.00     0.000 C 
BRANCH   2   3
HETATM    3  C   LIG     1      14.194  31.502  18.055  1.00  0.00     0.000 C 
BRANCH   3   4
HETATM    4  C   LIG     1      13.377  31.764  16.776  1.00  0.00     0.000 C 
BRANCH   4   5
HETATM    5  C   LIG     1      13.461  30.659  15.704  1.00  0.00    -0.000 C 
BRANCH   5   6
HETATM    6  C   LIG     1      14.746  30.670  14.858  1.00  0.00    -0.005 C 
HETATM    7  C   LIG     1      14.956  29.372  14.079  1.00  0.00     0.005 C 
ENDBRANCH   5   6
ENDBRANCH   4   5
ENDBRANCH   3   4
ENDBRANCH   2   3
ENDBRANCH   1   2
BRANCH   1   8
HETATM    8  C   LIG     1      15.230  33.759  20.720  1.00  0.00     0.010 C 
BRANCH   8   9
HETATM    9  C   LIG     1      15.968  35.053  20.352  1.00  0.00     0.111 C 
BRANCH   9  10
HETATM   10  C   LIG     1      16.652  35.662  21.539  1.00  0.00     0.258 C 
HETATM   11  O   LIG     1      17.243  34.921  22.371  1.00  0.00    -0.265 OA
BRANCH  10  12
HETATM   12  O   LIG     1      16.624  37.049  21.714  1.00  0.00    -0.326 OA
HETATM   13  C   LIG     1      15.964  37.669  22.812  1.00  0.00     0.213 C 
ENDBRANCH  10  12
ENDBRANCH   9  10
ENDBRANCH   8   9
ENDBRANCH   1   8
TORSDOF 9
ENDMDL
MODEL 10
REMARK VINA RESULT:      -5.1      8.160      9.121
REMARK  9 active torsions:
REMARK  status: ('A' for Active; 'I' for Inactive)
REMARK    1  A    between atoms: C_2  and  C_3 
REMARK    2  A    between atoms: C_3  and  C_4 
REMARK    3  A    between atoms: C_4  and  C_5 
REMARK    4  A    between atoms: C_5  and  C_6 
REMARK    5  A    between atoms: C_6  and  C_7 
REMARK    6  A    between atoms: C_7  and  C_8 
REMARK    7  A    between atoms: C_8  and  C_9 
REMARK    8  A    between atoms: C_9  and  C_10 
REMARK    9  A    between atoms: C_10  and  O_11 
ROOT
HETATM    1  C   LIG     1      13.334  31.736  17.080  1.00  0.00     0.000 C 
ENDROOT
BRANCH   1   2
HETATM    2  C   LIG     1      14.644  32.270  17.681  1.00  0.00     0.000 C 
BRANCH   2   3
HETATM    3  C   LIG     1      14.758  31.993  19.190  1.00  0.00     0.000 C 
BRANCH   3   4
HETATM    4  C   LIG     1      15.652  33.013  19.919  1.00  0.00     0.000 C 
BRANCH   4   5
HETATM    5  C   LIG     1      14.963  33.796  21.055  1.00  0.00    -0.000 C 
BRANCH   5   6
HETATM    6  C   LIG     1      15.550  35.191  21.333  1.00  0.00    -0.005 C 
HETATM    7  C   LIG     1      16.796  35.146  22.217  1.00  0.00     0.005 C 
ENDBRANCH   5   6
ENDBRANCH   4   5
ENDBRANCH   3   4
ENDBRANCH   2   3
ENDBRANCH   1   2
BRANCH   1   8
HETATM    8  C   LIG     1      13.569  30.821  15.864  1.00  0.00     0.010 C 
BRANCH   8   9
HETATM    9  C   LIG     1      14.900  31.126  15.163  1.00  0.00     0.111 C 
BRANCH   9  10
HETATM   10  C   LIG     1      15.212  30.120  14.096  1.00  0.00     0.258 C 
HETATM   11  O   LIG     1      15.932  30.450  13.115  1.00  0.00    -0.265 OA
BRANCH  10  12
HETATM   12  O   LIG     1      14.694  28.825  14.196  1.00  0.00    -0.326 OA
HETATM   13  C   LIG     1      15.290  27.710  13.544  1.00  0.00     0.213 C 
ENDBRANCH  10  12
ENDBRANCH   9  10
ENDBRANCH   8   9
ENDBRANCH   1   8
TORSDOF 9
ENDMDL
MODEL 11
REMARK VINA RESULT:      -5.1      8.161      9.858
REMARK  9 active torsions:
REMARK  status: ('A' for Active; 'I' for Inactive)
REMARK    1  A    between atoms: C_2  and  C_3 
REMARK    2  A    between atoms: C_3  and  C_4 
REMARK    3  A    between atoms: C_4  and  C_5 
REMARK    4  A    between atoms: C_5  and  C_6 
REMARK    5  A    between atoms: C_6  and  C_7 
REMARK    6  A    between atoms: C_7  and  C_8 
REMARK    7  A    between atoms: C_8  and  C_9 
REMARK    8  A    between atoms: C_9  and  C_10 
REMARK    9  A    between atoms: C_10  and  O_11 
ROOT
HETATM    1  C   LIG     1      16.039  31.976  14.148  1.00  0.00     0.000 C 
ENDROOT
BRANCH   1   2
HETATM    2  C   LIG     1      15.638  30.569  14.620  1.00  0.00     0.000 C 
BRANCH   2   3
HETATM    3  C   LIG     1      14.258  30.140  14.092  1.00  0.00     0.000 C 
BRANCH   3   4
HETATM    4  C   LIG     1      13.145  30.281  15.147  1.00  0.00     0.000 C 
BRANCH   4   5
HETATM    5  C   LIG     1      13.628  30.628  16.569  1.00  0.00    -0.000 C 
BRANCH   5   6
HETATM    6  C   LIG     1      13.366  32.079  17.009  1.00  0.00    -0.005 C 
HETATM    7  C   LIG     1      14.641  32.816  17.417  1.00  0.00     0.005 C 
ENDBRANCH   5   6
ENDBRANCH   4   5
ENDBRANCH   3   4
ENDBRANCH   2   3
ENDBRANCH   1   2
BRANCH   1   8
HETATM    8  C   LIG     1      17.228  32.550  14.939  1.00  0.00     0.010 C 
BRANCH   8   9
HETATM    9  C   LIG     1      17.501  34.018  14.583  1.00  0.00     0.111 C 
BRANCH   9  10
HETATM   10  C   LIG     1      17.908  34.179  13.150  1.00  0.00     0.258 C 
HETATM   11  O   LIG     1      17.312  35.016  12.418  1.00  0.00    -0.265 OA
BRANCH  10  12
HETATM   12  O   LIG     1      18.943  33.393  12.634  1.00  0.00    -0.326 OA
HETATM   13  C   LIG     1      20.303  33.812  12.649  1.00  0.00     0.213 C 
ENDBRANCH  10  12
ENDBRANCH   9  10
ENDBRANCH   8   9
ENDBRANCH   1   8
TORSDOF 9
ENDMDL
MODEL 12
REMARK VINA RESULT:      -5.0      4.037      6.137
REMARK  9 active torsions:
REMARK  status: ('A' for Active; 'I' for Inactive)
REMARK    1  A    between atoms: C_2  and  C_3 
REMARK    2  A    between atoms: C_3  and  C_4 
REMARK    3  A    between atoms: C_4  and  C_5 
REMARK    4  A    between atoms: C_5  and  C_6 
REMARK    5  A    between atoms: C_6  and  C_7 
REMARK    6  A    between atoms: C_7  and  C_8 
REMARK    7  A    between atoms: C_8  and  C_9 
REMARK    8  A    between atoms: C_9  and  C_10 
REMARK    9  A    between atoms: C_10  and  O_11 
ROOT
HETATM    1  C   LIG     1      16.498  34.730  21.381  1.00  0.00     0.000 C 
ENDROOT
BRANCH   1   2
HETATM    2  C   LIG     1      15.200  34.360  20.645  1.00  0.00     0.000 C 
BRANCH   2   3
HETATM    3  C   LIG     1      15.023  32.840  20.486  1.00  0.00     0.000 C 
BRANCH   3   4
HETATM    4  C   LIG     1      15.497  32.324  19.114  1.00  0.00     0.000 C 
BRANCH   4   5
HETATM    5  C   LIG     1      14.373  31.899  18.148  1.00  0.00    -0.000 C 
BRANCH   5   6
HETATM    6  C   LIG     1      14.241  32.763  16.882  1.00  0.00    -0.005 C 
HETATM    7  C   LIG     1      15.069  34.046  16.949  1.00  0.00     0.005 C 
ENDBRANCH   5   6
ENDBRANCH   4   5
ENDBRANCH   3   4
ENDBRANCH   2   3
ENDBRANCH   1   2
BRANCH   1   8
HETATM    8  C   LIG     1      17.228  35.920  20.734  1.00  0.00     0.010 C 
BRANCH   8   9
HETATM    9  C   LIG     1      17.328  37.120  21.685  1.00  0.00     0.111 C 
BRANCH   9  10
HETATM   10  C   LIG     1      18.194  38.207  21.124  1.00  0.00     0.258 C 
HETATM   11  O   LIG     1      18.117  39.376  21.591  1.00  0.00    -0.265 OA
BRANCH  10  12
HETATM   12  O   LIG     1      19.078  37.915  20.080  1.00  0.00    -0.326 OA
HETATM   13  C   LIG     1      20.086  38.823  19.653  1.00  0.00     0.213 C 
ENDBRANCH  10  12
ENDBRANCH   9  10
ENDBRANCH   8   9
ENDBRANCH   1   8
TORSDOF 9
ENDMDL
MODEL 13
REMARK VINA RESULT:      -4.9     10.127     11.271
REMARK  9 active torsions:
REMARK  status: ('A' for Active; 'I' for Inactive)
REMARK    1  A    between atoms: C_2  and  C_3 
REMARK    2  A    between atoms: C_3  and  C_4 
REMARK    3  A    between atoms: C_4  and  C_5 
REMARK    4  A    between atoms: C_5  and  C_6 
REMARK    5  A    between atoms: C_6  and  C_7 
REMARK    6  A    between atoms: C_7  and  C_8 
REMARK    7  A    between atoms: C_8  and  C_9 
REMARK    8  A    between atoms: C_9  and  C_10 
REMARK    9  A    between atoms: C_10  and  O_11 
ROOT
HETATM    1  C   LIG     1      14.333  31.050  15.190  1.00  0.00     0.000 C 
ENDROOT
BRANCH   1   2
HETATM    2  C   LIG     1      15.759  31.565  14.935  1.00  0.00     0.000 C 
BRANCH   2   3
HETATM    3  C   LIG     1      16.067  32.857  15.712  1.00  0.00     0.000 C 
BRANCH   3   4
HETATM    4  C   LIG     1      14.950  33.240  16.701  1.00  0.00     0.000 C 
BRANCH   4   5
HETATM    5  C   LIG     1      15.234  32.898  18.178  1.00  0.00    -0.000 C 
BRANCH   5   6
HETATM    6  C   LIG     1      14.478  31.673  18.719  1.00  0.00    -0.005 C 
HETATM    7  C   LIG     1      14.935  31.263  20.119  1.00  0.00     0.005 C 
ENDBRANCH   5   6
ENDBRANCH   4   5
ENDBRANCH   3   4
ENDBRANCH   2   3
ENDBRANCH   1   2
BRANCH   1   8
HETATM    8  C   LIG     1      14.024  29.755  14.417  1.00  0.00     0.010 C 
BRANCH   8   9
HETATM    9  C   LIG     1      15.301  29.050  13.941  1.00  0.00     0.111 C 
BRANCH   9  10
HETATM   10  C   LIG     1      15.018  27.671  13.426  1.00  0.00     0.258 C 
HETATM   11  O   LIG     1      13.870  27.170  13.571  1.00  0.00    -0.265 OA
BRANCH  10  12
HETATM   12  O   LIG     1      16.035  26.949  12.793  1.00  0.00    -0.326 OA
HETATM   13  C   LIG     1      16.134  26.846  11.377  1.00  0.00     0.213 C 
ENDBRANCH  10  12
ENDBRANCH   9  10
ENDBRANCH   8   9
ENDBRANCH   1   8
TORSDOF 9
ENDMDL
MODEL 14
REMARK VINA RESULT:      -4.7      5.789      7.923
REMARK  9 active torsions:
REMARK  status: ('A' for Active; 'I' for Inactive)
REMARK    1  A    between atoms: C_2  and  C_3 
REMARK    2  A    between atoms: C_3  and  C_4 
REMARK    3  A    between atoms: C_4  and  C_5 
REMARK    4  A    between atoms: C_5  and  C_6 
REMARK    5  A    between atoms: C_6  and  C_7 
REMARK    6  A    between atoms: C_7  and  C_8 
REMARK    7  A    between atoms: C_8  and  C_9 
REMARK    8  A    between atoms: C_9  and  C_10 
REMARK    9  A    between atoms: C_10  and  O_11 
ROOT
HETATM    1  C   LIG     1      15.311  32.917  20.072  1.00  0.00     0.000 C 
ENDROOT
BRANCH   1   2
HETATM    2  C   LIG     1      15.340  32.371  18.635  1.00  0.00     0.000 C 
BRANCH   2   3
HETATM    3  C   LIG     1      14.796  33.379  17.609  1.00  0.00     0.000 C 
BRANCH   3   4
HETATM    4  C   LIG     1      15.171  33.018  16.159  1.00  0.00     0.000 C 
BRANCH   4   5
HETATM    5  C   LIG     1      15.479  31.527  15.913  1.00  0.00    -0.000 C 
BRANCH   5   6
HETATM    6  C   LIG     1      14.368  30.742  15.195  1.00  0.00    -0.005 C 
HETATM    7  C   LIG     1      13.053  30.725  15.974  1.00  0.00     0.005 C 
ENDBRANCH   5   6
ENDBRANCH   4   5
ENDBRANCH   3   4
ENDBRANCH   2   3
ENDBRANCH   1   2
BRANCH   1   8
HETATM    8  C   LIG     1      15.626  34.421  20.141  1.00  0.00     0.010 C 
BRANCH   8   9
HETATM    9  C   LIG     1      16.533  34.766  21.330  1.00  0.00     0.111 C 
BRANCH   9  10
HETATM   10  C   LIG     1      16.613  36.245  21.561  1.00  0.00     0.258 C 
HETATM   11  O   LIG     1      15.611  36.864  22.014  1.00  0.00    -0.265 OA
BRANCH  10  12
HETATM   12  O   LIG     1      17.798  36.926  21.267  1.00  0.00    -0.326 OA
HETATM   13  C   LIG     1      18.481  36.776  20.028  1.00  0.00     0.213 C 
ENDBRANCH  10  12
ENDBRANCH   9  10
ENDBRANCH   8   9
ENDBRANCH   1   8
TORSDOF 9
ENDMDL
MODEL 15
REMARK VINA RESULT:      -4.6      5.908      8.646
REMARK  9 active torsions:
REMARK  status: ('A' for Active; 'I' for Inactive)
REMARK    1  A    between atoms: C_2  and  C_3 
REMARK    2  A    between atoms: C_3  and  C_4 
REMARK    3  A    between atoms: C_4  and  C_5 
REMARK    4  A    between atoms: C_5  and  C_6 
REMARK    5  A    between atoms: C_6  and  C_7 
REMARK    6  A    between atoms: C_7  and  C_8 
REMARK    7  A    between atoms: C_8  and  C_9 
REMARK    8  A    between atoms: C_9  and  C_10 
REMARK    9  A    between atoms: C_10  and  O_11 
ROOT
HETATM    1  C   LIG     1      14.847  31.888  18.892  1.00  0.00     0.000 C 
ENDROOT
BRANCH   1   2
HETATM    2  C   LIG     1      14.889  32.637  17.550  1.00  0.00     0.000 C 
BRANCH   2   3
HETATM    3  C   LIG     1      14.375  31.780  16.380  1.00  0.00     0.000 C 
BRANCH   3   4
HETATM    4  C   LIG     1      15.363  31.727  15.199  1.00  0.00     0.000 C 
BRANCH   4   5
HETATM    5  C   LIG     1      16.752  32.335  15.477  1.00  0.00    -0.000 C 
BRANCH   5   6
HETATM    6  C   LIG     1      17.082  33.602  14.669  1.00  0.00    -0.005 C 
HETATM    7  C   LIG     1      18.346  33.455  13.823  1.00  0.00     0.005 C 
ENDBRANCH   5   6
ENDBRANCH   4   5
ENDBRANCH   3   4
ENDBRANCH   2   3
ENDBRANCH   1   2
BRANCH   1   8
HETATM    8  C   LIG     1      15.770  32.518  19.951  1.00  0.00     0.010 C 
BRANCH   8   9
HETATM    9  C   LIG     1      15.073  33.646  20.724  1.00  0.00     0.111 C 
BRANCH   9  10
HETATM   10  C   LIG     1      15.716  34.976  20.471  1.00  0.00     0.258 C 
HETATM   11  O   LIG     1      16.303  35.191  19.375  1.00  0.00    -0.265 OA
BRANCH  10  12
HETATM   12  O   LIG     1      15.662  35.967  21.456  1.00  0.00    -0.326 OA
HETATM   13  C   LIG     1      16.828  36.599  21.972  1.00  0.00     0.213 C 
ENDBRANCH  10  12
ENDBRANCH   9  10
ENDBRANCH   8   9
ENDBRANCH   1   8
TORSDOF 9
ENDMDL
MODEL 16
REMARK VINA RESULT:      -4.6     12.960     14.177
REMARK  9 active torsions:
REMARK  status: ('A' for Active; 'I' for Inactive)
REMARK    1  A    between atoms: C_2  and  C_3 
REMARK    2  A    between atoms: C_3  and  C_4 
REMARK    3  A    between atoms: C_4  and  C_5 
REMARK    4  A    between atoms: C_5  and  C_6 
REMARK    5  A    between atoms: C_6  and  C_7 
REMARK    6  A    between atoms: C_7  and  C_8 
REMARK    7  A    between atoms: C_8  and  C_9 
REMARK    8  A    between atoms: C_9  and  C_10 
REMARK    9  A    between atoms: C_10  and  O_11 
ROOT
HETATM    1  C   LIG     1      15.043  27.274  13.088  1.00  0.00     0.000 C 
ENDROOT
BRANCH   1   2
HETATM    2  C   LIG     1      15.377  28.620  13.751  1.00  0.00     0.000 C 
BRANCH   2   3
HETATM    3  C   LIG     1      14.120  29.435  14.100  1.00  0.00     0.000 C 
BRANCH   3   4
HETATM    4  C   LIG     1      14.366  30.465  15.218  1.00  0.00     0.000 C 
BRANCH   4   5
HETATM    5  C   LIG     1      13.147  30.767  16.113  1.00  0.00    -0.000 C 
BRANCH   5   6
HETATM    6  C   LIG     1      13.273  32.033  16.978  1.00  0.00    -0.005 C 
HETATM    7  C   LIG     1      14.422  31.956  17.983  1.00  0.00     0.005 C 
ENDBRANCH   5   6
ENDBRANCH   4   5
ENDBRANCH   3   4
ENDBRANCH   2   3
ENDBRANCH   1   2
BRANCH   1   8
HETATM    8  C   LIG     1      16.189  26.748  12.206  1.00  0.00     0.010 C 
BRANCH   8   9
HETATM    9  C   LIG     1      15.844  26.817  10.712  1.00  0.00     0.111 C 
BRANCH   9  10
HETATM   10  C   LIG     1      14.989  25.663  10.282  1.00  0.00     0.258 C 
HETATM   11  O   LIG     1      15.516  24.539  10.065  1.00  0.00    -0.265 OA
BRANCH  10  12
HETATM   12  O   LIG     1      13.612  25.847  10.122  1.00  0.00    -0.326 OA
HETATM   13  C   LIG     1      12.658  25.333  11.043  1.00  0.00     0.213 C 
ENDBRANCH  10  12
ENDBRANCH   9  10
ENDBRANCH   8   9
ENDBRANCH   1   8
TORSDOF 9
ENDMDL
MODEL 17
REMARK VINA RESULT:      -4.5     11.541     12.916
REMARK  9 active torsions:
REMARK  status: ('A' for Active; 'I' for Inactive)
REMARK    1  A    between atoms: C_2  and  C_3 
REMARK    2  A    between atoms: C_3  and  C_4 
REMARK    3  A    between atoms: C_4  and  C_5 
REMARK    4  A    between atoms: C_5  and  C_6 
REMARK    5  A    between atoms: C_6  and  C_7 
REMARK    6  A    between atoms: C_7  and  C_8 
REMARK    7  A    between atoms: C_8  and  C_9 
REMARK    8  A    between atoms: C_9  and  C_10 
REMARK    9  A    between atoms: C_10  and  O_11 
ROOT
HETATM    1  C   LIG     1      13.905  29.204  14.149  1.00  0.00     0.000 C 
ENDROOT
BRANCH   1   2
HETATM    2  C   LIG     1      15.223  29.951  14.410  1.00  0.00     0.000 C 
BRANCH   2   3
HETATM    3  C   LIG     1      15.460  31.097  13.411  1.00  0.00     0.000 C 
BRANCH   3   4
HETATM    4  C   LIG     1      16.159  32.312  14.050  1.00  0.00     0.000 C 
BRANCH   4   5
HETATM    5  C   LIG     1      16.306  32.253  15.584  1.00  0.00    -0.000 C 
BRANCH   5   6
HETATM    6  C   LIG     1      15.278  33.087  16.369  1.00  0.00    -0.005 C 
HETATM    7  C   LIG     1      14.318  32.229  17.191  1.00  0.00     0.005 C 
ENDBRANCH   5   6
ENDBRANCH   4   5
ENDBRANCH   3   4
ENDBRANCH   2   3
ENDBRANCH   1   2
BRANCH   1   8
HETATM    8  C   LIG     1      14.127  27.755  13.682  1.00  0.00     0.010 C 
BRANCH   8   9
HETATM    9  C   LIG     1      15.614  27.441  13.467  1.00  0.00     0.111 C 
BRANCH   9  10
HETATM   10  C   LIG     1      15.857  26.770  12.149  1.00  0.00     0.258 C 
HETATM   11  O   LIG     1      17.032  26.455  11.812  1.00  0.00    -0.265 OA
BRANCH  10  12
HETATM   12  O   LIG     1      14.778  26.503  11.301  1.00  0.00    -0.326 OA
HETATM   13  C   LIG     1      14.917  25.765  10.092  1.00  0.00     0.213 C 
ENDBRANCH  10  12
ENDBRANCH   9  10
ENDBRANCH   8   9
ENDBRANCH   1   8
TORSDOF 9
ENDMDL
MODEL 18
REMARK VINA RESULT:      -4.5      7.789      9.907
REMARK  9 active torsions:
REMARK  status: ('A' for Active; 'I' for Inactive)
REMARK    1  A    between atoms: C_2  and  C_3 
REMARK    2  A    between atoms: C_3  and  C_4 
REMARK    3  A    between atoms: C_4  and  C_5 
REMARK    4  A    between atoms: C_5  and  C_6 
REMARK    5  A    between atoms: C_6  and  C_7 
REMARK    6  A    between atoms: C_7  and  C_8 
REMARK    7  A    between atoms: C_8  and  C_9 
REMARK    8  A    between atoms: C_9  and  C_10 
REMARK    9  A    between atoms: C_10  and  O_11 
ROOT
HETATM    1  C   LIG     1      14.230  31.015  18.642  1.00  0.00     0.000 C 
ENDROOT
BRANCH   1   2
HETATM    2  C   LIG     1      13.903  31.987  17.498  1.00  0.00     0.000 C 
BRANCH   2   3
HETATM    3  C   LIG     1      13.544  31.260  16.190  1.00  0.00     0.000 C 
BRANCH   3   4
HETATM    4  C   LIG     1      14.728  31.178  15.208  1.00  0.00     0.000 C 
BRANCH   4   5
HETATM    5  C   LIG     1      14.586  30.121  14.095  1.00  0.00    -0.000 C 
BRANCH   5   6
HETATM    6  C   LIG     1      15.598  28.964  14.162  1.00  0.00    -0.005 C 
HETATM    7  C   LIG     1      15.049  27.659  13.588  1.00  0.00     0.005 C 
ENDBRANCH   5   6
ENDBRANCH   4   5
ENDBRANCH   3   4
ENDBRANCH   2   3
ENDBRANCH   1   2
BRANCH   1   8
HETATM    8  C   LIG     1      14.591  31.741  19.951  1.00  0.00     0.010 C 
BRANCH   8   9
HETATM    9  C   LIG     1      15.901  32.532  19.828  1.00  0.00     0.111 C 
BRANCH   9  10
HETATM   10  C   LIG     1      15.700  33.991  20.107  1.00  0.00     0.258 C 
HETATM   11  O   LIG     1      15.751  34.823  19.160  1.00  0.00    -0.265 OA
BRANCH  10  12
HETATM   12  O   LIG     1      15.463  34.417  21.417  1.00  0.00    -0.326 OA
HETATM   13  C   LIG     1      16.386  35.222  22.140  1.00  0.00     0.213 C 
ENDBRANCH  10  12
ENDBRANCH   9  10
ENDBRANCH   8   9
ENDBRANCH   1   8
TORSDOF 9
ENDMDL
MODEL 19
REMARK VINA RESULT:      -4.4      3.650      5.592
REMARK  9 active torsions:
REMARK  status: ('A' for Active; 'I' for Inactive)
REMARK    1  A    between atoms: C_2  and  C_3 
REMARK    2  A    between atoms: C_3  and  C_4 
REMARK    3  A    between atoms: C_4  and  C_5 
REMARK    4  A    between atoms: C_5  and  C_6 
REMARK    5  A    between atoms: C_6  and  C_7 
REMARK    6  A    between atoms: C_7  and  C_8 
REMARK    7  A    between atoms: C_8  and  C_9 
REMARK    8  A    between atoms: C_9  and  C_10 
REMARK    9  A    between atoms: C_10  and  O_11 
ROOT
HETATM    1  C   LIG     1      16.504  35.830  21.868  1.00  0.00     0.000 C 
ENDROOT
BRANCH   1   2
HETATM    2  C   LIG     1      16.392  34.322  21.592  1.00  0.00     0.000 C 
BRANCH   2   3
HETATM    3  C   LIG     1      15.602  34.015  20.308  1.00  0.00     0.000 C 
BRANCH   3   4
HETATM    4  C   LIG     1      15.644  32.524  19.923  1.00  0.00     0.000 C 
BRANCH   4   5
HETATM    5  C   LIG     1      14.737  32.124  18.743  1.00  0.00    -0.000 C 
BRANCH   5   6
HETATM    6  C   LIG     1      15.296  32.461  17.349  1.00  0.00    -0.005 C 
HETATM    7  C   LIG     1      14.827  33.821  16.833  1.00  0.00     0.005 C 
ENDBRANCH   5   6
ENDBRANCH   4   5
ENDBRANCH   3   4
ENDBRANCH   2   3
ENDBRANCH   1   2
BRANCH   1   8
HETATM    8  C   LIG     1      16.955  36.628  20.632  1.00  0.00     0.010 C 
BRANCH   8   9
HETATM    9  C   LIG     1      18.197  37.483  20.920  1.00  0.00     0.111 C 
BRANCH   9  10
HETATM   10  C   LIG     1      19.160  37.473  19.771  1.00  0.00     0.258 C 
HETATM   11  O   LIG     1      19.669  36.384  19.389  1.00  0.00    -0.265 OA
BRANCH  10  12
HETATM   12  O   LIG     1      19.490  38.674  19.137  1.00  0.00    -0.326 OA
HETATM   13  C   LIG     1      18.865  39.102  17.933  1.00  0.00     0.213 C 
ENDBRANCH  10  12
ENDBRANCH   9  10
ENDBRANCH   8   9
ENDBRANCH   1   8
TORSDOF 9
ENDMDL
MODEL 20
REMARK VINA RESULT:      -4.2     11.360     13.143
REMARK  9 active torsions:
REMARK  status: ('A' for Active; 'I' for Inactive)
REMARK    1  A    between atoms: C_2  and  C_3 
REMARK    2  A    between atoms: C_3  and  C_4 
REMARK    3  A    between atoms: C_4  and  C_5 
REMARK    4  A    between atoms: C_5  and  C_6 
REMARK    5  A    between atoms: C_6  and  C_7 
REMARK    6  A    between atoms: C_7  and  C_8 
REMARK    7  A    between atoms: C_8  and  C_9 
REMARK    8  A    between atoms: C_9  and  C_10 
REMARK    9  A    between atoms: C_10  and  O_11 
ROOT
HETATM    1  C   LIG     1      14.115  29.469  14.155  1.00  0.00     0.000 C 
ENDROOT
BRANCH   1   2
HETATM    2  C   LIG     1      15.428  30.234  13.924  1.00  0.00     0.000 C 
BRANCH   2   3
HETATM    3  C   LIG     1      15.429  31.621  14.588  1.00  0.00     0.000 C 
BRANCH   3   4
HETATM    4  C   LIG     1      16.766  31.953  15.277  1.00  0.00     0.000 C 
BRANCH   4   5
HETATM    5  C   LIG     1      17.462  33.235  14.777  1.00  0.00    -0.000 C 
BRANCH   5   6
HETATM    6  C   LIG     1      17.555  33.371  13.247  1.00  0.00    -0.005 C 
HETATM    7  C   LIG     1      18.919  33.873  12.776  1.00  0.00     0.005 C 
ENDBRANCH   5   6
ENDBRANCH   4   5
ENDBRANCH   3   4
ENDBRANCH   2   3
ENDBRANCH   1   2
BRANCH   1   8
HETATM    8  C   LIG     1      14.224  27.979  13.787  1.00  0.00     0.010 C 
BRANCH   8   9
HETATM    9  C   LIG     1      15.678  27.549  13.548  1.00  0.00     0.111 C 
BRANCH   9  10
HETATM   10  C   LIG     1      15.838  26.820  12.249  1.00  0.00     0.258 C 
HETATM   11  O   LIG     1      16.986  26.465  11.866  1.00  0.00    -0.265 OA
BRANCH  10  12
HETATM   12  O   LIG     1      14.711  26.544  11.469  1.00  0.00    -0.326 OA
HETATM   13  C   LIG     1      14.789  25.859  10.224  1.00  0.00     0.213 C 
ENDBRANCH  10  12
ENDBRANCH   9  10
ENDBRANCH   8   9
ENDBRANCH   1   8
TORSDOF 9
ENDMDL
