MODEL 1
REMARK VINA RESULT:      -4.6      0.000      0.000
REMARK  5 active torsions:
REMARK  status: ('A' for Active; 'I' for Inactive)
REMARK    1  A    between atoms: O_1  and  C_2 
REMARK    2  A    between atoms: C_2  and  C_3 
REMARK    3  A    between atoms: C_3  and  C_4 
REMARK    4  A    between atoms: C_4  and  C_5 
REMARK    5  A    between atoms: C_5  and  O_6 
ROOT
HETATM    1  C   LIG     1      16.663  35.627  22.337  1.00  0.00     0.120 C 
ENDROOT
BRANCH   1   2
HETATM    2  C   LIG     1      15.787  35.535  21.129  1.00  0.00     0.139 C 
HETATM    3  O   LIG     1      16.282  35.232  20.009  1.00  0.00    -0.650 OA
BRANCH   2   4
HETATM    4  O   LIG     1      14.416  35.743  21.250  1.00  0.00    -0.776 OA
HETATM    5  H   LIG     1      13.794  34.980  21.490  1.00  0.00     0.167 HD
ENDBRANCH   2   4
ENDBRANCH   1   2
BRANCH   1   6
HETATM    6  C   LIG     1      17.060  37.082  22.600  1.00  0.00     0.120 C 
BRANCH   6   7
HETATM    7  C   LIG     1      16.173  37.697  23.637  1.00  0.00     0.139 C 
HETATM    8  O   LIG     1      16.615  37.925  24.795  1.00  0.00    -0.650 OA
BRANCH   7   9
HETATM    9  O   LIG     1      14.860  38.030  23.318  1.00  0.00    -0.776 OA
HETATM   10  H   LIG     1      14.094  37.411  23.557  1.00  0.00     0.167 HD
ENDBRANCH   7   9
ENDBRANCH   6   7
ENDBRANCH   1   6
TORSDOF 5
ENDMDL
MODEL 2
REMARK VINA RESULT:      -4.6      0.212      3.649
REMARK  5 active torsions:
REMARK  status: ('A' for Active; 'I' for Inactive)
REMARK    1  A    between atoms: O_1  and  C_2 
REMARK    2  A    between atoms: C_2  and  C_3 
REMARK    3  A    between atoms: C_3  and  C_4 
REMARK    4  A    between atoms: C_4  and  C_5 
REMARK    5  A    between atoms: C_5  and  O_6 
ROOT
HETATM    1  C   LIG     1      17.094  36.978  22.424  1.00  0.00     0.120 C 
ENDROOT
BRANCH   1   2
HETATM    2  C   LIG     1      16.235  37.703  23.410  1.00  0.00     0.139 C 
HETATM    3  O   LIG     1      16.675  37.963  24.562  1.00  0.00    -0.650 OA
BRANCH   2   4
HETATM    4  O   LIG     1      14.963  38.130  23.038  1.00  0.00    -0.776 OA
HETATM    5  H   LIG     1      14.841  38.933  22.433  1.00  0.00     0.167 HD
ENDBRANCH   2   4
ENDBRANCH   1   2
BRANCH   1   6
HETATM    6  C   LIG     1      16.587  35.547  22.223  1.00  0.00     0.120 C 
BRANCH   6   7
HETATM    7  C   LIG     1      15.691  35.462  21.027  1.00  0.00     0.139 C 
HETATM    8  O   LIG     1      16.161  35.128  19.907  1.00  0.00    -0.650 OA
BRANCH   7   9
HETATM    9  O   LIG     1      14.334  35.741  21.156  1.00  0.00    -0.776 OA
HETATM   10  H   LIG     1      13.952  36.624  20.839  1.00  0.00     0.167 HD
ENDBRANCH   7   9
ENDBRANCH   6   7
ENDBRANCH   1   6
TORSDOF 5
ENDMDL
MODEL 3
REMARK VINA RESULT:      -4.4      2.785      3.438
REMARK  5 active torsions:
REMARK  status: ('A' for Active; 'I' for Inactive)
REMARK    1  A    between atoms: O_1  and  C_2 
REMARK    2  A    between atoms: C_2  and  C_3 
REMARK    3  A    between atoms: C_3  and  C_4 
REMARK    4  A    between atoms: C_4  and  C_5 
REMARK    5  A    between atoms: C_5  and  O_6 
ROOT
HETATM    1  C   LIG     1      18.216  38.959  21.835  1.00  0.00     0.120 C 
ENDROOT
BRANCH   1   2
HETATM    2  C   LIG     1      18.998  38.695  20.588  1.00  0.00     0.139 C 
HETATM    3  O   LIG     1      18.809  37.632  19.936  1.00  0.00    -0.650 OA
BRANCH   2   4
HETATM    4  O   LIG     1      19.904  39.644  20.124  1.00  0.00    -0.776 OA
HETATM    5  H   LIG     1      20.396  40.251  20.768  1.00  0.00     0.167 HD
ENDBRANCH   2   4
ENDBRANCH   1   2
BRANCH   1   6
HETATM    6  C   LIG     1      17.344  37.750  22.185  1.00  0.00     0.120 C 
BRANCH   6   7
HETATM    7  C   LIG     1      16.395  38.081  23.295  1.00  0.00     0.139 C 
HETATM    8  O   LIG     1      16.834  38.344  24.446  1.00  0.00    -0.650 OA
BRANCH   7   9
HETATM    9  O   LIG     1      15.025  38.111  23.051  1.00  0.00    -0.776 OA
HETATM   10  H   LIG     1      14.651  38.605  22.251  1.00  0.00     0.167 HD
ENDBRANCH   7   9
ENDBRANCH   6   7
ENDBRANCH   1   6
TORSDOF 5
ENDMDL
MODEL 4
REMARK VINA RESULT:      -4.2      2.580      4.199
REMARK  5 active torsions:
REMARK  status: ('A' for Active; 'I' for Inactive)
REMARK    1  A    between atoms: O_1  and  C_2 
REMARK    2  A    between atoms: C_2  and  C_3 
REMARK    3  A    between atoms: C_3  and  C_4 
REMARK    4  A    between atoms: C_4  and  C_5 
REMARK    5  A    between atoms: C_5  and  O_6 
ROOT
HETATM    1  C   LIG     1      17.581  38.586  22.845  1.00  0.00     0.120 C 
ENDROOT
BRANCH   1   2
HETATM    2  C   LIG     1      16.384  38.142  23.624  1.00  0.00     0.139 C 
HETATM    3  O   LIG     1      16.493  37.868  24.849  1.00  0.00    -0.650 OA
BRANCH   2   4
HETATM    4  O   LIG     1      15.140  38.073  23.004  1.00  0.00    -0.776 OA
HETATM    5  H   LIG     1      15.053  37.755  22.046  1.00  0.00     0.167 HD
ENDBRANCH   2   4
ENDBRANCH   1   2
BRANCH   1   6
HETATM    6  C   LIG     1      17.685  37.803  21.533  1.00  0.00     0.120 C 
BRANCH   6   7
HETATM    7  C   LIG     1      18.666  38.448  20.604  1.00  0.00     0.139 C 
HETATM    8  O   LIG     1      19.071  37.831  19.583  1.00  0.00    -0.650 OA
BRANCH   7   9
HETATM    9  O   LIG     1      19.122  39.737  20.862  1.00  0.00    -0.776 OA
HETATM   10  H   LIG     1      19.950  39.893  21.424  1.00  0.00     0.167 HD
ENDBRANCH   7   9
ENDBRANCH   6   7
ENDBRANCH   1   6
TORSDOF 5
ENDMDL
MODEL 5
REMARK VINA RESULT:      -4.1      2.211      4.076
REMARK  5 active torsions:
REMARK  status: ('A' for Active; 'I' for Inactive)
REMARK    1  A    between atoms: O_1  and  C_2 
REMARK    2  A    between atoms: C_2  and  C_3 
REMARK    3  A    between atoms: C_3  and  C_4 
REMARK    4  A    between atoms: C_4  and  C_5 
REMARK    5  A    between atoms: C_5  and  O_6 
ROOT
HETATM    1  C   LIG     1      17.370  37.902  25.446  1.00  0.00     0.120 C 
ENDROOT
BRANCH   1   2
HETATM    2  C   LIG     1      17.868  36.556  25.866  1.00  0.00     0.139 C 
HETATM    3  O   LIG     1      18.576  36.439  26.903  1.00  0.00    -0.650 OA
BRANCH   2   4
HETATM    4  O   LIG     1      17.512  35.427  25.135  1.00  0.00    -0.776 OA
HETATM    5  H   LIG     1      16.807  35.478  24.410  1.00  0.00     0.167 HD
ENDBRANCH   2   4
ENDBRANCH   1   2
BRANCH   1   6
HETATM    6  C   LIG     1      17.515  38.077  23.931  1.00  0.00     0.120 C 
BRANCH   6   7
HETATM    7  C   LIG     1      16.302  37.566  23.217  1.00  0.00     0.139 C 
HETATM    8  O   LIG     1      16.401  36.603  22.410  1.00  0.00    -0.650 OA
BRANCH   7   9
HETATM    9  O   LIG     1      15.061  38.148  23.455  1.00  0.00    -0.776 OA
HETATM   10  H   LIG     1      14.625  38.088  24.367  1.00  0.00     0.167 HD
ENDBRANCH   7   9
ENDBRANCH   6   7
ENDBRANCH   1   6
TORSDOF 5
ENDMDL
MODEL 6
REMARK VINA RESULT:      -4.1      6.176      7.897
REMARK  5 active torsions:
REMARK  status: ('A' for Active; 'I' for Inactive)
REMARK    1  A    between atoms: O_1  and  C_2 
REMARK    2  A    between atoms: C_2  and  C_3 
REMARK    3  A    between atoms: C_3  and  C_4 
REMARK    4  A    between atoms: C_4  and  C_5 
REMARK    5  A    between atoms: C_5  and  O_6 
ROOT
HETATM    1  C   LIG     1      14.464  31.356  15.917  1.00  0.00     0.120 C 
ENDROOT
BRANCH   1   2
HETATM    2  C   LIG     1      13.294  30.446  15.717  1.00  0.00     0.139 C 
HETATM    3  O   LIG     1      13.204  29.753  14.668  1.00  0.00    -0.650 OA
BRANCH   2   4
HETATM    4  O   LIG     1      12.325  30.334  16.710  1.00  0.00    -0.776 OA
HETATM    5  H   LIG     1      12.023  29.425  17.040  1.00  0.00     0.167 HD
ENDBRANCH   2   4
ENDBRANCH   1   2
BRANCH   1   6
HETATM    6  C   LIG     1      14.094  32.503  16.862  1.00  0.00     0.120 C 
BRANCH   6   7
HETATM    7  C   LIG     1      14.679  32.282  18.223  1.00  0.00     0.139 C 
HETATM    8  O   LIG     1      15.647  32.984  18.617  1.00  0.00    -0.650 OA
BRANCH   7   9
HETATM    9  O   LIG     1      14.142  31.308  19.059  1.00  0.00    -0.776 OA
HETATM   10  H   LIG     1      13.622  30.526  18.679  1.00  0.00     0.167 HD
ENDBRANCH   7   9
ENDBRANCH   6   7
ENDBRANCH   1   6
TORSDOF 5
ENDMDL
MODEL 7
REMARK VINA RESULT:      -4.0      7.607      9.525
REMARK  5 active torsions:
REMARK  status: ('A' for Active; 'I' for Inactive)
REMARK    1  A    between atoms: O_1  and  C_2 
REMARK    2  A    between atoms: C_2  and  C_3 
REMARK    3  A    between atoms: C_3  and  C_4 
REMARK    4  A    between atoms: C_4  and  C_5 
REMARK    5  A    between atoms: C_5  and  O_6 
ROOT
HETATM    1  C   LIG     1      14.157  30.226  14.793  1.00  0.00     0.120 C 
ENDROOT
BRANCH   1   2
HETATM    2  C   LIG     1      15.216  30.114  13.744  1.00  0.00     0.139 C 
HETATM    3  O   LIG     1      15.987  31.085  13.515  1.00  0.00    -0.650 OA
BRANCH   2   4
HETATM    4  O   LIG     1      15.379  28.919  13.048  1.00  0.00    -0.776 OA
HETATM    5  H   LIG     1      14.715  28.161  13.156  1.00  0.00     0.167 HD
ENDBRANCH   2   4
ENDBRANCH   1   2
BRANCH   1   6
HETATM    6  C   LIG     1      14.529  31.305  15.814  1.00  0.00     0.120 C 
BRANCH   6   7
HETATM    7  C   LIG     1      13.531  31.350  16.930  1.00  0.00     0.139 C 
HETATM    8  O   LIG     1      12.415  30.779  16.804  1.00  0.00    -0.650 OA
BRANCH   7   9
HETATM    9  O   LIG     1      13.843  32.014  18.112  1.00  0.00    -0.776 OA
HETATM   10  H   LIG     1      14.154  31.502  18.929  1.00  0.00     0.167 HD
ENDBRANCH   7   9
ENDBRANCH   6   7
ENDBRANCH   1   6
TORSDOF 5
ENDMDL
MODEL 8
REMARK VINA RESULT:      -4.0      7.544      9.829
REMARK  5 active torsions:
REMARK  status: ('A' for Active; 'I' for Inactive)
REMARK    1  A    between atoms: O_1  and  C_2 
REMARK    2  A    between atoms: C_2  and  C_3 
REMARK    3  A    between atoms: C_3  and  C_4 
REMARK    4  A    between atoms: C_4  and  C_5 
REMARK    5  A    between atoms: C_5  and  O_6 
ROOT
HETATM    1  C   LIG     1      14.591  31.498  15.995  1.00  0.00     0.120 C 
ENDROOT
BRANCH   1   2
HETATM    2  C   LIG     1      13.700  31.542  17.195  1.00  0.00     0.139 C 
HETATM    3  O   LIG     1      14.178  31.344  18.345  1.00  0.00    -0.650 OA
BRANCH   2   4
HETATM    4  O   LIG     1      12.350  31.845  17.046  1.00  0.00    -0.776 OA
HETATM    5  H   LIG     1      11.787  32.117  17.843  1.00  0.00     0.167 HD
ENDBRANCH   2   4
ENDBRANCH   1   2
BRANCH   1   6
HETATM    6  C   LIG     1      14.122  30.413  15.021  1.00  0.00     0.120 C 
BRANCH   6   7
HETATM    7  C   LIG     1      15.144  30.179  13.952  1.00  0.00     0.139 C 
HETATM    8  O   LIG     1      16.002  31.064  13.691  1.00  0.00    -0.650 OA
BRANCH   7   9
HETATM    9  O   LIG     1      15.153  28.975  13.254  1.00  0.00    -0.776 OA
HETATM   10  H   LIG     1      15.882  28.289  13.411  1.00  0.00     0.167 HD
ENDBRANCH   7   9
ENDBRANCH   6   7
ENDBRANCH   1   6
TORSDOF 5
ENDMDL
MODEL 9
REMARK VINA RESULT:      -3.9      1.797      2.600
REMARK  5 active torsions:
REMARK  status: ('A' for Active; 'I' for Inactive)
REMARK    1  A    between atoms: O_1  and  C_2 
REMARK    2  A    between atoms: C_2  and  C_3 
REMARK    3  A    between atoms: C_3  and  C_4 
REMARK    4  A    between atoms: C_4  and  C_5 
REMARK    5  A    between atoms: C_5  and  O_6 
ROOT
HETATM    1  C   LIG     1      17.006  36.517  22.619  1.00  0.00     0.120 C 
ENDROOT
BRANCH   1   2
HETATM    2  C   LIG     1      15.594  36.968  22.422  1.00  0.00     0.139 C 
HETATM    3  O   LIG     1      14.828  36.329  21.651  1.00  0.00    -0.650 OA
BRANCH   2   4
HETATM    4  O   LIG     1      15.113  38.069  23.124  1.00  0.00    -0.776 OA
HETATM    5  H   LIG     1      15.602  38.957  23.095  1.00  0.00     0.167 HD
ENDBRANCH   2   4
ENDBRANCH   1   2
BRANCH   1   6
HETATM    6  C   LIG     1      17.048  35.258  23.490  1.00  0.00     0.120 C 
BRANCH   6   7
HETATM    7  C   LIG     1      17.298  35.610  24.924  1.00  0.00     0.139 C 
HETATM    8  O   LIG     1      17.753  34.745  25.719  1.00  0.00    -0.650 OA
BRANCH   7   9
HETATM    9  O   LIG     1      17.039  36.900  25.377  1.00  0.00    -0.776 OA
HETATM   10  H   LIG     1      16.127  37.322  25.251  1.00  0.00     0.167 HD
ENDBRANCH   7   9
ENDBRANCH   6   7
ENDBRANCH   1   6
TORSDOF 5
ENDMDL
MODEL 10
REMARK VINA RESULT:      -3.9      6.205      8.818
REMARK  5 active torsions:
REMARK  status: ('A' for Active; 'I' for Inactive)
REMARK    1  A    between atoms: O_1  and  C_2 
REMARK    2  A    between atoms: C_2  and  C_3 
REMARK    3  A    between atoms: C_3  and  C_4 
REMARK    4  A    between atoms: C_4  and  C_5 
REMARK    5  A    between atoms: C_5  and  O_6 
ROOT
HETATM    1  C   LIG     1      15.162  32.376  16.055  1.00  0.00     0.120 C 
ENDROOT
BRANCH   1   2
HETATM    2  C   LIG     1      15.222  33.586  16.932  1.00  0.00     0.139 C 
HETATM    3  O   LIG     1      15.298  34.735  16.420  1.00  0.00    -0.650 OA
BRANCH   2   4
HETATM    4  O   LIG     1      15.148  33.444  18.314  1.00  0.00    -0.776 OA
HETATM    5  H   LIG     1      15.689  34.043  18.928  1.00  0.00     0.167 HD
ENDBRANCH   2   4
ENDBRANCH   1   2
BRANCH   1   6
HETATM    6  C   LIG     1      16.462  32.229  15.258  1.00  0.00     0.120 C 
BRANCH   6   7
HETATM    7  C   LIG     1      16.178  32.079  13.796  1.00  0.00     0.139 C 
HETATM    8  O   LIG     1      15.884  30.950  13.321  1.00  0.00    -0.650 OA
BRANCH   7   9
HETATM    9  O   LIG     1      16.225  33.193  12.963  1.00  0.00    -0.776 OA
HETATM   10  H   LIG     1      15.392  33.737  12.775  1.00  0.00     0.167 HD
ENDBRANCH   7   9
ENDBRANCH   6   7
ENDBRANCH   1   6
TORSDOF 5
ENDMDL
MODEL 11
REMARK VINA RESULT:      -3.9      3.985      4.555
REMARK  5 active torsions:
REMARK  status: ('A' for Active; 'I' for Inactive)
REMARK    1  A    between atoms: O_1  and  C_2 
REMARK    2  A    between atoms: C_2  and  C_3 
REMARK    3  A    between atoms: C_3  and  C_4 
REMARK    4  A    between atoms: C_4  and  C_5 
REMARK    5  A    between atoms: C_5  and  O_6 
ROOT
HETATM    1  C   LIG     1      18.643  36.783  19.229  1.00  0.00     0.120 C 
ENDROOT
BRANCH   1   2
HETATM    2  C   LIG     1      17.711  36.500  20.363  1.00  0.00     0.139 C 
HETATM    3  O   LIG     1      16.935  35.507  20.312  1.00  0.00    -0.650 OA
BRANCH   2   4
HETATM    4  O   LIG     1      17.731  37.309  21.495  1.00  0.00    -0.776 OA
HETATM    5  H   LIG     1      18.607  37.572  21.931  1.00  0.00     0.167 HD
ENDBRANCH   2   4
ENDBRANCH   1   2
BRANCH   1   6
HETATM    6  C   LIG     1      19.835  37.615  19.711  1.00  0.00     0.120 C 
BRANCH   6   7
HETATM    7  C   LIG     1      19.600  39.074  19.468  1.00  0.00     0.139 C 
HETATM    8  O   LIG     1      19.810  39.567  18.328  1.00  0.00    -0.650 OA
BRANCH   7   9
HETATM    9  O   LIG     1      19.135  39.883  20.500  1.00  0.00    -0.776 OA
HETATM   10  H   LIG     1      19.362  39.676  21.465  1.00  0.00     0.167 HD
ENDBRANCH   7   9
ENDBRANCH   6   7
ENDBRANCH   1   6
TORSDOF 5
ENDMDL
MODEL 12
REMARK VINA RESULT:      -3.9      1.469      2.034
REMARK  5 active torsions:
REMARK  status: ('A' for Active; 'I' for Inactive)
REMARK    1  A    between atoms: O_1  and  C_2 
REMARK    2  A    between atoms: C_2  and  C_3 
REMARK    3  A    between atoms: C_3  and  C_4 
REMARK    4  A    between atoms: C_4  and  C_5 
REMARK    5  A    between atoms: C_5  and  O_6 
ROOT
HETATM    1  C   LIG     1      17.483  37.414  21.686  1.00  0.00     0.120 C 
ENDROOT
BRANCH   1   2
HETATM    2  C   LIG     1      16.616  36.221  21.928  1.00  0.00     0.139 C 
HETATM    3  O   LIG     1      17.127  35.136  22.317  1.00  0.00    -0.650 OA
BRANCH   2   4
HETATM    4  O   LIG     1      15.237  36.321  21.765  1.00  0.00    -0.776 OA
HETATM    5  H   LIG     1      14.774  35.885  20.977  1.00  0.00     0.167 HD
ENDBRANCH   2   4
ENDBRANCH   1   2
BRANCH   1   6
HETATM    6  C   LIG     1      17.052  38.579  22.582  1.00  0.00     0.120 C 
BRANCH   6   7
HETATM    7  C   LIG     1      17.314  38.268  24.023  1.00  0.00     0.139 C 
HETATM    8  O   LIG     1      16.356  37.996  24.796  1.00  0.00    -0.650 OA
BRANCH   7   9
HETATM    9  O   LIG     1      18.619  38.265  24.507  1.00  0.00    -0.776 OA
HETATM   10  H   LIG     1      19.117  37.396  24.652  1.00  0.00     0.167 HD
ENDBRANCH   7   9
ENDBRANCH   6   7
ENDBRANCH   1   6
TORSDOF 5
ENDMDL
MODEL 13
REMARK VINA RESULT:      -3.9      7.033      8.931
REMARK  5 active torsions:
REMARK  status: ('A' for Active; 'I' for Inactive)
REMARK    1  A    between atoms: O_1  and  C_2 
REMARK    2  A    between atoms: C_2  and  C_3 
REMARK    3  A    between atoms: C_3  and  C_4 
REMARK    4  A    between atoms: C_4  and  C_5 
REMARK    5  A    between atoms: C_5  and  O_6 
ROOT
HETATM    1  C   LIG     1      16.277  32.461  15.147  1.00  0.00     0.120 C 
ENDROOT
BRANCH   1   2
HETATM    2  C   LIG     1      15.562  33.282  16.172  1.00  0.00     0.139 C 
HETATM    3  O   LIG     1      15.878  34.490  16.348  1.00  0.00    -0.650 OA
BRANCH   2   4
HETATM    4  O   LIG     1      14.516  32.723  16.901  1.00  0.00    -0.776 OA
HETATM    5  H   LIG     1      14.112  31.834  16.632  1.00  0.00     0.167 HD
ENDBRANCH   2   4
ENDBRANCH   1   2
BRANCH   1   6
HETATM    6  C   LIG     1      17.639  33.081  14.820  1.00  0.00     0.120 C 
BRANCH   6   7
HETATM    7  C   LIG     1      17.673  33.579  13.409  1.00  0.00     0.139 C 
HETATM    8  O   LIG     1      17.455  34.795  13.161  1.00  0.00    -0.650 OA
BRANCH   7   9
HETATM    9  O   LIG     1      17.959  32.699  12.370  1.00  0.00    -0.776 OA
HETATM   10  H   LIG     1      17.710  32.924  11.414  1.00  0.00     0.167 HD
ENDBRANCH   7   9
ENDBRANCH   6   7
ENDBRANCH   1   6
TORSDOF 5
ENDMDL
MODEL 14
REMARK VINA RESULT:      -3.9      2.407      3.048
REMARK  5 active torsions:
REMARK  status: ('A' for Active; 'I' for Inactive)
REMARK    1  A    between atoms: O_1  and  C_2 
REMARK    2  A    between atoms: C_2  and  C_3 
REMARK    3  A    between atoms: C_3  and  C_4 
REMARK    4  A    between atoms: C_4  and  C_5 
REMARK    5  A    between atoms: C_5  and  O_6 
ROOT
HETATM    1  C   LIG     1      16.886  36.932  22.878  1.00  0.00     0.120 C 
ENDROOT
BRANCH   1   2
HETATM    2  C   LIG     1      16.543  38.359  22.590  1.00  0.00     0.139 C 
HETATM    3  O   LIG     1      17.410  39.131  22.098  1.00  0.00    -0.650 OA
BRANCH   2   4
HETATM    4  O   LIG     1      15.252  38.822  22.825  1.00  0.00    -0.776 OA
HETATM    5  H   LIG     1      14.685  38.427  23.565  1.00  0.00     0.167 HD
ENDBRANCH   2   4
ENDBRANCH   1   2
BRANCH   1   6
HETATM    6  C   LIG     1      16.942  36.690  24.389  1.00  0.00     0.120 C 
BRANCH   6   7
HETATM    7  C   LIG     1      17.602  37.839  25.088  1.00  0.00     0.139 C 
HETATM    8  O   LIG     1      16.961  38.518  25.933  1.00  0.00    -0.650 OA
BRANCH   7   9
HETATM    9  O   LIG     1      18.930  38.148  24.813  1.00  0.00    -0.776 OA
HETATM   10  H   LIG     1      19.238  39.111  24.748  1.00  0.00     0.167 HD
ENDBRANCH   7   9
ENDBRANCH   6   7
ENDBRANCH   1   6
TORSDOF 5
ENDMDL
MODEL 15
REMARK VINA RESULT:      -3.9      1.922      4.132
REMARK  5 active torsions:
REMARK  status: ('A' for Active; 'I' for Inactive)
REMARK    1  A    between atoms: O_1  and  C_2 
REMARK    2  A    between atoms: C_2  and  C_3 
REMARK    3  A    between atoms: C_3  and  C_4 
REMARK    4  A    between atoms: C_4  and  C_5 
REMARK    5  A    between atoms: C_5  and  O_6 
ROOT
HETATM    1  C   LIG     1      17.344  38.166  23.112  1.00  0.00     0.120 C 
ENDROOT
BRANCH   1   2
HETATM    2  C   LIG     1      17.195  37.834  24.563  1.00  0.00     0.139 C 
HETATM    3  O   LIG     1      17.081  38.757  25.414  1.00  0.00    -0.650 OA
BRANCH   2   4
HETATM    4  O   LIG     1      17.137  36.504  24.967  1.00  0.00    -0.776 OA
HETATM    5  H   LIG     1      17.627  35.782  24.451  1.00  0.00     0.167 HD
ENDBRANCH   2   4
ENDBRANCH   1   2
BRANCH   1   6
HETATM    6  C   LIG     1      16.373  37.333  22.271  1.00  0.00     0.120 C 
BRANCH   6   7
HETATM    7  C   LIG     1      17.075  36.168  21.644  1.00  0.00     0.139 C 
HETATM    8  O   LIG     1      17.516  36.253  20.467  1.00  0.00    -0.650 OA
BRANCH   7   9
HETATM    9  O   LIG     1      17.250  34.993  22.368  1.00  0.00    -0.776 OA
HETATM   10  H   LIG     1      17.572  35.017  23.328  1.00  0.00     0.167 HD
ENDBRANCH   7   9
ENDBRANCH   6   7
ENDBRANCH   1   6
TORSDOF 5
ENDMDL
MODEL 16
REMARK VINA RESULT:      -3.9      1.698      3.847
REMARK  5 active torsions:
REMARK  status: ('A' for Active; 'I' for Inactive)
REMARK    1  A    between atoms: O_1  and  C_2 
REMARK    2  A    between atoms: C_2  and  C_3 
REMARK    3  A    between atoms: C_3  and  C_4 
REMARK    4  A    between atoms: C_4  and  C_5 
REMARK    5  A    between atoms: C_5  and  O_6 
ROOT
HETATM    1  C   LIG     1      17.111  36.543  23.369  1.00  0.00     0.120 C 
ENDROOT
BRANCH   1   2
HETATM    2  C   LIG     1      16.434  37.690  24.050  1.00  0.00     0.139 C 
HETATM    3  O   LIG     1      15.309  38.090  23.646  1.00  0.00    -0.650 OA
BRANCH   2   4
HETATM    4  O   LIG     1      17.030  38.288  25.156  1.00  0.00    -0.776 OA
HETATM    5  H   LIG     1      17.782  37.827  25.654  1.00  0.00     0.167 HD
ENDBRANCH   2   4
ENDBRANCH   1   2
BRANCH   1   6
HETATM    6  C   LIG     1      16.639  36.428  21.917  1.00  0.00     0.120 C 
BRANCH   6   7
HETATM    7  C   LIG     1      17.676  36.959  20.976  1.00  0.00     0.139 C 
HETATM    8  O   LIG     1      18.245  38.058  21.215  1.00  0.00    -0.650 OA
BRANCH   7   9
HETATM    9  O   LIG     1      18.021  36.231  19.842  1.00  0.00    -0.776 OA
HETATM   10  H   LIG     1      18.707  36.585  19.186  1.00  0.00     0.167 HD
ENDBRANCH   7   9
ENDBRANCH   6   7
ENDBRANCH   1   6
TORSDOF 5
ENDMDL
MODEL 17
REMARK VINA RESULT:      -3.8      5.914      7.180
REMARK  5 active torsions:
REMARK  status: ('A' for Active; 'I' for Inactive)
REMARK    1  A    between atoms: O_1  and  C_2 
REMARK    2  A    between atoms: C_2  and  C_3 
REMARK    3  A    between atoms: C_3  and  C_4 
REMARK    4  A    between atoms: C_4  and  C_5 
REMARK    5  A    between atoms: C_5  and  O_6 
ROOT
HETATM    1  C   LIG     1      15.775  32.091  15.959  1.00  0.00     0.120 C 
ENDROOT
BRANCH   1   2
HETATM    2  C   LIG     1      16.257  33.370  15.353  1.00  0.00     0.139 C 
HETATM    3  O   LIG     1      16.644  33.396  14.154  1.00  0.00    -0.650 OA
BRANCH   2   4
HETATM    4  O   LIG     1      16.239  34.542  16.104  1.00  0.00    -0.776 OA
HETATM    5  H   LIG     1      15.545  35.260  15.930  1.00  0.00     0.167 HD
ENDBRANCH   2   4
ENDBRANCH   1   2
BRANCH   1   6
HETATM    6  C   LIG     1      14.458  32.317  16.707  1.00  0.00     0.120 C 
BRANCH   6   7
HETATM    7  C   LIG     1      14.678  32.310  18.188  1.00  0.00     0.139 C 
HETATM    8  O   LIG     1      14.305  31.325  18.879  1.00  0.00    -0.650 OA
BRANCH   7   9
HETATM    9  O   LIG     1      15.308  33.389  18.800  1.00  0.00    -0.776 OA
HETATM   10  H   LIG     1      14.771  34.099  19.283  1.00  0.00     0.167 HD
ENDBRANCH   7   9
ENDBRANCH   6   7
ENDBRANCH   1   6
TORSDOF 5
ENDMDL
MODEL 18
REMARK VINA RESULT:      -3.7      8.409      9.394
REMARK  5 active torsions:
REMARK  status: ('A' for Active; 'I' for Inactive)
REMARK    1  A    between atoms: O_1  and  C_2 
REMARK    2  A    between atoms: C_2  and  C_3 
REMARK    3  A    between atoms: C_3  and  C_4 
REMARK    4  A    between atoms: C_4  and  C_5 
REMARK    5  A    between atoms: C_5  and  O_6 
ROOT
HETATM    1  C   LIG     1      14.131  30.630  14.932  1.00  0.00     0.120 C 
ENDROOT
BRANCH   1   2
HETATM    2  C   LIG     1      13.580  30.816  16.309  1.00  0.00     0.139 C 
HETATM    3  O   LIG     1      14.216  31.496  17.159  1.00  0.00    -0.650 OA
BRANCH   2   4
HETATM    4  O   LIG     1      12.342  30.272  16.639  1.00  0.00    -0.776 OA
HETATM    5  H   LIG     1      12.088  30.108  17.606  1.00  0.00     0.167 HD
ENDBRANCH   2   4
ENDBRANCH   1   2
BRANCH   1   6
HETATM    6  C   LIG     1      15.653  30.800  14.938  1.00  0.00     0.120 C 
BRANCH   6   7
HETATM    7  C   LIG     1      16.050  32.073  14.256  1.00  0.00     0.139 C 
HETATM    8  O   LIG     1      15.971  33.171  14.870  1.00  0.00    -0.650 OA
BRANCH   7   9
HETATM    9  O   LIG     1      16.520  32.041  12.947  1.00  0.00    -0.776 OA
HETATM   10  H   LIG     1      17.246  31.392  12.671  1.00  0.00     0.167 HD
ENDBRANCH   7   9
ENDBRANCH   6   7
ENDBRANCH   1   6
TORSDOF 5
ENDMDL
MODEL 19
REMARK VINA RESULT:      -3.7      6.762      8.512
REMARK  5 active torsions:
REMARK  status: ('A' for Active; 'I' for Inactive)
REMARK    1  A    between atoms: O_1  and  C_2 
REMARK    2  A    between atoms: C_2  and  C_3 
REMARK    3  A    between atoms: C_3  and  C_4 
REMARK    4  A    between atoms: C_4  and  C_5 
REMARK    5  A    between atoms: C_5  and  O_6 
ROOT
HETATM    1  C   LIG     1      15.451  32.314  16.099  1.00  0.00     0.120 C 
ENDROOT
BRANCH   1   2
HETATM    2  C   LIG     1      15.671  33.792  16.153  1.00  0.00     0.139 C 
HETATM    3  O   LIG     1      14.847  34.532  16.755  1.00  0.00    -0.650 OA
BRANCH   2   4
HETATM    4  O   LIG     1      16.810  34.345  15.576  1.00  0.00    -0.776 OA
HETATM    5  H   LIG     1      17.615  33.769  15.360  1.00  0.00     0.167 HD
ENDBRANCH   2   4
ENDBRANCH   1   2
BRANCH   1   6
HETATM    6  C   LIG     1      14.176  31.934  16.858  1.00  0.00     0.120 C 
BRANCH   6   7
HETATM    7  C   LIG     1      13.448  30.829  16.158  1.00  0.00     0.139 C 
HETATM    8  O   LIG     1      13.882  30.378  15.064  1.00  0.00    -0.650 OA
BRANCH   7   9
HETATM    9  O   LIG     1      12.297  30.290  16.724  1.00  0.00    -0.776 OA
HETATM   10  H   LIG     1      11.379  30.571  16.402  1.00  0.00     0.167 HD
ENDBRANCH   7   9
ENDBRANCH   6   7
ENDBRANCH   1   6
TORSDOF 5
ENDMDL
MODEL 20
REMARK VINA RESULT:      -3.7      7.912      9.284
REMARK  5 active torsions:
REMARK  status: ('A' for Active; 'I' for Inactive)
REMARK    1  A    between atoms: O_1  and  C_2 
REMARK    2  A    between atoms: C_2  and  C_3 
REMARK    3  A    between atoms: C_3  and  C_4 
REMARK    4  A    between atoms: C_4  and  C_5 
REMARK    5  A    between atoms: C_5  and  O_6 
ROOT
HETATM    1  C   LIG     1      14.715  31.149  15.394  1.00  0.00     0.120 C 
ENDROOT
BRANCH   1   2
HETATM    2  C   LIG     1      14.032  29.997  14.730  1.00  0.00     0.139 C 
HETATM    3  O   LIG     1      14.685  29.221  13.981  1.00  0.00    -0.650 OA
BRANCH   2   4
HETATM    4  O   LIG     1      12.683  29.758  14.973  1.00  0.00    -0.776 OA
HETATM    5  H   LIG     1      12.143  29.157  14.361  1.00  0.00     0.167 HD
ENDBRANCH   2   4
ENDBRANCH   1   2
BRANCH   1   6
HETATM    6  C   LIG     1      15.785  31.741  14.472  1.00  0.00     0.120 C 
BRANCH   6   7
HETATM    7  C   LIG     1      16.670  32.689  15.220  1.00  0.00     0.139 C 
HETATM    8  O   LIG     1      17.913  32.489  15.270  1.00  0.00    -0.650 OA
BRANCH   7   9
HETATM    9  O   LIG     1      16.119  33.800  15.851  1.00  0.00    -0.776 OA
HETATM   10  H   LIG     1      15.999  33.821  16.857  1.00  0.00     0.167 HD
ENDBRANCH   7   9
ENDBRANCH   6   7
ENDBRANCH   1   6
TORSDOF 5
ENDMDL
