MODEL 1
REMARK VINA RESULT:      -4.5      0.000      0.000
REMARK  3 active torsions:
REMARK  status: ('A' for Active; 'I' for Inactive)
REMARK    1  A    between atoms: C_2  and  C_3 
REMARK    2  A    between atoms: C_3  and  C_4 
REMARK    3  A    between atoms: C_4  and  C_5 
ROOT
HETATM    1  C   LIG     1      17.274  38.016  25.325  1.00  0.00     0.011 C 
ENDROOT
BRANCH   1   2
HETATM    2  C   LIG     1      16.724  37.623  23.952  1.00  0.00     0.085 C 
HETATM    3 BR   LIG     1      17.410  38.775  22.549  1.00  0.00    -0.097 Br
ENDBRANCH   1   2
BRANCH   1   4
HETATM    4  C   LIG     1      18.553  37.237  25.675  1.00  0.00     0.000 C 
BRANCH   4   5
HETATM    5  C   LIG     1      18.311  36.162  26.747  1.00  0.00    -0.005 C 
HETATM    6  C   LIG     1      17.921  34.809  26.153  1.00  0.00     0.005 C 
ENDBRANCH   4   5
ENDBRANCH   1   4
TORSDOF 3
ENDMDL
MODEL 2
REMARK VINA RESULT:      -4.1      2.369      3.550
REMARK  3 active torsions:
REMARK  status: ('A' for Active; 'I' for Inactive)
REMARK    1  A    between atoms: C_2  and  C_3 
REMARK    2  A    between atoms: C_3  and  C_4 
REMARK    3  A    between atoms: C_4  and  C_5 
ROOT
HETATM    1  C   LIG     1      17.322  37.778  25.376  1.00  0.00     0.011 C 
ENDROOT
BRANCH   1   2
HETATM    2  C   LIG     1      18.383  36.872  26.008  1.00  0.00     0.085 C 
HETATM    3 BR   LIG     1      17.796  35.024  26.078  1.00  0.00    -0.097 Br
ENDBRANCH   1   2
BRANCH   1   4
HETATM    4  C   LIG     1      17.706  38.202  23.949  1.00  0.00     0.000 C 
BRANCH   4   5
HETATM    5  C   LIG     1      16.672  37.754  22.904  1.00  0.00    -0.005 C 
HETATM    6  C   LIG     1      16.836  36.290  22.497  1.00  0.00     0.005 C 
ENDBRANCH   4   5
ENDBRANCH   1   4
TORSDOF 3
ENDMDL
MODEL 3
REMARK VINA RESULT:      -4.1      2.755      4.362
REMARK  3 active torsions:
REMARK  status: ('A' for Active; 'I' for Inactive)
REMARK    1  A    between atoms: C_2  and  C_3 
REMARK    2  A    between atoms: C_3  and  C_4 
REMARK    3  A    between atoms: C_4  and  C_5 
ROOT
HETATM    1  C   LIG     1      16.986  37.525  23.691  1.00  0.00     0.011 C 
ENDROOT
BRANCH   1   2
HETATM    2  C   LIG     1      17.309  38.047  25.093  1.00  0.00     0.085 C 
HETATM    3 BR   LIG     1      18.309  36.746  26.129  1.00  0.00    -0.097 Br
ENDBRANCH   1   2
BRANCH   1   4
HETATM    4  C   LIG     1      17.059  38.638  22.633  1.00  0.00     0.000 C 
BRANCH   4   5
HETATM    5  C   LIG     1      18.505  39.003  22.262  1.00  0.00    -0.005 C 
HETATM    6  C   LIG     1      18.671  39.335  20.779  1.00  0.00     0.005 C 
ENDBRANCH   4   5
ENDBRANCH   1   4
TORSDOF 3
ENDMDL
MODEL 4
REMARK VINA RESULT:      -4.0      2.579      3.491
REMARK  3 active torsions:
REMARK  status: ('A' for Active; 'I' for Inactive)
REMARK    1  A    between atoms: C_2  and  C_3 
REMARK    2  A    between atoms: C_3  and  C_4 
REMARK    3  A    between atoms: C_4  and  C_5 
ROOT
HETATM    1  C   LIG     1      17.653  38.196  23.865  1.00  0.00     0.011 C 
ENDROOT
BRANCH   1   2
HETATM    2  C   LIG     1      17.303  38.031  25.347  1.00  0.00     0.085 C 
HETATM    3 BR   LIG     1      18.311  36.588  26.163  1.00  0.00    -0.097 Br
ENDBRANCH   1   2
BRANCH   1   4
HETATM    4  C   LIG     1      16.518  37.708  22.950  1.00  0.00     0.000 C 
BRANCH   4   5
HETATM    5  C   LIG     1      16.968  36.589  21.999  1.00  0.00    -0.005 C 
HETATM    6  C   LIG     1      16.929  35.206  22.650  1.00  0.00     0.005 C 
ENDBRANCH   4   5
ENDBRANCH   1   4
TORSDOF 3
ENDMDL
MODEL 5
REMARK VINA RESULT:      -4.0      1.814      2.496
REMARK  3 active torsions:
REMARK  status: ('A' for Active; 'I' for Inactive)
REMARK    1  A    between atoms: C_2  and  C_3 
REMARK    2  A    between atoms: C_3  and  C_4 
REMARK    3  A    between atoms: C_4  and  C_5 
ROOT
HETATM    1  C   LIG     1      17.311  38.080  22.973  1.00  0.00     0.011 C 
ENDROOT
BRANCH   1   2
HETATM    2  C   LIG     1      17.183  37.179  21.742  1.00  0.00     0.085 C 
HETATM    3 BR   LIG     1      16.866  35.330  22.239  1.00  0.00    -0.097 Br
ENDBRANCH   1   2
BRANCH   1   4
HETATM    4  C   LIG     1      16.765  37.401  24.240  1.00  0.00     0.000 C 
BRANCH   4   5
HETATM    5  C   LIG     1      17.506  37.845  25.511  1.00  0.00    -0.005 C 
HETATM    6  C   LIG     1      18.401  36.750  26.089  1.00  0.00     0.005 C 
ENDBRANCH   4   5
ENDBRANCH   1   4
TORSDOF 3
ENDMDL
MODEL 6
REMARK VINA RESULT:      -3.8      3.268      4.755
REMARK  3 active torsions:
REMARK  status: ('A' for Active; 'I' for Inactive)
REMARK    1  A    between atoms: C_2  and  C_3 
REMARK    2  A    between atoms: C_3  and  C_4 
REMARK    3  A    between atoms: C_4  and  C_5 
ROOT
HETATM    1  C   LIG     1      17.029  38.577  22.316  1.00  0.00     0.011 C 
ENDROOT
BRANCH   1   2
HETATM    2  C   LIG     1      16.980  37.343  23.222  1.00  0.00     0.085 C 
HETATM    3 BR   LIG     1      16.801  35.708  22.192  1.00  0.00    -0.097 Br
ENDBRANCH   1   2
BRANCH   1   4
HETATM    4  C   LIG     1      18.472  38.982  21.976  1.00  0.00     0.000 C 
BRANCH   4   5
HETATM    5  C   LIG     1      18.704  39.117  20.463  1.00  0.00    -0.005 C 
HETATM    6  C   LIG     1      19.040  37.784  19.793  1.00  0.00     0.005 C 
ENDBRANCH   4   5
ENDBRANCH   1   4
TORSDOF 3
ENDMDL
MODEL 7
REMARK VINA RESULT:      -3.8      1.851      2.376
REMARK  3 active torsions:
REMARK  status: ('A' for Active; 'I' for Inactive)
REMARK    1  A    between atoms: C_2  and  C_3 
REMARK    2  A    between atoms: C_3  and  C_4 
REMARK    3  A    between atoms: C_4  and  C_5 
ROOT
HETATM    1  C   LIG     1      16.452  36.511  22.584  1.00  0.00     0.011 C 
ENDROOT
BRANCH   1   2
HETATM    2  C   LIG     1      17.363  36.857  21.402  1.00  0.00     0.085 C 
HETATM    3 BR   LIG     1      18.082  38.653  21.557  1.00  0.00    -0.097 Br
ENDBRANCH   1   2
BRANCH   1   4
HETATM    4  C   LIG     1      17.082  35.450  23.501  1.00  0.00     0.000 C 
BRANCH   4   5
HETATM    5  C   LIG     1      17.411  36.001  24.898  1.00  0.00    -0.005 C 
HETATM    6  C   LIG     1      17.673  34.899  25.923  1.00  0.00     0.005 C 
ENDBRANCH   4   5
ENDBRANCH   1   4
TORSDOF 3
ENDMDL
MODEL 8
REMARK VINA RESULT:      -3.7      3.886      5.383
REMARK  3 active torsions:
REMARK  status: ('A' for Active; 'I' for Inactive)
REMARK    1  A    between atoms: C_2  and  C_3 
REMARK    2  A    between atoms: C_3  and  C_4 
REMARK    3  A    between atoms: C_4  and  C_5 
ROOT
HETATM    1  C   LIG     1      17.542  36.389  20.925  1.00  0.00     0.011 C 
ENDROOT
BRANCH   1   2
HETATM    2  C   LIG     1      16.853  36.448  22.292  1.00  0.00     0.085 C 
HETATM    3 BR   LIG     1      16.903  38.237  23.041  1.00  0.00    -0.097 Br
ENDBRANCH   1   2
BRANCH   1   4
HETATM    4  C   LIG     1      18.244  37.713  20.580  1.00  0.00     0.000 C 
BRANCH   4   5
HETATM    5  C   LIG     1      19.342  37.537  19.519  1.00  0.00    -0.005 C 
HETATM    6  C   LIG     1      20.331  38.702  19.489  1.00  0.00     0.005 C 
ENDBRANCH   4   5
ENDBRANCH   1   4
TORSDOF 3
ENDMDL
MODEL 9
REMARK VINA RESULT:      -3.7      4.524      5.121
REMARK  3 active torsions:
REMARK  status: ('A' for Active; 'I' for Inactive)
REMARK    1  A    between atoms: C_2  and  C_3 
REMARK    2  A    between atoms: C_3  and  C_4 
REMARK    3  A    between atoms: C_4  and  C_5 
ROOT
HETATM    1  C   LIG     1      18.584  36.726  19.846  1.00  0.00     0.011 C 
ENDROOT
BRANCH   1   2
HETATM    2  C   LIG     1      18.992  38.197  19.728  1.00  0.00     0.085 C 
HETATM    3 BR   LIG     1      18.551  39.192  21.335  1.00  0.00    -0.097 Br
ENDBRANCH   1   2
BRANCH   1   4
HETATM    4  C   LIG     1      17.558  36.504  20.968  1.00  0.00     0.000 C 
BRANCH   4   5
HETATM    5  C   LIG     1      16.497  35.456  20.596  1.00  0.00    -0.005 C 
HETATM    6  C   LIG     1      15.149  35.711  21.270  1.00  0.00     0.005 C 
ENDBRANCH   4   5
ENDBRANCH   1   4
TORSDOF 3
ENDMDL
MODEL 10
REMARK VINA RESULT:      -3.7      3.435      4.011
REMARK  3 active torsions:
REMARK  status: ('A' for Active; 'I' for Inactive)
REMARK    1  A    between atoms: C_2  and  C_3 
REMARK    2  A    between atoms: C_3  and  C_4 
REMARK    3  A    between atoms: C_4  and  C_5 
ROOT
HETATM    1  C   LIG     1      17.037  38.422  22.190  1.00  0.00     0.011 C 
ENDROOT
BRANCH   1   2
HETATM    2  C   LIG     1      18.461  38.987  22.187  1.00  0.00     0.085 C 
HETATM    3 BR   LIG     1      19.135  39.217  20.382  1.00  0.00    -0.097 Br
ENDBRANCH   1   2
BRANCH   1   4
HETATM    4  C   LIG     1      17.017  36.919  22.515  1.00  0.00     0.000 C 
BRANCH   4   5
HETATM    5  C   LIG     1      17.215  36.045  21.267  1.00  0.00    -0.005 C 
HETATM    6  C   LIG     1      16.276  34.840  21.231  1.00  0.00     0.005 C 
ENDBRANCH   4   5
ENDBRANCH   1   4
TORSDOF 3
ENDMDL
MODEL 11
REMARK VINA RESULT:      -3.6     10.368     11.415
REMARK  3 active torsions:
REMARK  status: ('A' for Active; 'I' for Inactive)
REMARK    1  A    between atoms: C_2  and  C_3 
REMARK    2  A    between atoms: C_3  and  C_4 
REMARK    3  A    between atoms: C_4  and  C_5 
ROOT
HETATM    1  C   LIG     1      13.191  32.000  16.922  1.00  0.00     0.011 C 
ENDROOT
BRANCH   1   2
HETATM    2  C   LIG     1      14.548  32.568  17.347  1.00  0.00     0.085 C 
HETATM    3 BR   LIG     1      15.003  32.050  19.160  1.00  0.00    -0.097 Br
ENDBRANCH   1   2
BRANCH   1   4
HETATM    4  C   LIG     1      13.342  30.724  16.078  1.00  0.00     0.000 C 
BRANCH   4   5
HETATM    5  C   LIG     1      14.553  30.784  15.134  1.00  0.00    -0.005 C 
HETATM    6  C   LIG     1      14.585  29.626  14.137  1.00  0.00     0.005 C 
ENDBRANCH   4   5
ENDBRANCH   1   4
TORSDOF 3
ENDMDL
MODEL 12
REMARK VINA RESULT:      -3.5      3.961      4.930
REMARK  3 active torsions:
REMARK  status: ('A' for Active; 'I' for Inactive)
REMARK    1  A    between atoms: C_2  and  C_3 
REMARK    2  A    between atoms: C_3  and  C_4 
REMARK    3  A    between atoms: C_4  and  C_5 
ROOT
HETATM    1  C   LIG     1      17.101  36.773  22.224  1.00  0.00     0.011 C 
ENDROOT
BRANCH   1   2
HETATM    2  C   LIG     1      16.967  36.045  20.884  1.00  0.00     0.085 C 
HETATM    3 BR   LIG     1      15.715  34.566  20.996  1.00  0.00    -0.097 Br
ENDBRANCH   1   2
BRANCH   1   4
HETATM    4  C   LIG     1      17.088  38.300  22.052  1.00  0.00     0.000 C 
BRANCH   4   5
HETATM    5  C   LIG     1      18.502  38.896  21.972  1.00  0.00    -0.005 C 
HETATM    6  C   LIG     1      18.864  39.378  20.568  1.00  0.00     0.005 C 
ENDBRANCH   4   5
ENDBRANCH   1   4
TORSDOF 3
ENDMDL
MODEL 13
REMARK VINA RESULT:      -3.5     11.219     12.254
REMARK  3 active torsions:
REMARK  status: ('A' for Active; 'I' for Inactive)
REMARK    1  A    between atoms: C_2  and  C_3 
REMARK    2  A    between atoms: C_3  and  C_4 
REMARK    3  A    between atoms: C_4  and  C_5 
ROOT
HETATM    1  C   LIG     1      14.917  29.960  14.515  1.00  0.00     0.011 C 
ENDROOT
BRANCH   1   2
HETATM    2  C   LIG     1      15.477  31.089  13.646  1.00  0.00     0.085 C 
HETATM    3 BR   LIG     1      16.425  32.407  14.710  1.00  0.00    -0.097 Br
ENDBRANCH   1   2
BRANCH   1   4
HETATM    4  C   LIG     1      13.516  30.292  15.055  1.00  0.00     0.000 C 
BRANCH   4   5
HETATM    5  C   LIG     1      13.528  30.624  16.555  1.00  0.00    -0.005 C 
HETATM    6  C   LIG     1      13.195  32.087  16.842  1.00  0.00     0.005 C 
ENDBRANCH   4   5
ENDBRANCH   1   4
TORSDOF 3
ENDMDL
MODEL 14
REMARK VINA RESULT:      -3.4     11.054     12.028
REMARK  3 active torsions:
REMARK  status: ('A' for Active; 'I' for Inactive)
REMARK    1  A    between atoms: C_2  and  C_3 
REMARK    2  A    between atoms: C_3  and  C_4 
REMARK    3  A    between atoms: C_4  and  C_5 
ROOT
HETATM    1  C   LIG     1      13.639  30.874  16.467  1.00  0.00     0.011 C 
ENDROOT
BRANCH   1   2
HETATM    2  C   LIG     1      13.734  32.236  17.160  1.00  0.00     0.085 C 
HETATM    3 BR   LIG     1      14.984  32.198  18.643  1.00  0.00    -0.097 Br
ENDBRANCH   1   2
BRANCH   1   4
HETATM    4  C   LIG     1      14.526  30.805  15.213  1.00  0.00     0.000 C 
BRANCH   4   5
HETATM    5  C   LIG     1      14.115  29.667  14.265  1.00  0.00    -0.005 C 
HETATM    6  C   LIG     1      15.288  28.767  13.876  1.00  0.00     0.005 C 
ENDBRANCH   4   5
ENDBRANCH   1   4
TORSDOF 3
ENDMDL
MODEL 15
REMARK VINA RESULT:      -3.4      4.256      5.217
REMARK  3 active torsions:
REMARK  status: ('A' for Active; 'I' for Inactive)
REMARK    1  A    between atoms: C_2  and  C_3 
REMARK    2  A    between atoms: C_3  and  C_4 
REMARK    3  A    between atoms: C_4  and  C_5 
ROOT
HETATM    1  C   LIG     1      16.240  34.967  20.707  1.00  0.00     0.011 C 
ENDROOT
BRANCH   1   2
HETATM    2  C   LIG     1      15.153  33.914  20.935  1.00  0.00     0.085 C 
HETATM    3 BR   LIG     1      15.363  32.399  19.740  1.00  0.00    -0.097 Br
ENDBRANCH   1   2
BRANCH   1   4
HETATM    4  C   LIG     1      16.972  35.327  22.010  1.00  0.00     0.000 C 
BRANCH   4   5
HETATM    5  C   LIG     1      16.946  36.836  22.302  1.00  0.00    -0.005 C 
HETATM    6  C   LIG     1      16.994  37.151  23.797  1.00  0.00     0.005 C 
ENDBRANCH   4   5
ENDBRANCH   1   4
TORSDOF 3
ENDMDL
MODEL 16
REMARK VINA RESULT:      -3.4     10.439     11.388
REMARK  3 active torsions:
REMARK  status: ('A' for Active; 'I' for Inactive)
REMARK    1  A    between atoms: C_2  and  C_3 
REMARK    2  A    between atoms: C_3  and  C_4 
REMARK    3  A    between atoms: C_4  and  C_5 
ROOT
HETATM    1  C   LIG     1      13.391  30.687  15.811  1.00  0.00     0.011 C 
ENDROOT
BRANCH   1   2
HETATM    2  C   LIG     1      14.699  30.851  15.032  1.00  0.00     0.085 C 
HETATM    3 BR   LIG     1      15.134  29.253  14.020  1.00  0.00    -0.097 Br
ENDBRANCH   1   2
BRANCH   1   4
HETATM    4  C   LIG     1      13.312  31.648  17.008  1.00  0.00     0.000 C 
BRANCH   4   5
HETATM    5  C   LIG     1      14.646  32.361  17.279  1.00  0.00    -0.005 C 
HETATM    6  C   LIG     1      15.065  32.298  18.747  1.00  0.00     0.005 C 
ENDBRANCH   4   5
ENDBRANCH   1   4
TORSDOF 3
ENDMDL
MODEL 17
REMARK VINA RESULT:      -3.4     11.957     12.676
REMARK  3 active torsions:
REMARK  status: ('A' for Active; 'I' for Inactive)
REMARK    1  A    between atoms: C_2  and  C_3 
REMARK    2  A    between atoms: C_3  and  C_4 
REMARK    3  A    between atoms: C_4  and  C_5 
ROOT
HETATM    1  C   LIG     1      13.528  29.977  14.898  1.00  0.00     0.011 C 
ENDROOT
BRANCH   1   2
HETATM    2  C   LIG     1      12.863  30.779  16.020  1.00  0.00     0.085 C 
HETATM    3 BR   LIG     1      14.146  31.888  16.963  1.00  0.00    -0.097 Br
ENDBRANCH   1   2
BRANCH   1   4
HETATM    4  C   LIG     1      15.032  30.277  14.792  1.00  0.00     0.000 C 
BRANCH   4   5
HETATM    5  C   LIG     1      15.422  30.854  13.422  1.00  0.00    -0.005 C 
HETATM    6  C   LIG     1      16.147  32.195  13.527  1.00  0.00     0.005 C 
ENDBRANCH   4   5
ENDBRANCH   1   4
TORSDOF 3
ENDMDL
MODEL 18
REMARK VINA RESULT:      -3.3     11.696     12.606
REMARK  3 active torsions:
REMARK  status: ('A' for Active; 'I' for Inactive)
REMARK    1  A    between atoms: C_2  and  C_3 
REMARK    2  A    between atoms: C_3  and  C_4 
REMARK    3  A    between atoms: C_4  and  C_5 
ROOT
HETATM    1  C   LIG     1      14.123  29.962  14.761  1.00  0.00     0.011 C 
ENDROOT
BRANCH   1   2
HETATM    2  C   LIG     1      15.214  29.567  13.761  1.00  0.00     0.085 C 
HETATM    3 BR   LIG     1      15.322  27.642  13.546  1.00  0.00    -0.097 Br
ENDBRANCH   1   2
BRANCH   1   4
HETATM    4  C   LIG     1      14.517  31.204  15.578  1.00  0.00     0.000 C 
BRANCH   4   5
HETATM    5  C   LIG     1      13.572  31.450  16.765  1.00  0.00    -0.005 C 
HETATM    6  C   LIG     1      14.316  31.790  18.055  1.00  0.00     0.005 C 
ENDBRANCH   4   5
ENDBRANCH   1   4
TORSDOF 3
ENDMDL
MODEL 19
REMARK VINA RESULT:      -3.3     11.444     12.439
REMARK  3 active torsions:
REMARK  status: ('A' for Active; 'I' for Inactive)
REMARK    1  A    between atoms: C_2  and  C_3 
REMARK    2  A    between atoms: C_3  and  C_4 
REMARK    3  A    between atoms: C_4  and  C_5 
ROOT
HETATM    1  C   LIG     1      15.350  30.104  14.351  1.00  0.00     0.011 C 
ENDROOT
BRANCH   1   2
HETATM    2  C   LIG     1      13.841  29.904  14.514  1.00  0.00     0.085 C 
HETATM    3 BR   LIG     1      13.178  30.752  16.130  1.00  0.00    -0.097 Br
ENDBRANCH   1   2
BRANCH   1   4
HETATM    4  C   LIG     1      15.708  31.576  14.087  1.00  0.00     0.000 C 
BRANCH   4   5
HETATM    5  C   LIG     1      16.584  32.177  15.197  1.00  0.00    -0.005 C 
HETATM    6  C   LIG     1      17.583  33.208  14.672  1.00  0.00     0.005 C 
ENDBRANCH   4   5
ENDBRANCH   1   4
TORSDOF 3
ENDMDL
