REMARK  0 active torsions:
REMARK  status: ('A' for Active; 'I' for Inactive)
ROOT
HETATM    1  C   LIG     1       1.161   0.581   0.018  1.00  0.00     0.019 A 
HETATM    2  C   LIG     1       1.266  -0.813   0.026  1.00  0.00     0.116 A 
HETATM    3  N   LIG     1       0.142  -1.581   0.010  1.00  0.00    -0.273 NA
HETATM    4  C   LIG     1      -1.100  -1.026  -0.015  1.00  0.00     0.116 A 
HETATM    5  C   LIG     1      -1.246   0.363  -0.024  1.00  0.00     0.019 A 
HETATM    6  C   LIG     1      -0.105   1.170  -0.007  1.00  0.00     0.003 A 
ENDROOT
TORSDOF 0
