REMARK  0 active torsions:
REMARK  status: ('A' for Active; 'I' for Inactive)
ROOT
HETATM    1  C   LIG     1      -1.418   0.109  -0.160  1.00  0.00     0.299 C 
HETATM    2  C   LIG     1      -0.759  -1.065   0.581  1.00  0.00     0.299 C 
HETATM    3  N   LIG     1       0.593  -1.320   0.070  1.00  0.00     0.086 N 
HETATM    4  C   LIG     1       1.418  -0.109   0.160  1.00  0.00     0.299 C 
HETATM    5  C   LIG     1       0.759   1.065  -0.581  1.00  0.00     0.299 C 
HETATM    6  N   LIG     1      -0.593   1.320  -0.070  1.00  0.00     0.086 N 
HETATM    7  H   LIG     1       0.525  -1.607  -0.935  1.00  0.00     0.315 HD
HETATM    8  H   LIG     1      -0.525   1.607   0.935  1.00  0.00     0.315 HD
ENDROOT
TORSDOF 0
