MODEL 1
REMARK VINA RESULT:      -4.7      0.000      0.000
REMARK  0 active torsions:
REMARK  status: ('A' for Active; 'I' for Inactive)
ROOT
HETATM    1  C   LIG     1      17.915  34.855  26.133  1.00  0.00     0.019 A 
HETATM    2  C   LIG     1      17.279  34.924  24.889  1.00  0.00     0.116 A 
HETATM    3  N   LIG     1      17.100  36.128  24.281  1.00  0.00    -0.273 NA
HETATM    4  C   LIG     1      17.527  37.286  24.854  1.00  0.00     0.116 A 
HETATM    5  C   LIG     1      18.167  37.259  26.095  1.00  0.00     0.019 A 
HETATM    6  C   LIG     1      18.360  36.033  26.737  1.00  0.00     0.003 A 
ENDROOT
TORSDOF 0
ENDMDL
MODEL 2
REMARK VINA RESULT:      -4.7      0.081      1.958
REMARK  0 active torsions:
REMARK  status: ('A' for Active; 'I' for Inactive)
ROOT
HETATM    1  C   LIG     1      18.260  37.256  26.142  1.00  0.00     0.019 A 
HETATM    2  C   LIG     1      17.592  37.318  24.915  1.00  0.00     0.116 A 
HETATM    3  N   LIG     1      17.133  36.177  24.332  1.00  0.00    -0.273 NA
HETATM    4  C   LIG     1      17.305  34.959  24.914  1.00  0.00     0.116 A 
HETATM    5  C   LIG     1      17.966  34.857  26.140  1.00  0.00     0.019 A 
HETATM    6  C   LIG     1      18.446  36.016  26.756  1.00  0.00     0.003 A 
ENDROOT
TORSDOF 0
ENDMDL
MODEL 3
REMARK VINA RESULT:      -4.5      1.105      2.341
REMARK  0 active torsions:
REMARK  status: ('A' for Active; 'I' for Inactive)
ROOT
HETATM    1  C   LIG     1      17.071  36.067  24.271  1.00  0.00     0.019 A 
HETATM    2  C   LIG     1      17.342  37.300  24.871  1.00  0.00     0.116 A 
HETATM    3  N   LIG     1      17.926  37.347  26.100  1.00  0.00    -0.273 NA
HETATM    4  C   LIG     1      18.261  36.213  26.773  1.00  0.00     0.116 A 
HETATM    5  C   LIG     1      18.007  34.962  26.207  1.00  0.00     0.019 A 
HETATM    6  C   LIG     1      17.407  34.892  24.946  1.00  0.00     0.003 A 
ENDROOT
TORSDOF 0
ENDMDL
MODEL 4
REMARK VINA RESULT:      -4.2      4.951      5.998
REMARK  0 active torsions:
REMARK  status: ('A' for Active; 'I' for Inactive)
ROOT
HETATM    1  C   LIG     1      19.221  39.212  20.485  1.00  0.00     0.019 A 
HETATM    2  C   LIG     1      18.221  38.832  21.385  1.00  0.00     0.116 A 
HETATM    3  N   LIG     1      17.696  37.577  21.330  1.00  0.00    -0.273 NA
HETATM    4  C   LIG     1      18.121  36.666  20.413  1.00  0.00     0.116 A 
HETATM    5  C   LIG     1      19.119  37.009  19.497  1.00  0.00     0.019 A 
HETATM    6  C   LIG     1      19.670  38.292  19.535  1.00  0.00     0.003 A 
ENDROOT
TORSDOF 0
ENDMDL
MODEL 5
REMARK VINA RESULT:      -4.2      5.187      6.129
REMARK  0 active torsions:
REMARK  status: ('A' for Active; 'I' for Inactive)
ROOT
HETATM    1  C   LIG     1      17.953  38.133  21.348  1.00  0.00     0.019 A 
HETATM    2  C   LIG     1      18.611  39.347  21.129  1.00  0.00     0.116 A 
HETATM    3  N   LIG     1      19.508  39.462  20.111  1.00  0.00    -0.273 NA
HETATM    4  C   LIG     1      19.789  38.417  19.287  1.00  0.00     0.116 A 
HETATM    5  C   LIG     1      19.152  37.188  19.474  1.00  0.00     0.019 A 
HETATM    6  C   LIG     1      18.228  37.048  20.513  1.00  0.00     0.003 A 
ENDROOT
TORSDOF 0
ENDMDL
MODEL 6
REMARK VINA RESULT:      -4.1      5.157      5.994
REMARK  0 active torsions:
REMARK  status: ('A' for Active; 'I' for Inactive)
ROOT
HETATM    1  C   LIG     1      19.217  37.170  19.507  1.00  0.00     0.019 A 
HETATM    2  C   LIG     1      19.815  38.424  19.357  1.00  0.00     0.116 A 
HETATM    3  N   LIG     1      19.459  39.451  20.176  1.00  0.00    -0.273 NA
HETATM    4  C   LIG     1      18.525  39.293  21.152  1.00  0.00     0.116 A 
HETATM    5  C   LIG     1      17.905  38.054  21.334  1.00  0.00     0.019 A 
HETATM    6  C   LIG     1      18.256  36.987  20.503  1.00  0.00     0.003 A 
ENDROOT
TORSDOF 0
ENDMDL
MODEL 7
REMARK VINA RESULT:      -4.0      4.560      5.606
REMARK  0 active torsions:
REMARK  status: ('A' for Active; 'I' for Inactive)
ROOT
HETATM    1  C   LIG     1      19.418  38.307  19.622  1.00  0.00     0.019 A 
HETATM    2  C   LIG     1      18.858  37.027  19.631  1.00  0.00     0.116 A 
HETATM    3  N   LIG     1      17.942  36.690  20.580  1.00  0.00    -0.273 NA
HETATM    4  C   LIG     1      17.548  37.576  21.535  1.00  0.00     0.116 A 
HETATM    5  C   LIG     1      18.085  38.865  21.559  1.00  0.00     0.019 A 
HETATM    6  C   LIG     1      19.027  39.230  20.594  1.00  0.00     0.003 A 
ENDROOT
TORSDOF 0
ENDMDL
MODEL 8
REMARK VINA RESULT:      -3.9      2.492      3.614
REMARK  0 active torsions:
REMARK  status: ('A' for Active; 'I' for Inactive)
ROOT
HETATM    1  C   LIG     1      18.346  38.364  24.166  1.00  0.00     0.019 A 
HETATM    2  C   LIG     1      17.189  37.938  24.824  1.00  0.00     0.116 A 
HETATM    3  N   LIG     1      16.011  37.854  24.145  1.00  0.00    -0.273 NA
HETATM    4  C   LIG     1      15.925  38.176  22.826  1.00  0.00     0.116 A 
HETATM    5  C   LIG     1      17.059  38.605  22.134  1.00  0.00     0.019 A 
HETATM    6  C   LIG     1      18.278  38.699  22.812  1.00  0.00     0.003 A 
ENDROOT
TORSDOF 0
ENDMDL
MODEL 9
REMARK VINA RESULT:      -3.7     11.330     12.429
REMARK  0 active torsions:
REMARK  status: ('A' for Active; 'I' for Inactive)
ROOT
HETATM    1  C   LIG     1      14.812  31.723  15.862  1.00  0.00     0.019 A 
HETATM    2  C   LIG     1      15.844  32.096  14.996  1.00  0.00     0.116 A 
HETATM    3  N   LIG     1      16.076  31.379  13.863  1.00  0.00    -0.273 NA
HETATM    4  C   LIG     1      15.321  30.294  13.539  1.00  0.00     0.116 A 
HETATM    5  C   LIG     1      14.280  29.890  14.378  1.00  0.00     0.019 A 
HETATM    6  C   LIG     1      14.026  30.612  15.548  1.00  0.00     0.003 A 
ENDROOT
TORSDOF 0
ENDMDL
MODEL 10
REMARK VINA RESULT:      -3.7      3.404      4.091
REMARK  0 active torsions:
REMARK  status: ('A' for Active; 'I' for Inactive)
ROOT
HETATM    1  C   LIG     1      16.491  36.595  22.465  1.00  0.00     0.019 A 
HETATM    2  C   LIG     1      16.181  37.597  23.390  1.00  0.00     0.116 A 
HETATM    3  N   LIG     1      16.761  38.824  23.284  1.00  0.00    -0.273 NA
HETATM    4  C   LIG     1      17.645  39.112  22.291  1.00  0.00     0.116 A 
HETATM    5  C   LIG     1      17.980  38.137  21.348  1.00  0.00     0.019 A 
HETATM    6  C   LIG     1      17.397  36.870  21.439  1.00  0.00     0.003 A 
ENDROOT
TORSDOF 0
ENDMDL
MODEL 11
REMARK VINA RESULT:      -3.6     10.265     11.371
REMARK  0 active torsions:
REMARK  status: ('A' for Active; 'I' for Inactive)
ROOT
HETATM    1  C   LIG     1      13.392  30.875  16.291  1.00  0.00     0.019 A 
HETATM    2  C   LIG     1      13.931  31.972  16.969  1.00  0.00     0.116 A 
HETATM    3  N   LIG     1      15.059  32.574  16.503  1.00  0.00    -0.273 NA
HETATM    4  C   LIG     1      15.689  32.135  15.380  1.00  0.00     0.116 A 
HETATM    5  C   LIG     1      15.182  31.042  14.675  1.00  0.00     0.019 A 
HETATM    6  C   LIG     1      14.025  30.408  15.136  1.00  0.00     0.003 A 
ENDROOT
TORSDOF 0
ENDMDL
MODEL 12
REMARK VINA RESULT:      -3.6     10.453     11.365
REMARK  0 active torsions:
REMARK  status: ('A' for Active; 'I' for Inactive)
ROOT
HETATM    1  C   LIG     1      15.330  31.274  14.861  1.00  0.00     0.019 A 
HETATM    2  C   LIG     1      15.547  32.362  15.712  1.00  0.00     0.116 A 
HETATM    3  N   LIG     1      14.661  32.635  16.709  1.00  0.00    -0.273 NA
HETATM    4  C   LIG     1      13.554  31.869  16.907  1.00  0.00     0.116 A 
HETATM    5  C   LIG     1      13.303  30.773  16.078  1.00  0.00     0.019 A 
HETATM    6  C   LIG     1      14.200  30.476  15.048  1.00  0.00     0.003 A 
ENDROOT
TORSDOF 0
ENDMDL
MODEL 13
REMARK VINA RESULT:      -3.5      2.803      3.481
REMARK  0 active torsions:
REMARK  status: ('A' for Active; 'I' for Inactive)
ROOT
HETATM    1  C   LIG     1      16.966  37.190  23.784  1.00  0.00     0.019 A 
HETATM    2  C   LIG     1      16.775  36.396  22.648  1.00  0.00     0.116 A 
HETATM    3  N   LIG     1      17.248  36.811  21.440  1.00  0.00    -0.273 NA
HETATM    4  C   LIG     1      17.911  37.991  21.301  1.00  0.00     0.116 A 
HETATM    5  C   LIG     1      18.121  38.811  22.412  1.00  0.00     0.019 A 
HETATM    6  C   LIG     1      17.644  38.405  23.661  1.00  0.00     0.003 A 
ENDROOT
TORSDOF 0
ENDMDL
MODEL 14
REMARK VINA RESULT:      -3.4     12.215     12.288
REMARK  0 active torsions:
REMARK  status: ('A' for Active; 'I' for Inactive)
ROOT
HETATM    1  C   LIG     1      16.806  44.082  34.623  1.00  0.00     0.019 A 
HETATM    2  C   LIG     1      15.417  44.210  34.534  1.00  0.00     0.116 A 
HETATM    3  N   LIG     1      14.868  45.104  33.665  1.00  0.00    -0.273 NA
HETATM    4  C   LIG     1      15.642  45.888  32.867  1.00  0.00     0.116 A 
HETATM    5  C   LIG     1      17.034  45.789  32.926  1.00  0.00     0.019 A 
HETATM    6  C   LIG     1      17.618  44.878  33.812  1.00  0.00     0.003 A 
ENDROOT
TORSDOF 0
ENDMDL
MODEL 15
REMARK VINA RESULT:      -3.4     12.159     12.475
REMARK  0 active torsions:
REMARK  status: ('A' for Active; 'I' for Inactive)
ROOT
HETATM    1  C   LIG     1      15.997  45.950  32.918  1.00  0.00     0.019 A 
HETATM    2  C   LIG     1      17.336  45.614  33.135  1.00  0.00     0.116 A 
HETATM    3  N   LIG     1      17.656  44.616  34.005  1.00  0.00    -0.273 NA
HETATM    4  C   LIG     1      16.698  43.926  34.680  1.00  0.00     0.116 A 
HETATM    5  C   LIG     1      15.348  44.232  34.490  1.00  0.00     0.019 A 
HETATM    6  C   LIG     1      14.998  45.253  33.602  1.00  0.00     0.003 A 
ENDROOT
TORSDOF 0
ENDMDL
MODEL 16
REMARK VINA RESULT:      -3.4     11.310     12.182
REMARK  0 active torsions:
REMARK  status: ('A' for Active; 'I' for Inactive)
ROOT
HETATM    1  C   LIG     1      14.882  30.448  14.623  1.00  0.00     0.019 A 
HETATM    2  C   LIG     1      15.558  30.623  13.412  1.00  0.00     0.116 A 
HETATM    3  N   LIG     1      16.350  31.714  13.225  1.00  0.00    -0.273 NA
HETATM    4  C   LIG     1      16.510  32.653  14.197  1.00  0.00     0.116 A 
HETATM    5  C   LIG     1      15.852  32.513  15.421  1.00  0.00     0.019 A 
HETATM    6  C   LIG     1      15.032  31.401  15.632  1.00  0.00     0.003 A 
ENDROOT
TORSDOF 0
ENDMDL
MODEL 17
REMARK VINA RESULT:      -3.4     11.348     12.258
REMARK  0 active torsions:
REMARK  status: ('A' for Active; 'I' for Inactive)
ROOT
HETATM    1  C   LIG     1      15.690  31.655  14.783  1.00  0.00     0.019 A 
HETATM    2  C   LIG     1      15.306  30.666  13.872  1.00  0.00     0.116 A 
HETATM    3  N   LIG     1      14.192  29.919  14.106  1.00  0.00    -0.273 NA
HETATM    4  C   LIG     1      13.429  30.107  15.217  1.00  0.00     0.116 A 
HETATM    5  C   LIG     1      13.780  31.084  16.151  1.00  0.00     0.019 A 
HETATM    6  C   LIG     1      14.920  31.862  15.929  1.00  0.00     0.003 A 
ENDROOT
TORSDOF 0
ENDMDL
MODEL 18
REMARK VINA RESULT:      -3.3      2.625      3.955
REMARK  0 active torsions:
REMARK  status: ('A' for Active; 'I' for Inactive)
ROOT
HETATM    1  C   LIG     1      17.147  38.592  22.014  1.00  0.00     0.019 A 
HETATM    2  C   LIG     1      18.407  38.916  22.527  1.00  0.00     0.116 A 
HETATM    3  N   LIG     1      18.717  38.607  23.816  1.00  0.00    -0.273 NA
HETATM    4  C   LIG     1      17.827  37.981  24.633  1.00  0.00     0.116 A 
HETATM    5  C   LIG     1      16.559  37.641  24.157  1.00  0.00     0.019 A 
HETATM    6  C   LIG     1      16.219  37.950  22.837  1.00  0.00     0.003 A 
ENDROOT
TORSDOF 0
ENDMDL
MODEL 19
REMARK VINA RESULT:      -3.2     11.539     12.538
REMARK  0 active torsions:
REMARK  status: ('A' for Active; 'I' for Inactive)
ROOT
HETATM    1  C   LIG     1      14.445  31.661  15.821  1.00  0.00     0.019 A 
HETATM    2  C   LIG     1      13.385  30.750  15.835  1.00  0.00     0.116 A 
HETATM    3  N   LIG     1      13.355  29.725  14.940  1.00  0.00    -0.273 NA
HETATM    4  C   LIG     1      14.341  29.557  14.017  1.00  0.00     0.116 A 
HETATM    5  C   LIG     1      15.416  30.446  13.971  1.00  0.00     0.019 A 
HETATM    6  C   LIG     1      15.466  31.506  14.881  1.00  0.00     0.003 A 
ENDROOT
TORSDOF 0
ENDMDL
MODEL 20
REMARK VINA RESULT:      -2.8     16.051     16.324
REMARK  0 active torsions:
REMARK  status: ('A' for Active; 'I' for Inactive)
ROOT
HETATM    1  C   LIG     1      19.575  23.025  35.053  1.00  0.00     0.019 A 
HETATM    2  C   LIG     1      20.350  22.761  33.920  1.00  0.00     0.116 A 
HETATM    3  N   LIG     1      21.681  23.050  33.923  1.00  0.00    -0.273 NA
HETATM    4  C   LIG     1      22.289  23.595  35.010  1.00  0.00     0.116 A 
HETATM    5  C   LIG     1      21.548  23.874  36.161  1.00  0.00     0.019 A 
HETATM    6  C   LIG     1      20.181  23.586  36.179  1.00  0.00     0.003 A 
ENDROOT
TORSDOF 0
ENDMDL
