REMARK  3 active torsions:
REMARK  status: ('A' for Active; 'I' for Inactive)
REMARK    1  A    between atoms: C_2  and  O_3 
REMARK    2  A    between atoms: O_3  and  C_4 
REMARK    3  A    between atoms: C_4  and  C_5 
ROOT
HETATM    1  O   LIG     1       1.224   0.756  -0.304  1.00  0.00    -0.328 OA
ENDROOT
BRANCH   1   2
HETATM    2  C   LIG     1       2.199   0.270   0.574  1.00  0.00     0.398 C 
HETATM    3  O   LIG     1       2.369  -0.967   0.741  1.00  0.00    -0.276 OA
ENDBRANCH   1   2
BRANCH   1   4
HETATM    4  C   LIG     1       0.329  -0.088  -1.028  1.00  0.00     0.178 C 
BRANCH   4   5
HETATM    5  C   LIG     1      -0.771  -0.645  -0.117  1.00  0.00     0.022 C 
HETATM    6  C   LIG     1      -1.632   0.467   0.478  1.00  0.00     0.007 C 
ENDBRANCH   4   5
ENDBRANCH   1   4
TORSDOF 3
