REMARK  3 active torsions:
REMARK  status: ('A' for Active; 'I' for Inactive)
REMARK    1  A    between atoms: C_2  and  C_3 
REMARK    2  A    between atoms: C_3  and  C_4 
REMARK    3  A    between atoms: C_4  and  C_5 
ROOT
HETATM    1  C   LIG     1       0.059  -0.478  -0.474  1.00  0.00     0.006 C 
ENDROOT
BRANCH   1   2
HETATM    2  C   LIG     1      -0.821   0.433   0.394  1.00  0.00    -0.004 C 
HETATM    3  C   LIG     1      -2.216  -0.158   0.574  1.00  0.00     0.005 C 
ENDBRANCH   1   2
BRANCH   1   4
HETATM    4  C   LIG     1       1.453   0.118  -0.709  1.00  0.00     0.069 C 
BRANCH   4   5
HETATM    5  C   LIG     1       2.263   0.174   0.554  1.00  0.00     0.231 C 
HETATM    6  O   LIG     1       2.576  -0.853   1.135  1.00  0.00    -0.307 OA
ENDBRANCH   4   5
ENDBRANCH   1   4
TORSDOF 3
