REMARK  0 active torsions:
REMARK  status: ('A' for Active; 'I' for Inactive)
ROOT
HETATM    1  C   LIG     1       1.436   0.628   0.012  1.00  0.00    -0.030 C 
HETATM    2  C   LIG     1       0.422   1.509   0.047  1.00  0.00    -0.030 C 
HETATM    3  C   LIG     1      -1.024   1.088  -0.058  1.00  0.00     0.026 C 
HETATM    4  C   LIG     1      -1.236  -0.382   0.324  1.00  0.00     0.004 C 
HETATM    5  C   LIG     1      -0.197  -1.266  -0.369  1.00  0.00     0.004 C 
HETATM    6  C   LIG     1       1.218  -0.865   0.064  1.00  0.00     0.026 C 
ENDROOT
TORSDOF 0
