REMARK  5 active torsions:
REMARK  status: ('A' for Active; 'I' for Inactive)
REMARK    1  A    between atoms: O_1  and  C_2 
REMARK    2  A    between atoms: C_2  and  C_3 
REMARK    3  A    between atoms: C_3  and  C_4 
REMARK    4  A    between atoms: C_4  and  C_5 
REMARK    5  A    between atoms: C_5  and  O_6 
ROOT
HETATM    1  C   LIG     1       0.684   0.379   0.171  1.00  0.00     0.120 C 
ENDROOT
BRANCH   1   2
HETATM    2  C   LIG     1       1.865  -0.444  -0.234  1.00  0.00     0.139 C 
HETATM    3  O   LIG     1       2.330  -1.313   0.552  1.00  0.00    -0.650 OA
BRANCH   2   4
HETATM    4  O   LIG     1       2.424  -0.279  -1.498  1.00  0.00    -0.776 OA
HETATM    5  H   LIG     1       3.214  -0.840  -1.794  1.00  0.00     0.167 HD
ENDBRANCH   2   4
ENDBRANCH   1   2
BRANCH   1   6
HETATM    6  C   LIG     1      -0.617  -0.305  -0.259  1.00  0.00     0.120 C 
BRANCH   6   7
HETATM    7  C   LIG     1      -1.807   0.503   0.157  1.00  0.00     0.139 C 
HETATM    8  O   LIG     1      -1.996   1.649  -0.331  1.00  0.00    -0.650 OA
BRANCH   7   9
HETATM    9  O   LIG     1      -2.713  -0.019   1.075  1.00  0.00    -0.776 OA
HETATM   10  H   LIG     1      -3.525   0.513   1.364  1.00  0.00     0.167 HD
ENDBRANCH   7   9
ENDBRANCH   6   7
ENDBRANCH   1   6
TORSDOF 5
