REMARK  0 active torsions:
REMARK  status: ('A' for Active; 'I' for Inactive)
ROOT
HETATM    1  C   LIG     1      -1.116   0.759  -0.361  1.00  0.00     0.295 C 
HETATM    2  C   LIG     1      -1.055  -0.756  -0.603  1.00  0.00     0.197 C 
HETATM    3  O   LIG     1       0.257  -1.156  -0.946  1.00  0.00    -0.388 OA
HETATM    4  C   LIG     1       1.139  -0.858   0.118  1.00  0.00     0.197 C 
HETATM    5  C   LIG     1       1.172   0.653   0.391  1.00  0.00     0.295 C 
HETATM    6  N   LIG     1      -0.173   1.157   0.691  1.00  0.00     0.087 N 
HETATM    7  H   LIG     1      -0.491   0.739   1.598  1.00  0.00     0.316 HD
ENDROOT
TORSDOF 0
