MODEL 1
REMARK VINA RESULT:      -5.2      0.000      0.000
REMARK  0 active torsions:
REMARK  status: ('A' for Active; 'I' for Inactive)
ROOT
HETATM    1  C   LIG     1      17.106  36.014  24.292  1.00  0.00    -0.030 C 
HETATM    2  C   LIG     1      17.344  34.880  24.972  1.00  0.00    -0.030 C 
HETATM    3  C   LIG     1      18.201  34.842  26.214  1.00  0.00     0.026 C 
HETATM    4  C   LIG     1      18.309  36.213  26.894  1.00  0.00     0.004 C 
HETATM    5  C   LIG     1      18.623  37.295  25.859  1.00  0.00     0.004 C 
HETATM    6  C   LIG     1      17.505  37.374  24.813  1.00  0.00     0.026 C 
ENDROOT
TORSDOF 0
ENDMDL
MODEL 2
REMARK VINA RESULT:      -5.2      0.668      2.755
REMARK  0 active torsions:
REMARK  status: ('A' for Active; 'I' for Inactive)
ROOT
HETATM    1  C   LIG     1      18.268  35.447  26.463  1.00  0.00    -0.030 C 
HETATM    2  C   LIG     1      18.562  36.757  26.416  1.00  0.00    -0.030 C 
HETATM    3  C   LIG     1      18.145  37.642  25.266  1.00  0.00     0.026 C 
HETATM    4  C   LIG     1      16.960  37.066  24.481  1.00  0.00     0.004 C 
HETATM    5  C   LIG     1      17.195  35.585  24.176  1.00  0.00     0.004 C 
HETATM    6  C   LIG     1      17.333  34.787  25.478  1.00  0.00     0.026 C 
ENDROOT
TORSDOF 0
ENDMDL
MODEL 3
REMARK VINA RESULT:      -5.2      0.685      2.092
REMARK  0 active torsions:
REMARK  status: ('A' for Active; 'I' for Inactive)
ROOT
HETATM    1  C   LIG     1      18.547  36.778  26.432  1.00  0.00    -0.030 C 
HETATM    2  C   LIG     1      18.266  35.466  26.506  1.00  0.00    -0.030 C 
HETATM    3  C   LIG     1      17.346  34.776  25.528  1.00  0.00     0.026 C 
HETATM    4  C   LIG     1      17.211  35.543  24.208  1.00  0.00     0.004 C 
HETATM    5  C   LIG     1      16.959  37.028  24.479  1.00  0.00     0.004 C 
HETATM    6  C   LIG     1      18.131  37.634  25.260  1.00  0.00     0.026 C 
ENDROOT
TORSDOF 0
ENDMDL
MODEL 4
REMARK VINA RESULT:      -5.1      0.363      2.383
REMARK  0 active torsions:
REMARK  status: ('A' for Active; 'I' for Inactive)
ROOT
HETATM    1  C   LIG     1      18.045  37.407  25.872  1.00  0.00    -0.030 C 
HETATM    2  C   LIG     1      17.415  37.144  24.714  1.00  0.00    -0.030 C 
HETATM    3  C   LIG     1      17.151  35.737  24.235  1.00  0.00     0.026 C 
HETATM    4  C   LIG     1      17.173  34.714  25.377  1.00  0.00     0.004 C 
HETATM    5  C   LIG     1      18.401  34.933  26.263  1.00  0.00     0.004 C 
HETATM    6  C   LIG     1      18.368  36.334  26.884  1.00  0.00     0.026 C 
ENDROOT
TORSDOF 0
ENDMDL
MODEL 5
REMARK VINA RESULT:      -5.1      0.718      2.087
REMARK  0 active torsions:
REMARK  status: ('A' for Active; 'I' for Inactive)
ROOT
HETATM    1  C   LIG     1      17.301  36.768  24.336  1.00  0.00    -0.030 C 
HETATM    2  C   LIG     1      17.965  37.432  25.298  1.00  0.00    -0.030 C 
HETATM    3  C   LIG     1      18.410  36.773  26.581  1.00  0.00     0.026 C 
HETATM    4  C   LIG     1      18.514  35.248  26.452  1.00  0.00     0.004 C 
HETATM    5  C   LIG     1      17.264  34.686  25.772  1.00  0.00     0.004 C 
HETATM    6  C   LIG     1      17.115  35.270  24.363  1.00  0.00     0.026 C 
ENDROOT
TORSDOF 0
ENDMDL
MODEL 6
REMARK VINA RESULT:      -4.8      4.632      5.799
REMARK  0 active torsions:
REMARK  status: ('A' for Active; 'I' for Inactive)
ROOT
HETATM    1  C   LIG     1      18.044  36.739  20.557  1.00  0.00    -0.030 C 
HETATM    2  C   LIG     1      17.685  37.654  21.473  1.00  0.00    -0.030 C 
HETATM    3  C   LIG     1      18.327  39.018  21.554  1.00  0.00     0.026 C 
HETATM    4  C   LIG     1      18.991  39.432  20.235  1.00  0.00     0.004 C 
HETATM    5  C   LIG     1      19.845  38.287  19.687  1.00  0.00     0.004 C 
HETATM    6  C   LIG     1      18.973  37.057  19.411  1.00  0.00     0.026 C 
ENDROOT
TORSDOF 0
ENDMDL
MODEL 7
REMARK VINA RESULT:      -4.8      4.634      5.764
REMARK  0 active torsions:
REMARK  status: ('A' for Active; 'I' for Inactive)
ROOT
HETATM    1  C   LIG     1      18.118  38.791  21.474  1.00  0.00    -0.030 C 
HETATM    2  C   LIG     1      17.663  37.527  21.469  1.00  0.00    -0.030 C 
HETATM    3  C   LIG     1      17.976  36.555  20.357  1.00  0.00     0.026 C 
HETATM    4  C   LIG     1      19.232  36.950  19.570  1.00  0.00     0.004 C 
HETATM    5  C   LIG     1      19.187  38.436  19.209  1.00  0.00     0.004 C 
HETATM    6  C   LIG     1      19.139  39.292  20.480  1.00  0.00     0.026 C 
ENDROOT
TORSDOF 0
ENDMDL
MODEL 8
REMARK VINA RESULT:      -4.8      4.609      5.689
REMARK  0 active torsions:
REMARK  status: ('A' for Active; 'I' for Inactive)
ROOT
HETATM    1  C   LIG     1      17.658  37.521  21.449  1.00  0.00    -0.030 C 
HETATM    2  C   LIG     1      18.051  36.655  20.499  1.00  0.00    -0.030 C 
HETATM    3  C   LIG     1      18.965  37.053  19.365  1.00  0.00     0.026 C 
HETATM    4  C   LIG     1      19.788  38.307  19.687  1.00  0.00     0.004 C 
HETATM    5  C   LIG     1      18.889  39.395  20.278  1.00  0.00     0.004 C 
HETATM    6  C   LIG     1      18.245  38.905  21.580  1.00  0.00     0.026 C 
ENDROOT
TORSDOF 0
ENDMDL
MODEL 9
REMARK VINA RESULT:      -4.7      4.543      5.663
REMARK  0 active torsions:
REMARK  status: ('A' for Active; 'I' for Inactive)
ROOT
HETATM    1  C   LIG     1      17.947  36.597  20.514  1.00  0.00    -0.030 C 
HETATM    2  C   LIG     1      18.829  36.882  19.541  1.00  0.00    -0.030 C 
HETATM    3  C   LIG     1      19.460  38.245  19.390  1.00  0.00     0.026 C 
HETATM    4  C   LIG     1      19.425  39.055  20.692  1.00  0.00     0.004 C 
HETATM    5  C   LIG     1      18.031  38.995  21.318  1.00  0.00     0.004 C 
HETATM    6  C   LIG     1      17.659  37.545  21.654  1.00  0.00     0.026 C 
ENDROOT
TORSDOF 0
ENDMDL
MODEL 10
REMARK VINA RESULT:      -4.6      4.594      5.848
REMARK  0 active torsions:
REMARK  status: ('A' for Active; 'I' for Inactive)
ROOT
HETATM    1  C   LIG     1      19.019  39.343  20.666  1.00  0.00    -0.030 C 
HETATM    2  C   LIG     1      19.683  38.601  19.763  1.00  0.00    -0.030 C 
HETATM    3  C   LIG     1      19.424  37.125  19.576  1.00  0.00     0.026 C 
HETATM    4  C   LIG     1      18.042  36.703  20.089  1.00  0.00     0.004 C 
HETATM    5  C   LIG     1      17.791  37.287  21.481  1.00  0.00     0.004 C 
HETATM    6  C   LIG     1      17.827  38.819  21.431  1.00  0.00     0.026 C 
ENDROOT
TORSDOF 0
ENDMDL
MODEL 11
REMARK VINA RESULT:      -4.5      4.621      5.910
REMARK  0 active torsions:
REMARK  status: ('A' for Active; 'I' for Inactive)
ROOT
HETATM    1  C   LIG     1      19.643  38.240  19.493  1.00  0.00    -0.030 C 
HETATM    2  C   LIG     1      19.316  39.208  20.365  1.00  0.00    -0.030 C 
HETATM    3  C   LIG     1      18.217  39.044  21.387  1.00  0.00     0.026 C 
HETATM    4  C   LIG     1      17.905  37.572  21.682  1.00  0.00     0.004 C 
HETATM    5  C   LIG     1      17.771  36.785  20.376  1.00  0.00     0.004 C 
HETATM    6  C   LIG     1      19.082  36.841  19.583  1.00  0.00     0.026 C 
ENDROOT
TORSDOF 0
ENDMDL
MODEL 12
REMARK VINA RESULT:      -4.4      4.768      6.014
REMARK  0 active torsions:
REMARK  status: ('A' for Active; 'I' for Inactive)
ROOT
HETATM    1  C   LIG     1      19.146  39.241  20.373  1.00  0.00    -0.030 C 
HETATM    2  C   LIG     1      18.280  38.863  21.328  1.00  0.00    -0.030 C 
HETATM    3  C   LIG     1      17.536  37.550  21.277  1.00  0.00     0.026 C 
HETATM    4  C   LIG     1      18.231  36.517  20.382  1.00  0.00     0.004 C 
HETATM    5  C   LIG     1      18.626  37.151  19.046  1.00  0.00     0.004 C 
HETATM    6  C   LIG     1      19.602  38.311  19.274  1.00  0.00     0.026 C 
ENDROOT
TORSDOF 0
ENDMDL
MODEL 13
REMARK VINA RESULT:      -4.4      1.277      2.680
REMARK  0 active torsions:
REMARK  status: ('A' for Active; 'I' for Inactive)
ROOT
HETATM    1  C   LIG     1      17.467  36.059  25.372  1.00  0.00    -0.030 C 
HETATM    2  C   LIG     1      17.370  35.043  24.499  1.00  0.00    -0.030 C 
HETATM    3  C   LIG     1      16.884  35.232  23.082  1.00  0.00     0.026 C 
HETATM    4  C   LIG     1      17.030  36.681  22.601  1.00  0.00     0.004 C 
HETATM    5  C   LIG     1      16.497  37.649  23.660  1.00  0.00     0.004 C 
HETATM    6  C   LIG     1      17.291  37.502  24.964  1.00  0.00     0.026 C 
ENDROOT
TORSDOF 0
ENDMDL
MODEL 14
REMARK VINA RESULT:      -4.2     10.598     11.983
REMARK  0 active torsions:
REMARK  status: ('A' for Active; 'I' for Inactive)
ROOT
HETATM    1  C   LIG     1      15.309  30.855  14.307  1.00  0.00    -0.030 C 
HETATM    2  C   LIG     1      15.623  31.823  15.184  1.00  0.00    -0.030 C 
HETATM    3  C   LIG     1      14.740  32.174  16.358  1.00  0.00     0.026 C 
HETATM    4  C   LIG     1      13.796  31.029  16.743  1.00  0.00     0.004 C 
HETATM    5  C   LIG     1      13.112  30.461  15.498  1.00  0.00     0.004 C 
HETATM    6  C   LIG     1      14.157  29.904  14.524  1.00  0.00     0.026 C 
ENDROOT
TORSDOF 0
ENDMDL
MODEL 15
REMARK VINA RESULT:      -4.2      2.374      3.618
REMARK  0 active torsions:
REMARK  status: ('A' for Active; 'I' for Inactive)
ROOT
HETATM    1  C   LIG     1      17.128  35.159  22.157  1.00  0.00    -0.030 C 
HETATM    2  C   LIG     1      16.971  35.536  23.437  1.00  0.00    -0.030 C 
HETATM    3  C   LIG     1      17.045  36.979  23.874  1.00  0.00     0.026 C 
HETATM    4  C   LIG     1      16.783  37.956  22.721  1.00  0.00     0.004 C 
HETATM    5  C   LIG     1      17.597  37.554  21.490  1.00  0.00     0.004 C 
HETATM    6  C   LIG     1      17.196  36.151  21.020  1.00  0.00     0.026 C 
ENDROOT
TORSDOF 0
ENDMDL
MODEL 16
REMARK VINA RESULT:      -4.2     10.520     11.876
REMARK  0 active torsions:
REMARK  status: ('A' for Active; 'I' for Inactive)
ROOT
HETATM    1  C   LIG     1      15.598  31.937  15.344  1.00  0.00    -0.030 C 
HETATM    2  C   LIG     1      15.387  30.992  14.413  1.00  0.00    -0.030 C 
HETATM    3  C   LIG     1      14.286  29.965  14.532  1.00  0.00     0.026 C 
HETATM    4  C   LIG     1      13.163  30.417  15.474  1.00  0.00     0.004 C 
HETATM    5  C   LIG     1      13.750  30.969  16.774  1.00  0.00     0.004 C 
HETATM    6  C   LIG     1      14.640  32.183  16.485  1.00  0.00     0.026 C 
ENDROOT
TORSDOF 0
ENDMDL
MODEL 17
REMARK VINA RESULT:      -4.1     10.998     12.438
REMARK  0 active torsions:
REMARK  status: ('A' for Active; 'I' for Inactive)
ROOT
HETATM    1  C   LIG     1      13.871  31.182  16.103  1.00  0.00    -0.030 C 
HETATM    2  C   LIG     1      14.974  31.930  15.927  1.00  0.00    -0.030 C 
HETATM    3  C   LIG     1      15.964  31.669  14.817  1.00  0.00     0.026 C 
HETATM    4  C   LIG     1      15.348  30.876  13.658  1.00  0.00     0.004 C 
HETATM    5  C   LIG     1      14.563  29.676  14.193  1.00  0.00     0.004 C 
HETATM    6  C   LIG     1      13.421  30.148  15.100  1.00  0.00     0.026 C 
ENDROOT
TORSDOF 0
ENDMDL
MODEL 18
REMARK VINA RESULT:      -4.0      9.980     11.112
REMARK  0 active torsions:
REMARK  status: ('A' for Active; 'I' for Inactive)
ROOT
HETATM    1  C   LIG     1      13.574  30.807  16.186  1.00  0.00    -0.030 C 
HETATM    2  C   LIG     1      14.345  30.599  15.105  1.00  0.00    -0.030 C 
HETATM    3  C   LIG     1      15.470  31.528  14.718  1.00  0.00     0.026 C 
HETATM    4  C   LIG     1      15.970  32.367  15.900  1.00  0.00     0.004 C 
HETATM    5  C   LIG     1      14.788  32.976  16.657  1.00  0.00     0.004 C 
HETATM    6  C   LIG     1      13.885  31.869  17.213  1.00  0.00     0.026 C 
ENDROOT
TORSDOF 0
ENDMDL
MODEL 19
REMARK VINA RESULT:      -3.9      3.626      4.526
REMARK  0 active torsions:
REMARK  status: ('A' for Active; 'I' for Inactive)
ROOT
HETATM    1  C   LIG     1      17.379  35.907  21.113  1.00  0.00    -0.030 C 
HETATM    2  C   LIG     1      18.070  37.003  20.755  1.00  0.00    -0.030 C 
HETATM    3  C   LIG     1      17.759  38.374  21.305  1.00  0.00     0.026 C 
HETATM    4  C   LIG     1      16.997  38.315  22.634  1.00  0.00     0.004 C 
HETATM    5  C   LIG     1      15.839  37.319  22.538  1.00  0.00     0.004 C 
HETATM    6  C   LIG     1      16.369  35.913  22.234  1.00  0.00     0.026 C 
ENDROOT
TORSDOF 0
ENDMDL
MODEL 20
REMARK VINA RESULT:      -3.2     17.071     17.404
REMARK  0 active torsions:
REMARK  status: ('A' for Active; 'I' for Inactive)
ROOT
HETATM    1  C   LIG     1       3.685  41.593  32.849  1.00  0.00    -0.030 C 
HETATM    2  C   LIG     1       3.991  40.937  33.981  1.00  0.00    -0.030 C 
HETATM    3  C   LIG     1       4.461  41.645  35.229  1.00  0.00     0.026 C 
HETATM    4  C   LIG     1       4.054  43.124  35.252  1.00  0.00     0.004 C 
HETATM    5  C   LIG     1       4.373  43.784  33.909  1.00  0.00     0.004 C 
HETATM    6  C   LIG     1       3.595  43.098  32.780  1.00  0.00     0.026 C 
ENDROOT
TORSDOF 0
ENDMDL
