MODEL 1
REMARK VINA RESULT:      -4.6      0.000      0.000
REMARK  3 active torsions:
REMARK  status: ('A' for Active; 'I' for Inactive)
REMARK    1  A    between atoms: C_2  and  C_3 
REMARK    2  A    between atoms: C_3  and  C_4 
REMARK    3  A    between atoms: C_4  and  C_5 
ROOT
HETATM    1  C   LIG     1      18.567  37.116  25.746  1.00  0.00     0.006 C 
ENDROOT
BRANCH   1   2
HETATM    2  C   LIG     1      18.261  36.013  26.770  1.00  0.00    -0.004 C 
HETATM    3  C   LIG     1      17.626  34.799  26.098  1.00  0.00     0.005 C 
ENDBRANCH   1   2
BRANCH   1   4
HETATM    4  C   LIG     1      17.352  38.014  25.483  1.00  0.00     0.069 C 
BRANCH   4   5
HETATM    5  C   LIG     1      16.790  37.814  24.105  1.00  0.00     0.231 C 
HETATM    6  O   LIG     1      15.604  38.003  23.887  1.00  0.00    -0.307 OA
ENDBRANCH   4   5
ENDBRANCH   1   4
TORSDOF 3
ENDMDL
MODEL 2
REMARK VINA RESULT:      -4.0      3.231      4.847
REMARK  3 active torsions:
REMARK  status: ('A' for Active; 'I' for Inactive)
REMARK    1  A    between atoms: C_2  and  C_3 
REMARK    2  A    between atoms: C_3  and  C_4 
REMARK    3  A    between atoms: C_4  and  C_5 
ROOT
HETATM    1  C   LIG     1      18.585  39.020  21.991  1.00  0.00     0.006 C 
ENDROOT
BRANCH   1   2
HETATM    2  C   LIG     1      18.782  39.519  20.552  1.00  0.00    -0.004 C 
HETATM    3  C   LIG     1      19.988  38.850  19.899  1.00  0.00     0.005 C 
ENDBRANCH   1   2
BRANCH   1   4
HETATM    4  C   LIG     1      17.125  38.647  22.279  1.00  0.00     0.069 C 
BRANCH   4   5
HETATM    5  C   LIG     1      16.992  37.791  23.505  1.00  0.00     0.231 C 
HETATM    6  O   LIG     1      16.110  38.009  24.320  1.00  0.00    -0.307 OA
ENDBRANCH   4   5
ENDBRANCH   1   4
TORSDOF 3
ENDMDL
MODEL 3
REMARK VINA RESULT:      -3.9      2.009      3.360
REMARK  3 active torsions:
REMARK  status: ('A' for Active; 'I' for Inactive)
REMARK    1  A    between atoms: C_2  and  C_3 
REMARK    2  A    between atoms: C_3  and  C_4 
REMARK    3  A    between atoms: C_4  and  C_5 
ROOT
HETATM    1  C   LIG     1      17.798  37.502  25.636  1.00  0.00     0.006 C 
ENDROOT
BRANCH   1   2
HETATM    2  C   LIG     1      17.059  37.201  24.325  1.00  0.00    -0.004 C 
HETATM    3  C   LIG     1      17.302  38.296  23.291  1.00  0.00     0.005 C 
ENDBRANCH   1   2
BRANCH   1   4
HETATM    4  C   LIG     1      18.281  36.224  26.335  1.00  0.00     0.069 C 
BRANCH   4   5
HETATM    5  C   LIG     1      17.631  34.994  25.772  1.00  0.00     0.231 C 
HETATM    6  O   LIG     1      16.867  34.329  26.455  1.00  0.00    -0.307 OA
ENDBRANCH   4   5
ENDBRANCH   1   4
TORSDOF 3
ENDMDL
MODEL 4
REMARK VINA RESULT:      -3.7      1.309      2.009
REMARK  3 active torsions:
REMARK  status: ('A' for Active; 'I' for Inactive)
REMARK    1  A    between atoms: C_2  and  C_3 
REMARK    2  A    between atoms: C_3  and  C_4 
REMARK    3  A    between atoms: C_4  and  C_5 
ROOT
HETATM    1  C   LIG     1      17.205  36.386  24.391  1.00  0.00     0.006 C 
ENDROOT
BRANCH   1   2
HETATM    2  C   LIG     1      17.800  37.358  25.420  1.00  0.00    -0.004 C 
HETATM    3  C   LIG     1      18.514  36.606  26.539  1.00  0.00     0.005 C 
ENDBRANCH   1   2
BRANCH   1   4
HETATM    4  C   LIG     1      17.040  37.035  23.011  1.00  0.00     0.069 C 
BRANCH   4   5
HETATM    5  C   LIG     1      15.784  37.852  22.917  1.00  0.00     0.231 C 
HETATM    6  O   LIG     1      15.841  39.068  22.828  1.00  0.00    -0.307 OA
ENDBRANCH   4   5
ENDBRANCH   1   4
TORSDOF 3
ENDMDL
MODEL 5
REMARK VINA RESULT:      -3.7      4.131      4.558
REMARK  3 active torsions:
REMARK  status: ('A' for Active; 'I' for Inactive)
REMARK    1  A    between atoms: C_2  and  C_3 
REMARK    2  A    between atoms: C_3  and  C_4 
REMARK    3  A    between atoms: C_4  and  C_5 
ROOT
HETATM    1  C   LIG     1      17.066  37.795  22.246  1.00  0.00     0.006 C 
ENDROOT
BRANCH   1   2
HETATM    2  C   LIG     1      17.356  36.632  21.286  1.00  0.00    -0.004 C 
HETATM    3  C   LIG     1      17.035  35.290  21.936  1.00  0.00     0.005 C 
ENDBRANCH   1   2
BRANCH   1   4
HETATM    4  C   LIG     1      17.934  39.024  21.944  1.00  0.00     0.069 C 
BRANCH   4   5
HETATM    5  C   LIG     1      18.830  38.804  20.759  1.00  0.00     0.231 C 
HETATM    6  O   LIG     1      19.106  39.729  20.011  1.00  0.00    -0.307 OA
ENDBRANCH   4   5
ENDBRANCH   1   4
TORSDOF 3
ENDMDL
MODEL 6
REMARK VINA RESULT:      -3.7      3.075      4.060
REMARK  3 active torsions:
REMARK  status: ('A' for Active; 'I' for Inactive)
REMARK    1  A    between atoms: C_2  and  C_3 
REMARK    2  A    between atoms: C_3  and  C_4 
REMARK    3  A    between atoms: C_4  and  C_5 
ROOT
HETATM    1  C   LIG     1      16.881  35.479  22.401  1.00  0.00     0.006 C 
ENDROOT
BRANCH   1   2
HETATM    2  C   LIG     1      16.618  35.300  20.899  1.00  0.00    -0.004 C 
HETATM    3  C   LIG     1      15.751  34.073  20.634  1.00  0.00     0.005 C 
ENDBRANCH   1   2
BRANCH   1   4
HETATM    4  C   LIG     1      16.942  36.958  22.805  1.00  0.00     0.069 C 
BRANCH   4   5
HETATM    5  C   LIG     1      16.954  37.136  24.296  1.00  0.00     0.231 C 
HETATM    6  O   LIG     1      16.493  38.146  24.804  1.00  0.00    -0.307 OA
ENDBRANCH   4   5
ENDBRANCH   1   4
TORSDOF 3
ENDMDL
MODEL 7
REMARK VINA RESULT:      -3.7      8.392      9.126
REMARK  3 active torsions:
REMARK  status: ('A' for Active; 'I' for Inactive)
REMARK    1  A    between atoms: C_2  and  C_3 
REMARK    2  A    between atoms: C_3  and  C_4 
REMARK    3  A    between atoms: C_4  and  C_5 
ROOT
HETATM    1  C   LIG     1      14.311  31.920  17.819  1.00  0.00     0.006 C 
ENDROOT
BRANCH   1   2
HETATM    2  C   LIG     1      15.089  32.233  19.106  1.00  0.00    -0.004 C 
HETATM    3  C   LIG     1      14.878  31.146  20.155  1.00  0.00     0.005 C 
ENDBRANCH   1   2
BRANCH   1   4
HETATM    4  C   LIG     1      14.908  32.628  16.596  1.00  0.00     0.069 C 
BRANCH   4   5
HETATM    5  C   LIG     1      15.123  34.094  16.842  1.00  0.00     0.231 C 
HETATM    6  O   LIG     1      16.019  34.693  16.269  1.00  0.00    -0.307 OA
ENDBRANCH   4   5
ENDBRANCH   1   4
TORSDOF 3
ENDMDL
MODEL 8
REMARK VINA RESULT:      -3.7      2.148      3.048
REMARK  3 active torsions:
REMARK  status: ('A' for Active; 'I' for Inactive)
REMARK    1  A    between atoms: C_2  and  C_3 
REMARK    2  A    between atoms: C_3  and  C_4 
REMARK    3  A    between atoms: C_4  and  C_5 
ROOT
HETATM    1  C   LIG     1      17.409  34.815  24.590  1.00  0.00     0.006 C 
ENDROOT
BRANCH   1   2
HETATM    2  C   LIG     1      16.985  35.745  23.444  1.00  0.00    -0.004 C 
HETATM    3  C   LIG     1      16.876  34.983  22.127  1.00  0.00     0.005 C 
ENDBRANCH   1   2
BRANCH   1   4
HETATM    4  C   LIG     1      17.646  35.580  25.898  1.00  0.00     0.069 C 
BRANCH   4   5
HETATM    5  C   LIG     1      18.066  37.000  25.654  1.00  0.00     0.231 C 
HETATM    6  O   LIG     1      17.371  37.927  26.038  1.00  0.00    -0.307 OA
ENDBRANCH   4   5
ENDBRANCH   1   4
TORSDOF 3
ENDMDL
MODEL 9
REMARK VINA RESULT:      -3.6     10.393     11.259
REMARK  3 active torsions:
REMARK  status: ('A' for Active; 'I' for Inactive)
REMARK    1  A    between atoms: C_2  and  C_3 
REMARK    2  A    between atoms: C_3  and  C_4 
REMARK    3  A    between atoms: C_4  and  C_5 
ROOT
HETATM    1  C   LIG     1      13.828  31.290  16.480  1.00  0.00     0.006 C 
ENDROOT
BRANCH   1   2
HETATM    2  C   LIG     1      13.497  30.373  15.294  1.00  0.00    -0.004 C 
HETATM    3  C   LIG     1      14.740  30.083  14.458  1.00  0.00     0.005 C 
ENDBRANCH   1   2
BRANCH   1   4
HETATM    4  C   LIG     1      15.012  32.219  16.179  1.00  0.00     0.069 C 
BRANCH   4   5
HETATM    5  C   LIG     1      14.930  33.505  16.949  1.00  0.00     0.231 C 
HETATM    6  O   LIG     1      15.332  34.548  16.457  1.00  0.00    -0.307 OA
ENDBRANCH   4   5
ENDBRANCH   1   4
TORSDOF 3
ENDMDL
MODEL 10
REMARK VINA RESULT:      -3.5     10.440     11.327
REMARK  3 active torsions:
REMARK  status: ('A' for Active; 'I' for Inactive)
REMARK    1  A    between atoms: C_2  and  C_3 
REMARK    2  A    between atoms: C_3  and  C_4 
REMARK    3  A    between atoms: C_4  and  C_5 
ROOT
HETATM    1  C   LIG     1      13.273  30.908  16.431  1.00  0.00     0.006 C 
ENDROOT
BRANCH   1   2
HETATM    2  C   LIG     1      13.545  30.218  15.086  1.00  0.00    -0.004 C 
HETATM    3  C   LIG     1      14.953  30.524  14.585  1.00  0.00     0.005 C 
ENDBRANCH   1   2
BRANCH   1   4
HETATM    4  C   LIG     1      14.270  32.040  16.712  1.00  0.00     0.069 C 
BRANCH   4   5
HETATM    5  C   LIG     1      14.638  32.120  18.165  1.00  0.00     0.231 C 
HETATM    6  O   LIG     1      14.263  31.261  18.947  1.00  0.00    -0.307 OA
ENDBRANCH   4   5
ENDBRANCH   1   4
TORSDOF 3
ENDMDL
MODEL 11
REMARK VINA RESULT:      -3.4     11.590     12.413
REMARK  3 active torsions:
REMARK  status: ('A' for Active; 'I' for Inactive)
REMARK    1  A    between atoms: C_2  and  C_3 
REMARK    2  A    between atoms: C_3  and  C_4 
REMARK    3  A    between atoms: C_4  and  C_5 
ROOT
HETATM    1  C   LIG     1      15.423  30.197  14.468  1.00  0.00     0.006 C 
ENDROOT
BRANCH   1   2
HETATM    2  C   LIG     1      13.909  29.946  14.511  1.00  0.00    -0.004 C 
HETATM    3  C   LIG     1      13.283  30.568  15.755  1.00  0.00     0.005 C 
ENDBRANCH   1   2
BRANCH   1   4
HETATM    4  C   LIG     1      15.758  31.660  14.151  1.00  0.00     0.069 C 
BRANCH   4   5
HETATM    5  C   LIG     1      16.496  32.326  15.276  1.00  0.00     0.231 C 
HETATM    6  O   LIG     1      17.716  32.364  15.280  1.00  0.00    -0.307 OA
ENDBRANCH   4   5
ENDBRANCH   1   4
TORSDOF 3
ENDMDL
MODEL 12
REMARK VINA RESULT:      -3.4     11.670     12.595
REMARK  3 active torsions:
REMARK  status: ('A' for Active; 'I' for Inactive)
REMARK    1  A    between atoms: C_2  and  C_3 
REMARK    2  A    between atoms: C_3  and  C_4 
REMARK    3  A    between atoms: C_4  and  C_5 
ROOT
HETATM    1  C   LIG     1      14.604  30.092  14.243  1.00  0.00     0.006 C 
ENDROOT
BRANCH   1   2
HETATM    2  C   LIG     1      15.594  31.188  14.665  1.00  0.00    -0.004 C 
HETATM    3  C   LIG     1      16.057  32.004  13.463  1.00  0.00     0.005 C 
ENDBRANCH   1   2
BRANCH   1   4
HETATM    4  C   LIG     1      13.338  30.092  15.109  1.00  0.00     0.069 C 
BRANCH   4   5
HETATM    5  C   LIG     1      13.461  31.012  16.289  1.00  0.00     0.231 C 
HETATM    6  O   LIG     1      12.469  31.361  16.909  1.00  0.00    -0.307 OA
ENDBRANCH   4   5
ENDBRANCH   1   4
TORSDOF 3
ENDMDL
MODEL 13
REMARK VINA RESULT:      -3.4      3.761      5.060
REMARK  3 active torsions:
REMARK  status: ('A' for Active; 'I' for Inactive)
REMARK    1  A    between atoms: C_2  and  C_3 
REMARK    2  A    between atoms: C_3  and  C_4 
REMARK    3  A    between atoms: C_4  and  C_5 
ROOT
HETATM    1  C   LIG     1      17.573  37.428  21.410  1.00  0.00     0.006 C 
ENDROOT
BRANCH   1   2
HETATM    2  C   LIG     1      18.139  36.579  20.263  1.00  0.00    -0.004 C 
HETATM    3  C   LIG     1      19.233  37.330  19.510  1.00  0.00     0.005 C 
ENDBRANCH   1   2
BRANCH   1   4
HETATM    4  C   LIG     1      16.842  36.574  22.455  1.00  0.00     0.069 C 
BRANCH   4   5
HETATM    5  C   LIG     1      16.756  35.132  22.045  1.00  0.00     0.231 C 
HETATM    6  O   LIG     1      15.672  34.615  21.823  1.00  0.00    -0.307 OA
ENDBRANCH   4   5
ENDBRANCH   1   4
TORSDOF 3
ENDMDL
MODEL 14
REMARK VINA RESULT:      -3.4      5.597      6.345
REMARK  3 active torsions:
REMARK  status: ('A' for Active; 'I' for Inactive)
REMARK    1  A    between atoms: C_2  and  C_3 
REMARK    2  A    between atoms: C_3  and  C_4 
REMARK    3  A    between atoms: C_4  and  C_5 
ROOT
HETATM    1  C   LIG     1      15.266  33.718  20.699  1.00  0.00     0.006 C 
ENDROOT
BRANCH   1   2
HETATM    2  C   LIG     1      15.526  32.619  19.659  1.00  0.00    -0.004 C 
HETATM    3  C   LIG     1      14.831  31.318  20.047  1.00  0.00     0.005 C 
ENDBRANCH   1   2
BRANCH   1   4
HETATM    4  C   LIG     1      15.756  35.092  20.224  1.00  0.00     0.069 C 
BRANCH   4   5
HETATM    5  C   LIG     1      16.922  35.585  21.032  1.00  0.00     0.231 C 
HETATM    6  O   LIG     1      17.201  35.063  22.099  1.00  0.00    -0.307 OA
ENDBRANCH   4   5
ENDBRANCH   1   4
TORSDOF 3
ENDMDL
MODEL 15
REMARK VINA RESULT:      -3.3     10.716     11.525
REMARK  3 active torsions:
REMARK  status: ('A' for Active; 'I' for Inactive)
REMARK    1  A    between atoms: C_2  and  C_3 
REMARK    2  A    between atoms: C_3  and  C_4 
REMARK    3  A    between atoms: C_4  and  C_5 
ROOT
HETATM    1  C   LIG     1      13.361  31.078  16.490  1.00  0.00     0.006 C 
ENDROOT
BRANCH   1   2
HETATM    2  C   LIG     1      14.206  32.206  17.100  1.00  0.00    -0.004 C 
HETATM    3  C   LIG     1      14.609  31.879  18.534  1.00  0.00     0.005 C 
ENDBRANCH   1   2
BRANCH   1   4
HETATM    4  C   LIG     1      14.015  30.477  15.240  1.00  0.00     0.069 C 
BRANCH   4   5
HETATM    5  C   LIG     1      15.218  31.260  14.800  1.00  0.00     0.231 C 
HETATM    6  O   LIG     1      16.225  30.686  14.417  1.00  0.00    -0.307 OA
ENDBRANCH   4   5
ENDBRANCH   1   4
TORSDOF 3
ENDMDL
MODEL 16
REMARK VINA RESULT:      -3.3     11.172     11.844
REMARK  3 active torsions:
REMARK  status: ('A' for Active; 'I' for Inactive)
REMARK    1  A    between atoms: C_2  and  C_3 
REMARK    2  A    between atoms: C_3  and  C_4 
REMARK    3  A    between atoms: C_4  and  C_5 
ROOT
HETATM    1  C   LIG     1      16.116  32.170  13.793  1.00  0.00     0.006 C 
ENDROOT
BRANCH   1   2
HETATM    2  C   LIG     1      15.526  30.811  14.193  1.00  0.00    -0.004 C 
HETATM    3  C   LIG     1      14.529  30.960  15.339  1.00  0.00     0.005 C 
ENDBRANCH   1   2
BRANCH   1   4
HETATM    4  C   LIG     1      16.782  32.883  14.977  1.00  0.00     0.069 C 
BRANCH   4   5
HETATM    5  C   LIG     1      17.593  34.069  14.539  1.00  0.00     0.231 C 
HETATM    6  O   LIG     1      17.253  35.200  14.848  1.00  0.00    -0.307 OA
ENDBRANCH   4   5
ENDBRANCH   1   4
TORSDOF 3
ENDMDL
MODEL 17
REMARK VINA RESULT:      -3.2      7.713      8.572
REMARK  3 active torsions:
REMARK  status: ('A' for Active; 'I' for Inactive)
REMARK    1  A    between atoms: C_2  and  C_3 
REMARK    2  A    between atoms: C_3  and  C_4 
REMARK    3  A    between atoms: C_4  and  C_5 
ROOT
HETATM    1  C   LIG     1      15.174  32.529  18.416  1.00  0.00     0.006 C 
ENDROOT
BRANCH   1   2
HETATM    2  C   LIG     1      14.105  31.622  17.788  1.00  0.00    -0.004 C 
HETATM    3  C   LIG     1      14.290  31.519  16.277  1.00  0.00     0.005 C 
ENDBRANCH   1   2
BRANCH   1   4
HETATM    4  C   LIG     1      15.202  32.415  19.946  1.00  0.00     0.069 C 
BRANCH   4   5
HETATM    5  C   LIG     1      15.388  33.750  20.608  1.00  0.00     0.231 C 
HETATM    6  O   LIG     1      14.681  34.079  21.547  1.00  0.00    -0.307 OA
ENDBRANCH   4   5
ENDBRANCH   1   4
TORSDOF 3
ENDMDL
MODEL 18
REMARK VINA RESULT:      -3.2      9.020      9.746
REMARK  3 active torsions:
REMARK  status: ('A' for Active; 'I' for Inactive)
REMARK    1  A    between atoms: C_2  and  C_3 
REMARK    2  A    between atoms: C_3  and  C_4 
REMARK    3  A    between atoms: C_4  and  C_5 
ROOT
HETATM    1  C   LIG     1      15.147  32.731  17.644  1.00  0.00     0.006 C 
ENDROOT
BRANCH   1   2
HETATM    2  C   LIG     1      14.983  32.093  19.031  1.00  0.00    -0.004 C 
HETATM    3  C   LIG     1      15.438  33.046  20.133  1.00  0.00     0.005 C 
ENDBRANCH   1   2
BRANCH   1   4
HETATM    4  C   LIG     1      14.450  31.916  16.547  1.00  0.00     0.069 C 
BRANCH   4   5
HETATM    5  C   LIG     1      12.977  31.775  16.799  1.00  0.00     0.231 C 
HETATM    6  O   LIG     1      12.449  30.674  16.786  1.00  0.00    -0.307 OA
ENDBRANCH   4   5
ENDBRANCH   1   4
TORSDOF 3
ENDMDL
MODEL 19
REMARK VINA RESULT:      -3.2      9.504     10.401
REMARK  3 active torsions:
REMARK  status: ('A' for Active; 'I' for Inactive)
REMARK    1  A    between atoms: C_2  and  C_3 
REMARK    2  A    between atoms: C_3  and  C_4 
REMARK    3  A    between atoms: C_4  and  C_5 
ROOT
HETATM    1  C   LIG     1      15.284  32.501  16.344  1.00  0.00     0.006 C 
ENDROOT
BRANCH   1   2
HETATM    2  C   LIG     1      15.264  31.548  15.140  1.00  0.00    -0.004 C 
HETATM    3  C   LIG     1      14.134  30.531  15.262  1.00  0.00     0.005 C 
ENDBRANCH   1   2
BRANCH   1   4
HETATM    4  C   LIG     1      14.361  32.024  17.474  1.00  0.00     0.069 C 
BRANCH   4   5
HETATM    5  C   LIG     1      14.967  32.248  18.829  1.00  0.00     0.231 C 
HETATM    6  O   LIG     1      15.566  33.282  19.077  1.00  0.00    -0.307 OA
ENDBRANCH   4   5
ENDBRANCH   1   4
TORSDOF 3
ENDMDL
MODEL 20
REMARK VINA RESULT:      -3.1      9.155      9.988
REMARK  3 active torsions:
REMARK  status: ('A' for Active; 'I' for Inactive)
REMARK    1  A    between atoms: C_2  and  C_3 
REMARK    2  A    between atoms: C_3  and  C_4 
REMARK    3  A    between atoms: C_4  and  C_5 
ROOT
HETATM    1  C   LIG     1      15.076  33.194  16.684  1.00  0.00     0.006 C 
ENDROOT
BRANCH   1   2
HETATM    2  C   LIG     1      14.391  32.119  17.539  1.00  0.00    -0.004 C 
HETATM    3  C   LIG     1      14.961  32.096  18.955  1.00  0.00     0.005 C 
ENDBRANCH   1   2
BRANCH   1   4
HETATM    4  C   LIG     1      16.055  32.589  15.669  1.00  0.00     0.069 C 
BRANCH   4   5
HETATM    5  C   LIG     1      16.996  33.617  15.111  1.00  0.00     0.231 C 
HETATM    6  O   LIG     1      16.992  34.759  15.541  1.00  0.00    -0.307 OA
ENDBRANCH   4   5
ENDBRANCH   1   4
TORSDOF 3
ENDMDL
