MODEL 1
REMARK VINA RESULT:      -3.7      0.000      0.000
REMARK  0 active torsions:
REMARK  status: ('A' for Active; 'I' for Inactive)
ROOT
HETATM    1  C   LIG     1      18.334  36.298  26.880  1.00  0.00     0.299 C 
HETATM    2  C   LIG     1      18.279  34.931  26.180  1.00  0.00     0.299 C 
HETATM    3  N   LIG     1      17.148  34.860  25.248  1.00  0.00     0.086 N 
HETATM    4  C   LIG     1      17.214  35.951  24.269  1.00  0.00     0.299 C 
HETATM    5  C   LIG     1      17.269  37.319  24.968  1.00  0.00     0.299 C 
HETATM    6  N   LIG     1      18.400  37.390  25.901  1.00  0.00     0.086 N 
HETATM    7  H   LIG     1      16.257  34.948  25.791  1.00  0.00     0.315 HD
HETATM    8  H   LIG     1      19.291  37.301  25.357  1.00  0.00     0.315 HD
ENDROOT
TORSDOF 0
ENDMDL
MODEL 2
REMARK VINA RESULT:      -3.7      0.036      2.091
REMARK  0 active torsions:
REMARK  status: ('A' for Active; 'I' for Inactive)
ROOT
HETATM    1  C   LIG     1      18.296  34.921  26.174  1.00  0.00     0.299 C 
HETATM    2  C   LIG     1      18.383  36.284  26.879  1.00  0.00     0.299 C 
HETATM    3  N   LIG     1      18.447  37.380  25.905  1.00  0.00     0.086 N 
HETATM    4  C   LIG     1      17.298  37.330  24.993  1.00  0.00     0.299 C 
HETATM    5  C   LIG     1      17.211  35.968  24.288  1.00  0.00     0.299 C 
HETATM    6  N   LIG     1      17.147  34.872  25.261  1.00  0.00     0.086 N 
HETATM    7  H   LIG     1      19.327  37.282  25.345  1.00  0.00     0.315 HD
HETATM    8  H   LIG     1      16.268  34.970  25.822  1.00  0.00     0.315 HD
ENDROOT
TORSDOF 0
ENDMDL
MODEL 3
REMARK VINA RESULT:      -3.7      0.747      2.064
REMARK  0 active torsions:
REMARK  status: ('A' for Active; 'I' for Inactive)
ROOT
HETATM    1  C   LIG     1      17.617  37.686  24.902  1.00  0.00     0.299 C 
HETATM    2  C   LIG     1      16.816  36.593  24.177  1.00  0.00     0.299 C 
HETATM    3  N   LIG     1      17.379  35.263  24.439  1.00  0.00     0.086 N 
HETATM    4  C   LIG     1      17.440  35.002  25.883  1.00  0.00     0.299 C 
HETATM    5  C   LIG     1      18.241  36.095  26.608  1.00  0.00     0.299 C 
HETATM    6  N   LIG     1      17.679  37.425  26.346  1.00  0.00     0.086 N 
HETATM    7  H   LIG     1      18.350  35.225  24.049  1.00  0.00     0.315 HD
HETATM    8  H   LIG     1      16.707  37.463  26.736  1.00  0.00     0.315 HD
ENDROOT
TORSDOF 0
ENDMDL
MODEL 4
REMARK VINA RESULT:      -3.6      1.145      2.888
REMARK  0 active torsions:
REMARK  status: ('A' for Active; 'I' for Inactive)
ROOT
HETATM    1  C   LIG     1      16.636  37.191  24.016  1.00  0.00     0.299 C 
HETATM    2  C   LIG     1      17.418  38.169  24.908  1.00  0.00     0.299 C 
HETATM    3  N   LIG     1      17.548  37.649  26.274  1.00  0.00     0.086 N 
HETATM    4  C   LIG     1      18.177  36.322  26.266  1.00  0.00     0.299 C 
HETATM    5  C   LIG     1      17.395  35.345  25.374  1.00  0.00     0.299 C 
HETATM    6  N   LIG     1      17.265  35.865  24.008  1.00  0.00     0.086 N 
HETATM    7  H   LIG     1      16.593  37.565  26.696  1.00  0.00     0.315 HD
HETATM    8  H   LIG     1      18.221  35.948  23.587  1.00  0.00     0.315 HD
ENDROOT
TORSDOF 0
ENDMDL
MODEL 5
REMARK VINA RESULT:      -3.5      5.157      6.211
REMARK  0 active torsions:
REMARK  status: ('A' for Active; 'I' for Inactive)
ROOT
HETATM    1  C   LIG     1      19.027  37.512  19.309  1.00  0.00     0.299 C 
HETATM    2  C   LIG     1      19.983  38.661  19.667  1.00  0.00     0.299 C 
HETATM    3  N   LIG     1      19.301  39.688  20.463  1.00  0.00     0.086 N 
HETATM    4  C   LIG     1      18.709  39.099  21.671  1.00  0.00     0.299 C 
HETATM    5  C   LIG     1      17.753  37.950  21.313  1.00  0.00     0.299 C 
HETATM    6  N   LIG     1      18.435  36.923  20.517  1.00  0.00     0.086 N 
HETATM    7  H   LIG     1      18.536  40.110  19.885  1.00  0.00     0.315 HD
HETATM    8  H   LIG     1      19.199  36.501  21.095  1.00  0.00     0.315 HD
ENDROOT
TORSDOF 0
ENDMDL
MODEL 6
REMARK VINA RESULT:      -3.4      1.503      1.879
REMARK  0 active torsions:
REMARK  status: ('A' for Active; 'I' for Inactive)
ROOT
HETATM    1  C   LIG     1      17.299  38.160  25.623  1.00  0.00     0.299 C 
HETATM    2  C   LIG     1      18.076  36.834  25.612  1.00  0.00     0.299 C 
HETATM    3  N   LIG     1      17.346  35.801  24.868  1.00  0.00     0.086 N 
HETATM    4  C   LIG     1      17.055  36.253  23.502  1.00  0.00     0.299 C 
HETATM    5  C   LIG     1      16.279  37.579  23.513  1.00  0.00     0.299 C 
HETATM    6  N   LIG     1      17.009  38.613  24.257  1.00  0.00     0.086 N 
HETATM    7  H   LIG     1      16.441  35.608  25.359  1.00  0.00     0.315 HD
HETATM    8  H   LIG     1      17.914  38.806  23.767  1.00  0.00     0.315 HD
ENDROOT
TORSDOF 0
ENDMDL
MODEL 7
REMARK VINA RESULT:      -3.3      2.117      3.743
REMARK  0 active torsions:
REMARK  status: ('A' for Active; 'I' for Inactive)
ROOT
HETATM    1  C   LIG     1      16.262  36.940  22.548  1.00  0.00     0.299 C 
HETATM    2  C   LIG     1      16.730  38.403  22.591  1.00  0.00     0.299 C 
HETATM    3  N   LIG     1      16.771  38.905  23.970  1.00  0.00     0.086 N 
HETATM    4  C   LIG     1      17.626  38.052  24.806  1.00  0.00     0.299 C 
HETATM    5  C   LIG     1      17.158  36.589  24.763  1.00  0.00     0.299 C 
HETATM    6  N   LIG     1      17.117  36.088  23.384  1.00  0.00     0.086 N 
HETATM    7  H   LIG     1      15.800  38.894  24.361  1.00  0.00     0.315 HD
HETATM    8  H   LIG     1      18.088  36.098  22.993  1.00  0.00     0.315 HD
ENDROOT
TORSDOF 0
ENDMDL
MODEL 8
REMARK VINA RESULT:      -3.3      5.054      6.045
REMARK  0 active torsions:
REMARK  status: ('A' for Active; 'I' for Inactive)
ROOT
HETATM    1  C   LIG     1      17.824  37.436  21.343  1.00  0.00     0.299 C 
HETATM    2  C   LIG     1      18.011  38.961  21.386  1.00  0.00     0.299 C 
HETATM    3  N   LIG     1      19.367  39.338  20.970  1.00  0.00     0.086 N 
HETATM    4  C   LIG     1      19.666  38.806  19.635  1.00  0.00     0.299 C 
HETATM    5  C   LIG     1      19.479  37.282  19.593  1.00  0.00     0.299 C 
HETATM    6  N   LIG     1      18.123  36.904  20.008  1.00  0.00     0.086 N 
HETATM    7  H   LIG     1      20.052  38.939  21.653  1.00  0.00     0.315 HD
HETATM    8  H   LIG     1      17.438  37.304  19.325  1.00  0.00     0.315 HD
ENDROOT
TORSDOF 0
ENDMDL
MODEL 9
REMARK VINA RESULT:      -3.3      5.027      5.658
REMARK  0 active torsions:
REMARK  status: ('A' for Active; 'I' for Inactive)
ROOT
HETATM    1  C   LIG     1      17.947  38.937  21.432  1.00  0.00     0.299 C 
HETATM    2  C   LIG     1      17.802  37.410  21.349  1.00  0.00     0.299 C 
HETATM    3  N   LIG     1      18.126  36.920  20.004  1.00  0.00     0.086 N 
HETATM    4  C   LIG     1      19.475  37.345  19.610  1.00  0.00     0.299 C 
HETATM    5  C   LIG     1      19.620  38.873  19.692  1.00  0.00     0.299 C 
HETATM    6  N   LIG     1      19.295  39.362  21.037  1.00  0.00     0.086 N 
HETATM    7  H   LIG     1      17.436  37.319  19.325  1.00  0.00     0.315 HD
HETATM    8  H   LIG     1      19.986  38.964  21.717  1.00  0.00     0.315 HD
ENDROOT
TORSDOF 0
ENDMDL
MODEL 10
REMARK VINA RESULT:      -3.2      7.628      8.604
REMARK  0 active torsions:
REMARK  status: ('A' for Active; 'I' for Inactive)
ROOT
HETATM    1  C   LIG     1      15.240  33.358  19.475  1.00  0.00     0.299 C 
HETATM    2  C   LIG     1      15.048  31.833  19.489  1.00  0.00     0.299 C 
HETATM    3  N   LIG     1      13.995  31.424  18.552  1.00  0.00     0.086 N 
HETATM    4  C   LIG     1      14.291  31.907  17.197  1.00  0.00     0.299 C 
HETATM    5  C   LIG     1      14.482  33.432  17.184  1.00  0.00     0.299 C 
HETATM    6  N   LIG     1      15.535  33.840  18.120  1.00  0.00     0.086 N 
HETATM    7  H   LIG     1      13.086  31.838  18.866  1.00  0.00     0.315 HD
HETATM    8  H   LIG     1      16.445  33.427  17.807  1.00  0.00     0.315 HD
ENDROOT
TORSDOF 0
ENDMDL
MODEL 11
REMARK VINA RESULT:      -3.1      3.615      4.545
REMARK  0 active torsions:
REMARK  status: ('A' for Active; 'I' for Inactive)
ROOT
HETATM    1  C   LIG     1      17.980  38.083  21.176  1.00  0.00     0.299 C 
HETATM    2  C   LIG     1      18.060  38.973  22.427  1.00  0.00     0.299 C 
HETATM    3  N   LIG     1      16.751  39.085  23.080  1.00  0.00     0.086 N 
HETATM    4  C   LIG     1      16.222  37.756  23.411  1.00  0.00     0.299 C 
HETATM    5  C   LIG     1      16.141  36.866  22.161  1.00  0.00     0.299 C 
HETATM    6  N   LIG     1      17.451  36.754  21.507  1.00  0.00     0.086 N 
HETATM    7  H   LIG     1      16.086  39.558  22.424  1.00  0.00     0.315 HD
HETATM    8  H   LIG     1      18.116  36.281  22.163  1.00  0.00     0.315 HD
ENDROOT
TORSDOF 0
ENDMDL
MODEL 12
REMARK VINA RESULT:      -3.1      7.363      8.586
REMARK  0 active torsions:
REMARK  status: ('A' for Active; 'I' for Inactive)
ROOT
HETATM    1  C   LIG     1      15.090  33.138  17.414  1.00  0.00     0.299 C 
HETATM    2  C   LIG     1      13.939  32.135  17.587  1.00  0.00     0.299 C 
HETATM    3  N   LIG     1      14.227  31.180  18.664  1.00  0.00     0.086 N 
HETATM    4  C   LIG     1      14.505  31.886  19.921  1.00  0.00     0.299 C 
HETATM    5  C   LIG     1      15.657  32.889  19.748  1.00  0.00     0.299 C 
HETATM    6  N   LIG     1      15.368  33.843  18.671  1.00  0.00     0.086 N 
HETATM    7  H   LIG     1      15.070  30.618  18.400  1.00  0.00     0.315 HD
HETATM    8  H   LIG     1      14.525  34.405  18.936  1.00  0.00     0.315 HD
ENDROOT
TORSDOF 0
ENDMDL
MODEL 13
REMARK VINA RESULT:      -3.0      3.939      4.371
REMARK  0 active torsions:
REMARK  status: ('A' for Active; 'I' for Inactive)
ROOT
HETATM    1  C   LIG     1      17.153  36.529  21.705  1.00  0.00     0.299 C 
HETATM    2  C   LIG     1      15.844  37.007  22.354  1.00  0.00     0.299 C 
HETATM    3  N   LIG     1      16.101  38.043  23.360  1.00  0.00     0.086 N 
HETATM    4  C   LIG     1      16.839  39.167  22.770  1.00  0.00     0.299 C 
HETATM    5  C   LIG     1      18.148  38.689  22.121  1.00  0.00     0.299 C 
HETATM    6  N   LIG     1      17.890  37.653  21.115  1.00  0.00     0.086 N 
HETATM    7  H   LIG     1      16.678  37.629  24.131  1.00  0.00     0.315 HD
HETATM    8  H   LIG     1      17.314  38.067  20.344  1.00  0.00     0.315 HD
ENDROOT
TORSDOF 0
ENDMDL
MODEL 14
REMARK VINA RESULT:      -3.0      2.027      3.049
REMARK  0 active torsions:
REMARK  status: ('A' for Active; 'I' for Inactive)
ROOT
HETATM    1  C   LIG     1      17.527  38.327  24.637  1.00  0.00     0.299 C 
HETATM    2  C   LIG     1      17.034  38.573  23.203  1.00  0.00     0.299 C 
HETATM    3  N   LIG     1      17.340  37.429  22.335  1.00  0.00     0.086 N 
HETATM    4  C   LIG     1      16.768  36.194  22.885  1.00  0.00     0.299 C 
HETATM    5  C   LIG     1      17.260  35.948  24.320  1.00  0.00     0.299 C 
HETATM    6  N   LIG     1      16.954  37.092  25.187  1.00  0.00     0.086 N 
HETATM    7  H   LIG     1      18.380  37.321  22.275  1.00  0.00     0.315 HD
HETATM    8  H   LIG     1      15.914  37.200  25.247  1.00  0.00     0.315 HD
ENDROOT
TORSDOF 0
ENDMDL
MODEL 15
REMARK VINA RESULT:      -3.0     10.744     11.790
REMARK  0 active torsions:
REMARK  status: ('A' for Active; 'I' for Inactive)
ROOT
HETATM    1  C   LIG     1      13.106  30.192  15.130  1.00  0.00     0.299 C 
HETATM    2  C   LIG     1      14.628  30.374  15.024  1.00  0.00     0.299 C 
HETATM    3  N   LIG     1      15.024  31.737  15.397  1.00  0.00     0.086 N 
HETATM    4  C   LIG     1      14.546  32.065  16.746  1.00  0.00     0.299 C 
HETATM    5  C   LIG     1      13.024  31.883  16.852  1.00  0.00     0.299 C 
HETATM    6  N   LIG     1      12.628  30.519  16.479  1.00  0.00     0.086 N 
HETATM    7  H   LIG     1      14.599  32.410  14.716  1.00  0.00     0.315 HD
HETATM    8  H   LIG     1      13.053  29.847  17.160  1.00  0.00     0.315 HD
ENDROOT
TORSDOF 0
ENDMDL
MODEL 16
REMARK VINA RESULT:      -3.0      2.702      3.203
REMARK  0 active torsions:
REMARK  status: ('A' for Active; 'I' for Inactive)
ROOT
HETATM    1  C   LIG     1      16.828  37.360  24.279  1.00  0.00     0.299 C 
HETATM    2  C   LIG     1      16.942  36.212  23.264  1.00  0.00     0.299 C 
HETATM    3  N   LIG     1      16.693  36.688  21.898  1.00  0.00     0.086 N 
HETATM    4  C   LIG     1      17.606  37.787  21.558  1.00  0.00     0.299 C 
HETATM    5  C   LIG     1      17.492  38.935  22.573  1.00  0.00     0.299 C 
HETATM    6  N   LIG     1      17.741  38.459  23.939  1.00  0.00     0.086 N 
HETATM    7  H   LIG     1      15.708  37.039  21.837  1.00  0.00     0.315 HD
HETATM    8  H   LIG     1      18.726  38.109  24.000  1.00  0.00     0.315 HD
ENDROOT
TORSDOF 0
ENDMDL
MODEL 17
REMARK VINA RESULT:      -3.0     11.011     11.978
REMARK  0 active torsions:
REMARK  status: ('A' for Active; 'I' for Inactive)
ROOT
HETATM    1  C   LIG     1      15.757  32.188  15.276  1.00  0.00     0.299 C 
HETATM    2  C   LIG     1      15.819  31.595  13.859  1.00  0.00     0.299 C 
HETATM    3  N   LIG     1      16.267  32.597  12.886  1.00  0.00     0.086 N 
HETATM    4  C   LIG     1      17.565  33.158  13.280  1.00  0.00     0.299 C 
HETATM    5  C   LIG     1      17.504  33.751  14.697  1.00  0.00     0.299 C 
HETATM    6  N   LIG     1      17.055  32.749  15.670  1.00  0.00     0.086 N 
HETATM    7  H   LIG     1      15.563  33.372  12.850  1.00  0.00     0.315 HD
HETATM    8  H   LIG     1      17.760  31.975  15.705  1.00  0.00     0.315 HD
ENDROOT
TORSDOF 0
ENDMDL
MODEL 18
REMARK VINA RESULT:      -3.0      9.500     10.716
REMARK  0 active torsions:
REMARK  status: ('A' for Active; 'I' for Inactive)
ROOT
HETATM    1  C   LIG     1      15.420  32.928  16.198  1.00  0.00     0.299 C 
HETATM    2  C   LIG     1      14.889  32.696  17.621  1.00  0.00     0.299 C 
HETATM    3  N   LIG     1      13.567  32.060  17.594  1.00  0.00     0.086 N 
HETATM    4  C   LIG     1      13.611  30.804  16.836  1.00  0.00     0.299 C 
HETATM    5  C   LIG     1      14.142  31.036  15.412  1.00  0.00     0.299 C 
HETATM    6  N   LIG     1      15.465  31.672  15.439  1.00  0.00     0.086 N 
HETATM    7  H   LIG     1      12.889  32.710  17.130  1.00  0.00     0.315 HD
HETATM    8  H   LIG     1      16.142  31.022  15.904  1.00  0.00     0.315 HD
ENDROOT
TORSDOF 0
ENDMDL
MODEL 19
REMARK VINA RESULT:      -3.0      9.531     10.708
REMARK  0 active torsions:
REMARK  status: ('A' for Active; 'I' for Inactive)
ROOT
HETATM    1  C   LIG     1      14.821  32.678  17.643  1.00  0.00     0.299 C 
HETATM    2  C   LIG     1      15.398  32.946  16.244  1.00  0.00     0.299 C 
HETATM    3  N   LIG     1      15.495  31.705  15.466  1.00  0.00     0.086 N 
HETATM    4  C   LIG     1      14.188  31.044  15.380  1.00  0.00     0.299 C 
HETATM    5  C   LIG     1      13.611  30.776  16.779  1.00  0.00     0.299 C 
HETATM    6  N   LIG     1      13.514  32.017  17.557  1.00  0.00     0.086 N 
HETATM    7  H   LIG     1      16.168  31.060  15.944  1.00  0.00     0.315 HD
HETATM    8  H   LIG     1      12.841  32.662  17.080  1.00  0.00     0.315 HD
ENDROOT
TORSDOF 0
ENDMDL
MODEL 20
REMARK VINA RESULT:      -2.9      3.153      4.264
REMARK  0 active torsions:
REMARK  status: ('A' for Active; 'I' for Inactive)
ROOT
HETATM    1  C   LIG     1      16.860  37.076  23.461  1.00  0.00     0.299 C 
HETATM    2  C   LIG     1      17.294  38.548  23.536  1.00  0.00     0.299 C 
HETATM    3  N   LIG     1      18.405  38.819  22.615  1.00  0.00     0.086 N 
HETATM    4  C   LIG     1      18.042  38.445  21.243  1.00  0.00     0.299 C 
HETATM    5  C   LIG     1      17.608  36.973  21.167  1.00  0.00     0.299 C 
HETATM    6  N   LIG     1      16.498  36.702  22.088  1.00  0.00     0.086 N 
HETATM    7  H   LIG     1      19.234  38.252  22.911  1.00  0.00     0.315 HD
HETATM    8  H   LIG     1      15.668  37.270  21.793  1.00  0.00     0.315 HD
ENDROOT
TORSDOF 0
ENDMDL
