REMARK  4 active torsions:
REMARK  status: ('A' for Active; 'I' for Inactive)
REMARK    1  A    between atoms: C_2  and  C_3 
REMARK    2  A    between atoms: C_3  and  C_4 
REMARK    3  A    between atoms: C_4  and  C_5 
REMARK    4  A    between atoms: C_5  and  C_6 
ROOT
HETATM    1  C   LIG     1       1.323  -0.031   0.886  1.00  0.00     0.077 C 
ENDROOT
BRANCH   1   2
HETATM    2  C   LIG     1       2.371   0.862   0.280  1.00  0.00     0.123 C 
HETATM    3  C   LIG     1       3.579   0.273  -0.383  1.00  0.00     0.091 C 
HETATM    4  O   LIG     1       2.243   2.075   0.339  1.00  0.00    -0.298 OA
ENDBRANCH   1   2
BRANCH   1   5
HETATM    5  C   LIG     1      -0.003   0.091   0.126  1.00  0.00     0.007 C 
BRANCH   5   6
HETATM    6  C   LIG     1      -1.073  -0.825   0.737  1.00  0.00     0.000 C 
BRANCH   6   7
HETATM    7  C   LIG     1      -2.382  -0.823  -0.069  1.00  0.00    -0.005 C 
HETATM    8  C   LIG     1      -3.150   0.493   0.054  1.00  0.00     0.005 C 
ENDBRANCH   6   7
ENDBRANCH   5   6
ENDBRANCH   1   5
TORSDOF 4
