MODEL 1
REMARK VINA RESULT:      -4.5      0.000      0.000
REMARK  3 active torsions:
REMARK  status: ('A' for Active; 'I' for Inactive)
REMARK    1  A    between atoms: C_2  and  C_3 
REMARK    2  A    between atoms: C_3  and  C_4 
REMARK    3  A    between atoms: C_4  and  C_5 
ROOT
HETATM    1  C   LIG     1      18.587  37.125  25.874  1.00  0.00    -0.000 C 
ENDROOT
BRANCH   1   2
HETATM    2  C   LIG     1      18.222  35.881  26.692  1.00  0.00    -0.005 C 
HETATM    3  C   LIG     1      17.496  34.849  25.834  1.00  0.00     0.005 C 
ENDBRANCH   1   2
BRANCH   1   4
HETATM    4  C   LIG     1      17.326  37.844  25.376  1.00  0.00    -0.000 C 
BRANCH   4   5
HETATM    5  C   LIG     1      17.425  38.255  23.898  1.00  0.00    -0.005 C 
HETATM    6  C   LIG     1      16.797  37.229  22.955  1.00  0.00     0.005 C 
ENDBRANCH   4   5
ENDBRANCH   1   4
TORSDOF 3
ENDMDL
MODEL 2
REMARK VINA RESULT:      -4.4      1.303      2.026
REMARK  3 active torsions:
REMARK  status: ('A' for Active; 'I' for Inactive)
REMARK    1  A    between atoms: C_2  and  C_3 
REMARK    2  A    between atoms: C_3  and  C_4 
REMARK    3  A    between atoms: C_4  and  C_5 
ROOT
HETATM    1  C   LIG     1      17.351  34.958  24.925  1.00  0.00    -0.000 C 
ENDROOT
BRANCH   1   2
HETATM    2  C   LIG     1      18.122  34.903  26.249  1.00  0.00    -0.005 C 
HETATM    3  C   LIG     1      18.451  36.304  26.755  1.00  0.00     0.005 C 
ENDBRANCH   1   2
BRANCH   1   4
HETATM    4  C   LIG     1      17.249  36.400  24.409  1.00  0.00    -0.000 C 
BRANCH   4   5
HETATM    5  C   LIG     1      16.813  36.471  22.936  1.00  0.00    -0.005 C 
HETATM    6  C   LIG     1      17.010  35.148  22.197  1.00  0.00     0.005 C 
ENDBRANCH   4   5
ENDBRANCH   1   4
TORSDOF 3
ENDMDL
MODEL 3
REMARK VINA RESULT:      -4.4      0.308      3.223
REMARK  3 active torsions:
REMARK  status: ('A' for Active; 'I' for Inactive)
REMARK    1  A    between atoms: C_2  and  C_3 
REMARK    2  A    between atoms: C_3  and  C_4 
REMARK    3  A    between atoms: C_4  and  C_5 
ROOT
HETATM    1  C   LIG     1      17.378  37.778  25.441  1.00  0.00    -0.000 C 
ENDROOT
BRANCH   1   2
HETATM    2  C   LIG     1      17.641  38.212  23.994  1.00  0.00    -0.005 C 
HETATM    3  C   LIG     1      16.530  37.735  23.063  1.00  0.00     0.005 C 
ENDBRANCH   1   2
BRANCH   1   4
HETATM    4  C   LIG     1      18.600  37.059  26.029  1.00  0.00    -0.000 C 
BRANCH   4   5
HETATM    5  C   LIG     1      18.260  35.659  26.566  1.00  0.00    -0.005 C 
HETATM    6  C   LIG     1      17.424  34.837  25.585  1.00  0.00     0.005 C 
ENDBRANCH   4   5
ENDBRANCH   1   4
TORSDOF 3
ENDMDL
MODEL 4
REMARK VINA RESULT:      -4.2      0.789      3.539
REMARK  3 active torsions:
REMARK  status: ('A' for Active; 'I' for Inactive)
REMARK    1  A    between atoms: C_2  and  C_3 
REMARK    2  A    between atoms: C_3  and  C_4 
REMARK    3  A    between atoms: C_4  and  C_5 
ROOT
HETATM    1  C   LIG     1      16.794  37.454  24.720  1.00  0.00    -0.000 C 
ENDROOT
BRANCH   1   2
HETATM    2  C   LIG     1      16.862  37.496  23.189  1.00  0.00    -0.005 C 
HETATM    3  C   LIG     1      17.444  38.818  22.698  1.00  0.00     0.005 C 
ENDBRANCH   1   2
BRANCH   1   4
HETATM    4  C   LIG     1      18.200  37.362  25.330  1.00  0.00    -0.000 C 
BRANCH   4   5
HETATM    5  C   LIG     1      18.275  36.355  26.489  1.00  0.00    -0.005 C 
HETATM    6  C   LIG     1      17.887  34.937  26.067  1.00  0.00     0.005 C 
ENDBRANCH   4   5
ENDBRANCH   1   4
TORSDOF 3
ENDMDL
MODEL 5
REMARK VINA RESULT:      -4.0      1.186      2.504
REMARK  3 active torsions:
REMARK  status: ('A' for Active; 'I' for Inactive)
REMARK    1  A    between atoms: C_2  and  C_3 
REMARK    2  A    between atoms: C_3  and  C_4 
REMARK    3  A    between atoms: C_4  and  C_5 
ROOT
HETATM    1  C   LIG     1      16.582  37.599  24.083  1.00  0.00    -0.000 C 
ENDROOT
BRANCH   1   2
HETATM    2  C   LIG     1      17.488  38.061  25.231  1.00  0.00    -0.005 C 
HETATM    3  C   LIG     1      18.221  36.882  25.864  1.00  0.00     0.005 C 
ENDBRANCH   1   2
BRANCH   1   4
HETATM    4  C   LIG     1      17.253  37.840  22.724  1.00  0.00    -0.000 C 
BRANCH   4   5
HETATM    5  C   LIG     1      17.132  36.630  21.783  1.00  0.00    -0.005 C 
HETATM    6  C   LIG     1      16.892  35.320  22.533  1.00  0.00     0.005 C 
ENDBRANCH   4   5
ENDBRANCH   1   4
TORSDOF 3
ENDMDL
MODEL 6
REMARK VINA RESULT:      -4.0      1.438      2.358
REMARK  3 active torsions:
REMARK  status: ('A' for Active; 'I' for Inactive)
REMARK    1  A    between atoms: C_2  and  C_3 
REMARK    2  A    between atoms: C_3  and  C_4 
REMARK    3  A    between atoms: C_4  and  C_5 
ROOT
HETATM    1  C   LIG     1      16.815  37.310  24.363  1.00  0.00    -0.000 C 
ENDROOT
BRANCH   1   2
HETATM    2  C   LIG     1      18.041  37.745  25.176  1.00  0.00    -0.005 C 
HETATM    3  C   LIG     1      18.418  36.691  26.213  1.00  0.00     0.005 C 
ENDBRANCH   1   2
BRANCH   1   4
HETATM    4  C   LIG     1      17.062  37.493  22.859  1.00  0.00    -0.000 C 
BRANCH   4   5
HETATM    5  C   LIG     1      17.229  38.969  22.463  1.00  0.00    -0.005 C 
HETATM    6  C   LIG     1      18.467  39.214  21.600  1.00  0.00     0.005 C 
ENDBRANCH   4   5
ENDBRANCH   1   4
TORSDOF 3
ENDMDL
MODEL 7
REMARK VINA RESULT:      -3.9      2.546      4.767
REMARK  3 active torsions:
REMARK  status: ('A' for Active; 'I' for Inactive)
REMARK    1  A    between atoms: C_2  and  C_3 
REMARK    2  A    between atoms: C_3  and  C_4 
REMARK    3  A    between atoms: C_4  and  C_5 
ROOT
HETATM    1  C   LIG     1      17.855  38.292  21.532  1.00  0.00    -0.000 C 
ENDROOT
BRANCH   1   2
HETATM    2  C   LIG     1      18.774  39.424  21.059  1.00  0.00    -0.005 C 
HETATM    3  C   LIG     1      19.727  38.942  19.968  1.00  0.00     0.005 C 
ENDBRANCH   1   2
BRANCH   1   4
HETATM    4  C   LIG     1      16.938  38.769  22.668  1.00  0.00    -0.000 C 
BRANCH   4   5
HETATM    5  C   LIG     1      16.760  37.709  23.767  1.00  0.00    -0.005 C 
HETATM    6  C   LIG     1      17.357  38.140  25.106  1.00  0.00     0.005 C 
ENDBRANCH   4   5
ENDBRANCH   1   4
TORSDOF 3
ENDMDL
MODEL 8
REMARK VINA RESULT:      -3.9      3.624      5.498
REMARK  3 active torsions:
REMARK  status: ('A' for Active; 'I' for Inactive)
REMARK    1  A    between atoms: C_2  and  C_3 
REMARK    2  A    between atoms: C_3  and  C_4 
REMARK    3  A    between atoms: C_4  and  C_5 
ROOT
HETATM    1  C   LIG     1      18.180  38.363  21.076  1.00  0.00    -0.000 C 
ENDROOT
BRANCH   1   2
HETATM    2  C   LIG     1      19.096  39.421  20.450  1.00  0.00    -0.005 C 
HETATM    3  C   LIG     1      20.180  38.776  19.592  1.00  0.00     0.005 C 
ENDBRANCH   1   2
BRANCH   1   4
HETATM    4  C   LIG     1      18.314  37.020  20.345  1.00  0.00    -0.000 C 
BRANCH   4   5
HETATM    5  C   LIG     1      17.322  35.965  20.861  1.00  0.00    -0.005 C 
HETATM    6  C   LIG     1      16.656  36.372  22.175  1.00  0.00     0.005 C 
ENDBRANCH   4   5
ENDBRANCH   1   4
TORSDOF 3
ENDMDL
MODEL 9
REMARK VINA RESULT:      -3.9      3.242      4.566
REMARK  3 active torsions:
REMARK  status: ('A' for Active; 'I' for Inactive)
REMARK    1  A    between atoms: C_2  and  C_3 
REMARK    2  A    between atoms: C_3  and  C_4 
REMARK    3  A    between atoms: C_4  and  C_5 
ROOT
HETATM    1  C   LIG     1      17.618  37.555  21.433  1.00  0.00    -0.000 C 
ENDROOT
BRANCH   1   2
HETATM    2  C   LIG     1      16.891  36.725  22.499  1.00  0.00    -0.005 C 
HETATM    3  C   LIG     1      16.958  35.235  22.180  1.00  0.00     0.005 C 
ENDBRANCH   1   2
BRANCH   1   4
HETATM    4  C   LIG     1      18.156  36.656  20.312  1.00  0.00    -0.000 C 
BRANCH   4   5
HETATM    5  C   LIG     1      19.247  37.344  19.475  1.00  0.00    -0.005 C 
HETATM    6  C   LIG     1      19.562  38.758  19.964  1.00  0.00     0.005 C 
ENDBRANCH   4   5
ENDBRANCH   1   4
TORSDOF 3
ENDMDL
MODEL 10
REMARK VINA RESULT:      -3.8      2.714      4.585
REMARK  3 active torsions:
REMARK  status: ('A' for Active; 'I' for Inactive)
REMARK    1  A    between atoms: C_2  and  C_3 
REMARK    2  A    between atoms: C_3  and  C_4 
REMARK    3  A    between atoms: C_4  and  C_5 
ROOT
HETATM    1  C   LIG     1      16.992  37.792  22.300  1.00  0.00    -0.000 C 
ENDROOT
BRANCH   1   2
HETATM    2  C   LIG     1      17.889  39.018  22.090  1.00  0.00    -0.005 C 
HETATM    3  C   LIG     1      18.593  38.961  20.738  1.00  0.00     0.005 C 
ENDBRANCH   1   2
BRANCH   1   4
HETATM    4  C   LIG     1      17.362  36.667  21.323  1.00  0.00    -0.000 C 
BRANCH   4   5
HETATM    5  C   LIG     1      17.047  35.271  21.883  1.00  0.00    -0.005 C 
HETATM    6  C   LIG     1      17.034  35.236  23.411  1.00  0.00     0.005 C 
ENDBRANCH   4   5
ENDBRANCH   1   4
TORSDOF 3
ENDMDL
MODEL 11
REMARK VINA RESULT:      -3.7      8.539     10.410
REMARK  3 active torsions:
REMARK  status: ('A' for Active; 'I' for Inactive)
REMARK    1  A    between atoms: C_2  and  C_3 
REMARK    2  A    between atoms: C_3  and  C_4 
REMARK    3  A    between atoms: C_4  and  C_5 
ROOT
HETATM    1  C   LIG     1      13.408  32.016  17.023  1.00  0.00    -0.000 C 
ENDROOT
BRANCH   1   2
HETATM    2  C   LIG     1      13.133  30.725  16.243  1.00  0.00    -0.005 C 
HETATM    3  C   LIG     1      14.189  30.493  15.168  1.00  0.00     0.005 C 
ENDBRANCH   1   2
BRANCH   1   4
HETATM    4  C   LIG     1      14.894  32.126  17.394  1.00  0.00    -0.000 C 
BRANCH   4   5
HETATM    5  C   LIG     1      15.107  32.529  18.862  1.00  0.00    -0.005 C 
HETATM    6  C   LIG     1      14.835  31.382  19.836  1.00  0.00     0.005 C 
ENDBRANCH   4   5
ENDBRANCH   1   4
TORSDOF 3
ENDMDL
MODEL 12
REMARK VINA RESULT:      -3.6     10.823     12.586
REMARK  3 active torsions:
REMARK  status: ('A' for Active; 'I' for Inactive)
REMARK    1  A    between atoms: C_2  and  C_3 
REMARK    2  A    between atoms: C_3  and  C_4 
REMARK    3  A    between atoms: C_4  and  C_5 
ROOT
HETATM    1  C   LIG     1      13.335  30.308  15.235  1.00  0.00    -0.000 C 
ENDROOT
BRANCH   1   2
HETATM    2  C   LIG     1      12.859  31.022  16.506  1.00  0.00    -0.005 C 
HETATM    3  C   LIG     1      13.952  31.919  17.078  1.00  0.00     0.005 C 
ENDBRANCH   1   2
BRANCH   1   4
HETATM    4  C   LIG     1      14.782  30.695  14.897  1.00  0.00    -0.000 C 
BRANCH   4   5
HETATM    5  C   LIG     1      15.312  29.968  13.651  1.00  0.00    -0.005 C 
HETATM    6  C   LIG     1      15.238  28.447  13.778  1.00  0.00     0.005 C 
ENDBRANCH   4   5
ENDBRANCH   1   4
TORSDOF 3
ENDMDL
MODEL 13
REMARK VINA RESULT:      -3.6      1.862      4.169
REMARK  3 active torsions:
REMARK  status: ('A' for Active; 'I' for Inactive)
REMARK    1  A    between atoms: C_2  and  C_3 
REMARK    2  A    between atoms: C_3  and  C_4 
REMARK    3  A    between atoms: C_4  and  C_5 
ROOT
HETATM    1  C   LIG     1      16.679  36.689  22.019  1.00  0.00    -0.000 C 
ENDROOT
BRANCH   1   2
HETATM    2  C   LIG     1      17.241  35.962  20.791  1.00  0.00    -0.005 C 
HETATM    3  C   LIG     1      18.363  36.765  20.140  1.00  0.00     0.005 C 
ENDBRANCH   1   2
BRANCH   1   4
HETATM    4  C   LIG     1      17.381  38.038  22.226  1.00  0.00    -0.000 C 
BRANCH   4   5
HETATM    5  C   LIG     1      17.630  38.352  23.711  1.00  0.00    -0.005 C 
HETATM    6  C   LIG     1      17.093  37.265  24.643  1.00  0.00     0.005 C 
ENDBRANCH   4   5
ENDBRANCH   1   4
TORSDOF 3
ENDMDL
MODEL 14
REMARK VINA RESULT:      -3.6     10.077     11.932
REMARK  3 active torsions:
REMARK  status: ('A' for Active; 'I' for Inactive)
REMARK    1  A    between atoms: C_2  and  C_3 
REMARK    2  A    between atoms: C_3  and  C_4 
REMARK    3  A    between atoms: C_4  and  C_5 
ROOT
HETATM    1  C   LIG     1      13.254  30.225  15.198  1.00  0.00    -0.000 C 
ENDROOT
BRANCH   1   2
HETATM    2  C   LIG     1      14.624  30.533  14.582  1.00  0.00    -0.005 C 
HETATM    3  C   LIG     1      15.250  29.282  13.973  1.00  0.00     0.005 C 
ENDBRANCH   1   2
BRANCH   1   4
HETATM    4  C   LIG     1      12.998  31.101  16.433  1.00  0.00    -0.000 C 
BRANCH   4   5
HETATM    5  C   LIG     1      14.216  31.959  16.811  1.00  0.00    -0.005 C 
HETATM    6  C   LIG     1      14.528  31.917  18.307  1.00  0.00     0.005 C 
ENDBRANCH   4   5
ENDBRANCH   1   4
TORSDOF 3
ENDMDL
MODEL 15
REMARK VINA RESULT:      -3.6      3.260      4.159
REMARK  3 active torsions:
REMARK  status: ('A' for Active; 'I' for Inactive)
REMARK    1  A    between atoms: C_2  and  C_3 
REMARK    2  A    between atoms: C_3  and  C_4 
REMARK    3  A    between atoms: C_4  and  C_5 
ROOT
HETATM    1  C   LIG     1      17.046  35.752  22.397  1.00  0.00    -0.000 C 
ENDROOT
BRANCH   1   2
HETATM    2  C   LIG     1      15.952  34.844  21.822  1.00  0.00    -0.005 C 
HETATM    3  C   LIG     1      14.839  35.662  21.174  1.00  0.00     0.005 C 
ENDBRANCH   1   2
BRANCH   1   4
HETATM    4  C   LIG     1      17.332  36.930  21.454  1.00  0.00    -0.000 C 
BRANCH   4   5
HETATM    5  C   LIG     1      17.537  38.253  22.208  1.00  0.00    -0.005 C 
HETATM    6  C   LIG     1      18.429  39.235  21.448  1.00  0.00     0.005 C 
ENDBRANCH   4   5
ENDBRANCH   1   4
TORSDOF 3
ENDMDL
MODEL 16
REMARK VINA RESULT:      -3.6     11.120     12.515
REMARK  3 active torsions:
REMARK  status: ('A' for Active; 'I' for Inactive)
REMARK    1  A    between atoms: C_2  and  C_3 
REMARK    2  A    between atoms: C_3  and  C_4 
REMARK    3  A    between atoms: C_4  and  C_5 
ROOT
HETATM    1  C   LIG     1      14.987  30.040  14.682  1.00  0.00    -0.000 C 
ENDROOT
BRANCH   1   2
HETATM    2  C   LIG     1      13.463  30.023  14.855  1.00  0.00    -0.005 C 
HETATM    3  C   LIG     1      13.045  30.737  16.136  1.00  0.00     0.005 C 
ENDBRANCH   1   2
BRANCH   1   4
HETATM    4  C   LIG     1      15.387  30.810  13.415  1.00  0.00    -0.000 C 
BRANCH   4   5
HETATM    5  C   LIG     1      16.103  32.133  13.730  1.00  0.00    -0.005 C 
HETATM    6  C   LIG     1      16.453  32.278  15.211  1.00  0.00     0.005 C 
ENDBRANCH   4   5
ENDBRANCH   1   4
TORSDOF 3
ENDMDL
MODEL 17
REMARK VINA RESULT:      -3.4      3.140      4.271
REMARK  3 active torsions:
REMARK  status: ('A' for Active; 'I' for Inactive)
REMARK    1  A    between atoms: C_2  and  C_3 
REMARK    2  A    between atoms: C_3  and  C_4 
REMARK    3  A    between atoms: C_4  and  C_5 
ROOT
HETATM    1  C   LIG     1      16.120  37.570  22.898  1.00  0.00    -0.000 C 
ENDROOT
BRANCH   1   2
HETATM    2  C   LIG     1      16.733  38.877  22.380  1.00  0.00    -0.005 C 
HETATM    3  C   LIG     1      18.256  38.842  22.460  1.00  0.00     0.005 C 
ENDBRANCH   1   2
BRANCH   1   4
HETATM    4  C   LIG     1      16.976  36.363  22.490  1.00  0.00    -0.000 C 
BRANCH   4   5
HETATM    5  C   LIG     1      16.697  35.900  21.051  1.00  0.00    -0.005 C 
HETATM    6  C   LIG     1      16.055  34.514  20.990  1.00  0.00     0.005 C 
ENDBRANCH   4   5
ENDBRANCH   1   4
TORSDOF 3
ENDMDL
MODEL 18
REMARK VINA RESULT:      -3.3     11.837     12.432
REMARK  3 active torsions:
REMARK  status: ('A' for Active; 'I' for Inactive)
REMARK    1  A    between atoms: C_2  and  C_3 
REMARK    2  A    between atoms: C_3  and  C_4 
REMARK    3  A    between atoms: C_4  and  C_5 
ROOT
HETATM    1  C   LIG     1      29.592  38.146  20.675  1.00  0.00    -0.000 C 
ENDROOT
BRANCH   1   2
HETATM    2  C   LIG     1      30.394  38.218  21.981  1.00  0.00    -0.005 C 
HETATM    3  C   LIG     1      30.149  39.537  22.707  1.00  0.00     0.005 C 
ENDBRANCH   1   2
BRANCH   1   4
HETATM    4  C   LIG     1      28.767  39.423  20.467  1.00  0.00    -0.000 C 
BRANCH   4   5
HETATM    5  C   LIG     1      27.710  39.270  19.361  1.00  0.00    -0.005 C 
HETATM    6  C   LIG     1      27.310  37.814  19.123  1.00  0.00     0.005 C 
ENDBRANCH   4   5
ENDBRANCH   1   4
TORSDOF 3
ENDMDL
MODEL 19
REMARK VINA RESULT:      -3.3      8.616     10.236
REMARK  3 active torsions:
REMARK  status: ('A' for Active; 'I' for Inactive)
REMARK    1  A    between atoms: C_2  and  C_3 
REMARK    2  A    between atoms: C_3  and  C_4 
REMARK    3  A    between atoms: C_4  and  C_5 
ROOT
HETATM    1  C   LIG     1      14.288  31.636  18.097  1.00  0.00    -0.000 C 
ENDROOT
BRANCH   1   2
HETATM    2  C   LIG     1      15.282  32.712  18.551  1.00  0.00    -0.005 C 
HETATM    3  C   LIG     1      15.341  32.802  20.073  1.00  0.00     0.005 C 
ENDBRANCH   1   2
BRANCH   1   4
HETATM    4  C   LIG     1      14.040  31.721  16.584  1.00  0.00    -0.000 C 
BRANCH   4   5
HETATM    5  C   LIG     1      12.969  30.729  16.105  1.00  0.00    -0.005 C 
HETATM    6  C   LIG     1      13.446  29.860  14.941  1.00  0.00     0.005 C 
ENDBRANCH   4   5
ENDBRANCH   1   4
TORSDOF 3
ENDMDL
MODEL 20
REMARK VINA RESULT:      -2.8     14.790     15.823
REMARK  3 active torsions:
REMARK  status: ('A' for Active; 'I' for Inactive)
REMARK    1  A    between atoms: C_2  and  C_3 
REMARK    2  A    between atoms: C_3  and  C_4 
REMARK    3  A    between atoms: C_4  and  C_5 
ROOT
HETATM    1  C   LIG     1      26.210  31.323  37.555  1.00  0.00    -0.000 C 
ENDROOT
BRANCH   1   2
HETATM    2  C   LIG     1      27.128  32.469  37.995  1.00  0.00    -0.005 C 
HETATM    3  C   LIG     1      28.598  32.078  37.871  1.00  0.00     0.005 C 
ENDBRANCH   1   2
BRANCH   1   4
HETATM    4  C   LIG     1      25.765  31.506  36.097  1.00  0.00    -0.000 C 
BRANCH   4   5
HETATM    5  C   LIG     1      26.371  30.451  35.158  1.00  0.00    -0.005 C 
HETATM    6  C   LIG     1      27.567  30.981  34.366  1.00  0.00     0.005 C 
ENDBRANCH   4   5
ENDBRANCH   1   4
TORSDOF 3
ENDMDL
