MODEL 1
REMARK VINA RESULT:      -5.1      0.000      0.000
REMARK  3 active torsions:
REMARK  status: ('A' for Active; 'I' for Inactive)
REMARK    1  A    between atoms: C_2  and  C_3 
REMARK    2  A    between atoms: C_3  and  C_4 
REMARK    3  A    between atoms: C_4  and  C_5 
ROOT
HETATM    1  C   LIG     1      18.552  39.434  20.709  1.00  0.00     0.078 C 
ENDROOT
BRANCH   1   2
HETATM    2  C   LIG     1      19.537  38.729  19.814  1.00  0.00     0.123 C 
HETATM    3  C   LIG     1      19.388  37.274  19.480  1.00  0.00     0.091 C 
HETATM    4  O   LIG     1      20.484  39.350  19.356  1.00  0.00    -0.298 OA
ENDBRANCH   1   2
BRANCH   1   5
HETATM    5  C   LIG     1      18.750  39.010  22.172  1.00  0.00     0.011 C 
BRANCH   5   6
HETATM    6  C   LIG     1      17.439  38.537  22.842  1.00  0.00    -0.022 C 
HETATM    7  C   LIG     1      16.816  37.343  22.103  1.00  0.00     0.009 C 
HETATM    8  C   LIG     1      17.703  38.162  24.306  1.00  0.00     0.009 C 
ENDBRANCH   5   6
ENDBRANCH   1   5
TORSDOF 3
ENDMDL
MODEL 2
REMARK VINA RESULT:      -5.0      2.897      4.694
REMARK  3 active torsions:
REMARK  status: ('A' for Active; 'I' for Inactive)
REMARK    1  A    between atoms: C_2  and  C_3 
REMARK    2  A    between atoms: C_3  and  C_4 
REMARK    3  A    between atoms: C_4  and  C_5 
ROOT
HETATM    1  C   LIG     1      17.038  37.000  23.921  1.00  0.00     0.078 C 
ENDROOT
BRANCH   1   2
HETATM    2  C   LIG     1      17.467  37.578  25.245  1.00  0.00     0.123 C 
HETATM    3  C   LIG     1      18.288  36.782  26.216  1.00  0.00     0.091 C 
HETATM    4  O   LIG     1      17.132  38.715  25.540  1.00  0.00    -0.298 OA
ENDBRANCH   1   2
BRANCH   1   5
HETATM    5  C   LIG     1      16.496  38.102  22.999  1.00  0.00     0.011 C 
BRANCH   5   6
HETATM    6  C   LIG     1      17.372  38.316  21.743  1.00  0.00    -0.022 C 
HETATM    7  C   LIG     1      18.662  39.084  22.068  1.00  0.00     0.009 C 
HETATM    8  C   LIG     1      17.719  36.964  21.107  1.00  0.00     0.009 C 
ENDBRANCH   5   6
ENDBRANCH   1   5
TORSDOF 3
ENDMDL
MODEL 3
REMARK VINA RESULT:      -5.0      3.237      4.958
REMARK  3 active torsions:
REMARK  status: ('A' for Active; 'I' for Inactive)
REMARK    1  A    between atoms: C_2  and  C_3 
REMARK    2  A    between atoms: C_3  and  C_4 
REMARK    3  A    between atoms: C_4  and  C_5 
ROOT
HETATM    1  C   LIG     1      17.170  37.627  25.191  1.00  0.00     0.078 C 
ENDROOT
BRANCH   1   2
HETATM    2  C   LIG     1      17.850  36.473  25.882  1.00  0.00     0.123 C 
HETATM    3  C   LIG     1      17.529  35.051  25.529  1.00  0.00     0.091 C 
HETATM    4  O   LIG     1      18.674  36.698  26.756  1.00  0.00    -0.298 OA
ENDBRANCH   1   2
BRANCH   1   5
HETATM    5  C   LIG     1      18.083  38.225  24.111  1.00  0.00     0.011 C 
BRANCH   5   6
HETATM    6  C   LIG     1      17.372  38.386  22.747  1.00  0.00    -0.022 C 
HETATM    7  C   LIG     1      18.244  39.142  21.733  1.00  0.00     0.009 C 
HETATM    8  C   LIG     1      16.996  37.009  22.186  1.00  0.00     0.009 C 
ENDBRANCH   5   6
ENDBRANCH   1   5
TORSDOF 3
ENDMDL
MODEL 4
REMARK VINA RESULT:      -4.8      3.564      5.350
REMARK  3 active torsions:
REMARK  status: ('A' for Active; 'I' for Inactive)
REMARK    1  A    between atoms: C_2  and  C_3 
REMARK    2  A    between atoms: C_3  and  C_4 
REMARK    3  A    between atoms: C_4  and  C_5 
ROOT
HETATM    1  C   LIG     1      17.183  35.242  24.201  1.00  0.00     0.078 C 
ENDROOT
BRANCH   1   2
HETATM    2  C   LIG     1      17.526  36.159  25.347  1.00  0.00     0.123 C 
HETATM    3  C   LIG     1      18.332  35.678  26.517  1.00  0.00     0.091 C 
HETATM    4  O   LIG     1      17.132  37.315  25.329  1.00  0.00    -0.298 OA
ENDBRANCH   1   2
BRANCH   1   5
HETATM    5  C   LIG     1      16.824  36.053  22.947  1.00  0.00     0.011 C 
BRANCH   5   6
HETATM    6  C   LIG     1      17.160  35.309  21.635  1.00  0.00    -0.022 C 
HETATM    7  C   LIG     1      15.941  34.564  21.071  1.00  0.00     0.009 C 
HETATM    8  C   LIG     1      17.693  36.299  20.591  1.00  0.00     0.009 C 
ENDBRANCH   5   6
ENDBRANCH   1   5
TORSDOF 3
ENDMDL
MODEL 5
REMARK VINA RESULT:      -4.7      3.972      5.488
REMARK  3 active torsions:
REMARK  status: ('A' for Active; 'I' for Inactive)
REMARK    1  A    between atoms: C_2  and  C_3 
REMARK    2  A    between atoms: C_3  and  C_4 
REMARK    3  A    between atoms: C_4  and  C_5 
ROOT
HETATM    1  C   LIG     1      17.248  35.589  24.393  1.00  0.00     0.078 C 
ENDROOT
BRANCH   1   2
HETATM    2  C   LIG     1      17.497  35.279  25.847  1.00  0.00     0.123 C 
HETATM    3  C   LIG     1      18.455  36.092  26.667  1.00  0.00     0.091 C 
HETATM    4  O   LIG     1      16.914  34.341  26.369  1.00  0.00    -0.298 OA
ENDBRANCH   1   2
BRANCH   1   5
HETATM    5  C   LIG     1      16.949  37.084  24.202  1.00  0.00     0.011 C 
BRANCH   5   6
HETATM    6  C   LIG     1      17.392  37.611  22.818  1.00  0.00    -0.022 C 
HETATM    7  C   LIG     1      17.088  36.604  21.698  1.00  0.00     0.009 C 
HETATM    8  C   LIG     1      16.698  38.946  22.519  1.00  0.00     0.009 C 
ENDBRANCH   5   6
ENDBRANCH   1   5
TORSDOF 3
ENDMDL
MODEL 6
REMARK VINA RESULT:      -4.6      2.566      3.355
REMARK  3 active torsions:
REMARK  status: ('A' for Active; 'I' for Inactive)
REMARK    1  A    between atoms: C_2  and  C_3 
REMARK    2  A    between atoms: C_3  and  C_4 
REMARK    3  A    between atoms: C_4  and  C_5 
ROOT
HETATM    1  C   LIG     1      17.314  37.393  21.949  1.00  0.00     0.078 C 
ENDROOT
BRANCH   1   2
HETATM    2  C   LIG     1      17.251  36.185  21.051  1.00  0.00     0.123 C 
HETATM    3  C   LIG     1      16.515  34.944  21.462  1.00  0.00     0.091 C 
HETATM    4  O   LIG     1      17.818  36.210  19.969  1.00  0.00    -0.298 OA
ENDBRANCH   1   2
BRANCH   1   5
HETATM    5  C   LIG     1      16.583  37.124  23.272  1.00  0.00     0.011 C 
BRANCH   5   6
HETATM    6  C   LIG     1      17.549  36.958  24.468  1.00  0.00    -0.022 C 
HETATM    7  C   LIG     1      17.309  38.022  25.549  1.00  0.00     0.009 C 
HETATM    8  C   LIG     1      17.399  35.557  25.073  1.00  0.00     0.009 C 
ENDBRANCH   5   6
ENDBRANCH   1   5
TORSDOF 3
ENDMDL
MODEL 7
REMARK VINA RESULT:      -4.5      3.929      4.564
REMARK  3 active torsions:
REMARK  status: ('A' for Active; 'I' for Inactive)
REMARK    1  A    between atoms: C_2  and  C_3 
REMARK    2  A    between atoms: C_3  and  C_4 
REMARK    3  A    between atoms: C_4  and  C_5 
ROOT
HETATM    1  C   LIG     1      16.887  36.197  22.613  1.00  0.00     0.078 C 
ENDROOT
BRANCH   1   2
HETATM    2  C   LIG     1      15.850  35.650  21.666  1.00  0.00     0.123 C 
HETATM    3  C   LIG     1      16.145  34.479  20.776  1.00  0.00     0.091 C 
HETATM    4  O   LIG     1      14.748  36.175  21.614  1.00  0.00    -0.298 OA
ENDBRANCH   1   2
BRANCH   1   5
HETATM    5  C   LIG     1      17.115  35.228  23.784  1.00  0.00     0.011 C 
BRANCH   5   6
HETATM    6  C   LIG     1      17.158  35.944  25.154  1.00  0.00    -0.022 C 
HETATM    7  C   LIG     1      18.083  35.224  26.146  1.00  0.00     0.009 C 
HETATM    8  C   LIG     1      17.618  37.396  24.973  1.00  0.00     0.009 C 
ENDBRANCH   5   6
ENDBRANCH   1   5
TORSDOF 3
ENDMDL
MODEL 8
REMARK VINA RESULT:      -4.4      8.718     10.243
REMARK  3 active torsions:
REMARK  status: ('A' for Active; 'I' for Inactive)
REMARK    1  A    between atoms: C_2  and  C_3 
REMARK    2  A    between atoms: C_3  and  C_4 
REMARK    3  A    between atoms: C_4  and  C_5 
ROOT
HETATM    1  C   LIG     1      13.592  32.073  17.089  1.00  0.00     0.078 C 
ENDROOT
BRANCH   1   2
HETATM    2  C   LIG     1      14.767  32.293  18.007  1.00  0.00     0.123 C 
HETATM    3  C   LIG     1      14.805  31.698  19.384  1.00  0.00     0.091 C 
HETATM    4  O   LIG     1      15.705  32.976  17.628  1.00  0.00    -0.298 OA
ENDBRANCH   1   2
BRANCH   1   5
HETATM    5  C   LIG     1      13.609  30.646  16.521  1.00  0.00     0.011 C 
BRANCH   5   6
HETATM    6  C   LIG     1      13.871  30.611  14.997  1.00  0.00    -0.022 C 
HETATM    7  C   LIG     1      15.362  30.775  14.669  1.00  0.00     0.009 C 
HETATM    8  C   LIG     1      13.349  29.296  14.405  1.00  0.00     0.009 C 
ENDBRANCH   5   6
ENDBRANCH   1   5
TORSDOF 3
ENDMDL
MODEL 9
REMARK VINA RESULT:      -4.4      8.122      9.545
REMARK  3 active torsions:
REMARK  status: ('A' for Active; 'I' for Inactive)
REMARK    1  A    between atoms: C_2  and  C_3 
REMARK    2  A    between atoms: C_3  and  C_4 
REMARK    3  A    between atoms: C_4  and  C_5 
ROOT
HETATM    1  C   LIG     1      15.041  32.531  17.774  1.00  0.00     0.078 C 
ENDROOT
BRANCH   1   2
HETATM    2  C   LIG     1      15.001  32.276  19.258  1.00  0.00     0.123 C 
HETATM    3  C   LIG     1      15.533  33.280  20.238  1.00  0.00     0.091 C 
HETATM    4  O   LIG     1      14.534  31.227  19.675  1.00  0.00    -0.298 OA
ENDBRANCH   1   2
BRANCH   1   5
HETATM    5  C   LIG     1      13.806  31.930  17.087  1.00  0.00     0.011 C 
BRANCH   5   6
HETATM    6  C   LIG     1      14.167  30.839  16.053  1.00  0.00    -0.022 C 
HETATM    7  C   LIG     1      12.928  30.327  15.304  1.00  0.00     0.009 C 
HETATM    8  C   LIG     1      15.192  31.385  15.050  1.00  0.00     0.009 C 
ENDBRANCH   5   6
ENDBRANCH   1   5
TORSDOF 3
ENDMDL
MODEL 10
REMARK VINA RESULT:      -4.3      8.374      9.699
REMARK  3 active torsions:
REMARK  status: ('A' for Active; 'I' for Inactive)
REMARK    1  A    between atoms: C_2  and  C_3 
REMARK    2  A    between atoms: C_3  and  C_4 
REMARK    3  A    between atoms: C_4  and  C_5 
ROOT
HETATM    1  C   LIG     1      16.972  32.340  15.403  1.00  0.00     0.078 C 
ENDROOT
BRANCH   1   2
HETATM    2  C   LIG     1      17.292  33.692  14.820  1.00  0.00     0.123 C 
HETATM    3  C   LIG     1      17.894  33.830  13.452  1.00  0.00     0.091 C 
HETATM    4  O   LIG     1      17.066  34.698  15.475  1.00  0.00    -0.298 OA
ENDBRANCH   1   2
BRANCH   1   5
HETATM    5  C   LIG     1      15.453  32.123  15.465  1.00  0.00     0.011 C 
BRANCH   5   6
HETATM    6  C   LIG     1      15.029  30.715  14.985  1.00  0.00    -0.022 C 
HETATM    7  C   LIG     1      13.553  30.426  15.295  1.00  0.00     0.009 C 
HETATM    8  C   LIG     1      15.282  30.577  13.478  1.00  0.00     0.009 C 
ENDBRANCH   5   6
ENDBRANCH   1   5
TORSDOF 3
ENDMDL
MODEL 11
REMARK VINA RESULT:      -4.2      2.568      3.932
REMARK  3 active torsions:
REMARK  status: ('A' for Active; 'I' for Inactive)
REMARK    1  A    between atoms: C_2  and  C_3 
REMARK    2  A    between atoms: C_3  and  C_4 
REMARK    3  A    between atoms: C_4  and  C_5 
ROOT
HETATM    1  C   LIG     1      16.983  37.372  23.843  1.00  0.00     0.078 C 
ENDROOT
BRANCH   1   2
HETATM    2  C   LIG     1      17.043  38.599  22.970  1.00  0.00     0.123 C 
HETATM    3  C   LIG     1      18.315  39.013  22.291  1.00  0.00     0.091 C 
HETATM    4  O   LIG     1      16.039  39.277  22.817  1.00  0.00    -0.298 OA
ENDBRANCH   1   2
BRANCH   1   5
HETATM    5  C   LIG     1      16.896  36.101  22.985  1.00  0.00     0.011 C 
BRANCH   5   6
HETATM    6  C   LIG     1      16.314  36.367  21.578  1.00  0.00    -0.022 C 
HETATM    7  C   LIG     1      17.268  35.906  20.467  1.00  0.00     0.009 C 
HETATM    8  C   LIG     1      14.960  35.660  21.428  1.00  0.00     0.009 C 
ENDBRANCH   5   6
ENDBRANCH   1   5
TORSDOF 3
ENDMDL
MODEL 12
REMARK VINA RESULT:      -4.1      9.776     11.319
REMARK  3 active torsions:
REMARK  status: ('A' for Active; 'I' for Inactive)
REMARK    1  A    between atoms: C_2  and  C_3 
REMARK    2  A    between atoms: C_3  and  C_4 
REMARK    3  A    between atoms: C_4  and  C_5 
ROOT
HETATM    1  C   LIG     1      13.693  30.836  15.946  1.00  0.00     0.078 C 
ENDROOT
BRANCH   1   2
HETATM    2  C   LIG     1      14.091  31.719  17.100  1.00  0.00     0.123 C 
HETATM    3  C   LIG     1      14.617  33.107  16.878  1.00  0.00     0.091 C 
HETATM    4  O   LIG     1      13.993  31.295  18.242  1.00  0.00    -0.298 OA
ENDBRANCH   1   2
BRANCH   1   5
HETATM    5  C   LIG     1      14.887  30.599  15.009  1.00  0.00     0.011 C 
BRANCH   5   6
HETATM    6  C   LIG     1      14.577  29.578  13.890  1.00  0.00    -0.022 C 
HETATM    7  C   LIG     1      15.567  28.405  13.895  1.00  0.00     0.009 C 
HETATM    8  C   LIG     1      13.144  29.051  14.043  1.00  0.00     0.009 C 
ENDBRANCH   5   6
ENDBRANCH   1   5
TORSDOF 3
ENDMDL
MODEL 13
REMARK VINA RESULT:      -3.9      4.135      5.370
REMARK  3 active torsions:
REMARK  status: ('A' for Active; 'I' for Inactive)
REMARK    1  A    between atoms: C_2  and  C_3 
REMARK    2  A    between atoms: C_3  and  C_4 
REMARK    3  A    between atoms: C_4  and  C_5 
ROOT
HETATM    1  C   LIG     1      17.064  35.005  22.714  1.00  0.00     0.078 C 
ENDROOT
BRANCH   1   2
HETATM    2  C   LIG     1      17.145  35.548  24.117  1.00  0.00     0.123 C 
HETATM    3  C   LIG     1      17.058  37.021  24.391  1.00  0.00     0.091 C 
HETATM    4  O   LIG     1      17.294  34.777  25.052  1.00  0.00    -0.298 OA
ENDBRANCH   1   2
BRANCH   1   5
HETATM    5  C   LIG     1      16.447  36.045  21.766  1.00  0.00     0.011 C 
BRANCH   5   6
HETATM    6  C   LIG     1      15.353  35.447  20.852  1.00  0.00    -0.022 C 
HETATM    7  C   LIG     1      15.881  35.163  19.438  1.00  0.00     0.009 C 
HETATM    8  C   LIG     1      14.800  34.156  21.470  1.00  0.00     0.009 C 
ENDBRANCH   5   6
ENDBRANCH   1   5
TORSDOF 3
ENDMDL
MODEL 14
REMARK VINA RESULT:      -3.9      8.761     10.633
REMARK  3 active torsions:
REMARK  status: ('A' for Active; 'I' for Inactive)
REMARK    1  A    between atoms: C_2  and  C_3 
REMARK    2  A    between atoms: C_3  and  C_4 
REMARK    3  A    between atoms: C_4  and  C_5 
ROOT
HETATM    1  C   LIG     1      18.665  33.323  12.381  1.00  0.00     0.078 C 
ENDROOT
BRANCH   1   2
HETATM    2  C   LIG     1      17.912  33.922  13.540  1.00  0.00     0.123 C 
HETATM    3  C   LIG     1      17.613  33.123  14.775  1.00  0.00     0.091 C 
HETATM    4  O   LIG     1      17.527  35.079  13.473  1.00  0.00    -0.298 OA
ENDBRANCH   1   2
BRANCH   1   5
HETATM    5  C   LIG     1      19.245  34.427  11.484  1.00  0.00     0.011 C 
BRANCH   5   6
HETATM    6  C   LIG     1      20.772  34.296  11.285  1.00  0.00    -0.022 C 
HETATM    7  C   LIG     1      21.291  35.248  10.197  1.00  0.00     0.009 C 
HETATM    8  C   LIG     1      21.499  34.573  12.607  1.00  0.00     0.009 C 
ENDBRANCH   5   6
ENDBRANCH   1   5
TORSDOF 3
ENDMDL
MODEL 15
REMARK VINA RESULT:      -3.8      8.336      9.271
REMARK  3 active torsions:
REMARK  status: ('A' for Active; 'I' for Inactive)
REMARK    1  A    between atoms: C_2  and  C_3 
REMARK    2  A    between atoms: C_3  and  C_4 
REMARK    3  A    between atoms: C_4  and  C_5 
ROOT
HETATM    1  C   LIG     1      17.179  33.035  13.376  1.00  0.00     0.078 C 
ENDROOT
BRANCH   1   2
HETATM    2  C   LIG     1      17.977  34.127  12.711  1.00  0.00     0.123 C 
HETATM    3  C   LIG     1      19.459  34.003  12.514  1.00  0.00     0.091 C 
HETATM    4  O   LIG     1      17.409  35.140  12.332  1.00  0.00    -0.298 OA
ENDBRANCH   1   2
BRANCH   1   5
HETATM    5  C   LIG     1      17.138  33.243  14.897  1.00  0.00     0.011 C 
BRANCH   5   6
HETATM    6  C   LIG     1      16.201  32.243  15.613  1.00  0.00    -0.022 C 
HETATM    7  C   LIG     1      15.169  32.958  16.498  1.00  0.00     0.009 C 
HETATM    8  C   LIG     1      15.482  31.366  14.580  1.00  0.00     0.009 C 
ENDBRANCH   5   6
ENDBRANCH   1   5
TORSDOF 3
ENDMDL
MODEL 16
REMARK VINA RESULT:      -3.7     18.735     19.624
REMARK  3 active torsions:
REMARK  status: ('A' for Active; 'I' for Inactive)
REMARK    1  A    between atoms: C_2  and  C_3 
REMARK    2  A    between atoms: C_3  and  C_4 
REMARK    3  A    between atoms: C_4  and  C_5 
ROOT
HETATM    1  C   LIG     1       3.968  39.623  34.150  1.00  0.00     0.078 C 
ENDROOT
BRANCH   1   2
HETATM    2  C   LIG     1       4.682  39.586  35.476  1.00  0.00     0.123 C 
HETATM    3  C   LIG     1       4.301  38.601  36.542  1.00  0.00     0.091 C 
HETATM    4  O   LIG     1       5.585  40.380  35.694  1.00  0.00    -0.298 OA
ENDBRANCH   1   2
BRANCH   1   5
HETATM    5  C   LIG     1       3.920  41.057  33.600  1.00  0.00     0.011 C 
BRANCH   5   6
HETATM    6  C   LIG     1       3.093  41.172  32.299  1.00  0.00    -0.022 C 
HETATM    7  C   LIG     1       3.544  42.362  31.438  1.00  0.00     0.009 C 
HETATM    8  C   LIG     1       3.204  39.873  31.490  1.00  0.00     0.009 C 
ENDBRANCH   5   6
ENDBRANCH   1   5
TORSDOF 3
ENDMDL
MODEL 17
REMARK VINA RESULT:      -3.6      9.146     10.649
REMARK  3 active torsions:
REMARK  status: ('A' for Active; 'I' for Inactive)
REMARK    1  A    between atoms: C_2  and  C_3 
REMARK    2  A    between atoms: C_3  and  C_4 
REMARK    3  A    between atoms: C_4  and  C_5 
ROOT
HETATM    1  C   LIG     1      17.466  33.640  12.955  1.00  0.00     0.078 C 
ENDROOT
BRANCH   1   2
HETATM    2  C   LIG     1      16.746  32.600  13.774  1.00  0.00     0.123 C 
HETATM    3  C   LIG     1      16.639  32.717  15.266  1.00  0.00     0.091 C 
HETATM    4  O   LIG     1      16.245  31.636  13.215  1.00  0.00    -0.298 OA
ENDBRANCH   1   2
BRANCH   1   5
HETATM    5  C   LIG     1      18.930  33.764  13.404  1.00  0.00     0.011 C 
BRANCH   5   6
HETATM    6  C   LIG     1      19.903  33.980  12.222  1.00  0.00    -0.022 C 
HETATM    7  C   LIG     1      21.368  33.996  12.682  1.00  0.00     0.009 C 
HETATM    8  C   LIG     1      19.700  32.884  11.168  1.00  0.00     0.009 C 
ENDBRANCH   5   6
ENDBRANCH   1   5
TORSDOF 3
ENDMDL
MODEL 18
REMARK VINA RESULT:      -3.5     19.063     19.918
REMARK  3 active torsions:
REMARK  status: ('A' for Active; 'I' for Inactive)
REMARK    1  A    between atoms: C_2  and  C_3 
REMARK    2  A    between atoms: C_3  and  C_4 
REMARK    3  A    between atoms: C_4  and  C_5 
ROOT
HETATM    1  C   LIG     1       4.249  39.450  34.419  1.00  0.00     0.078 C 
ENDROOT
BRANCH   1   2
HETATM    2  C   LIG     1       4.912  39.607  35.764  1.00  0.00     0.123 C 
HETATM    3  C   LIG     1       4.424  38.858  36.968  1.00  0.00     0.091 C 
HETATM    4  O   LIG     1       5.862  40.367  35.880  1.00  0.00    -0.298 OA
ENDBRANCH   1   2
BRANCH   1   5
HETATM    5  C   LIG     1       3.306  40.630  34.140  1.00  0.00     0.011 C 
BRANCH   5   6
HETATM    6  C   LIG     1       3.960  41.728  33.271  1.00  0.00    -0.022 C 
HETATM    7  C   LIG     1       3.321  41.811  31.877  1.00  0.00     0.009 C 
HETATM    8  C   LIG     1       3.853  43.087  33.974  1.00  0.00     0.009 C 
ENDBRANCH   5   6
ENDBRANCH   1   5
TORSDOF 3
ENDMDL
MODEL 19
REMARK VINA RESULT:      -3.4     17.836     18.704
REMARK  3 active torsions:
REMARK  status: ('A' for Active; 'I' for Inactive)
REMARK    1  A    between atoms: C_2  and  C_3 
REMARK    2  A    between atoms: C_3  and  C_4 
REMARK    3  A    between atoms: C_4  and  C_5 
ROOT
HETATM    1  C   LIG     1      25.945  31.209  35.618  1.00  0.00     0.078 C 
ENDROOT
BRANCH   1   2
HETATM    2  C   LIG     1      25.994  31.003  37.110  1.00  0.00     0.123 C 
HETATM    3  C   LIG     1      26.708  31.969  38.009  1.00  0.00     0.091 C 
HETATM    4  O   LIG     1      25.449  30.026  37.600  1.00  0.00    -0.298 OA
ENDBRANCH   1   2
BRANCH   1   5
HETATM    5  C   LIG     1      26.286  29.906  34.880  1.00  0.00     0.011 C 
BRANCH   5   6
HETATM    6  C   LIG     1      27.744  29.871  34.368  1.00  0.00    -0.022 C 
HETATM    7  C   LIG     1      27.937  28.826  33.259  1.00  0.00     0.009 C 
HETATM    8  C   LIG     1      28.153  31.257  33.854  1.00  0.00     0.009 C 
ENDBRANCH   5   6
ENDBRANCH   1   5
TORSDOF 3
ENDMDL
MODEL 20
REMARK VINA RESULT:      -3.2     18.970     19.967
REMARK  3 active torsions:
REMARK  status: ('A' for Active; 'I' for Inactive)
REMARK    1  A    between atoms: C_2  and  C_3 
REMARK    2  A    between atoms: C_3  and  C_4 
REMARK    3  A    between atoms: C_4  and  C_5 
ROOT
HETATM    1  C   LIG     1       4.014  42.699  33.532  1.00  0.00     0.078 C 
ENDROOT
BRANCH   1   2
HETATM    2  C   LIG     1       4.313  42.185  34.916  1.00  0.00     0.123 C 
HETATM    3  C   LIG     1       4.039  43.016  36.135  1.00  0.00     0.091 C 
HETATM    4  O   LIG     1       4.797  41.071  35.052  1.00  0.00    -0.298 OA
ENDBRANCH   1   2
BRANCH   1   5
HETATM    5  C   LIG     1       4.121  44.230  33.488  1.00  0.00     0.011 C 
BRANCH   5   6
HETATM    6  C   LIG     1       3.558  44.833  32.181  1.00  0.00    -0.022 C 
HETATM    7  C   LIG     1       4.365  46.056  31.720  1.00  0.00     0.009 C 
HETATM    8  C   LIG     1       3.547  43.770  31.075  1.00  0.00     0.009 C 
ENDBRANCH   5   6
ENDBRANCH   1   5
TORSDOF 3
ENDMDL
