MODEL 1
REMARK VINA RESULT:      -3.7      0.000      0.000
REMARK  0 active torsions:
REMARK  status: ('A' for Active; 'I' for Inactive)
ROOT
HETATM    1  C   LIG     1      18.385  36.329  26.838  1.00  0.00     0.295 C 
HETATM    2  C   LIG     1      18.298  34.913  26.251  1.00  0.00     0.197 C 
HETATM    3  O   LIG     1      17.143  34.775  25.447  1.00  0.00    -0.388 OA
HETATM    4  C   LIG     1      17.204  35.683  24.365  1.00  0.00     0.197 C 
HETATM    5  C   LIG     1      17.245  37.132  24.871  1.00  0.00     0.295 C 
HETATM    6  N   LIG     1      18.386  37.337  25.771  1.00  0.00     0.087 N 
HETATM    7  H   LIG     1      19.270  37.233  25.217  1.00  0.00     0.316 HD
ENDROOT
TORSDOF 0
ENDMDL
MODEL 2
REMARK VINA RESULT:      -3.6      0.908      2.047
REMARK  0 active torsions:
REMARK  status: ('A' for Active; 'I' for Inactive)
ROOT
HETATM    1  C   LIG     1      17.625  37.692  24.923  1.00  0.00     0.295 C 
HETATM    2  C   LIG     1      16.834  36.597  24.192  1.00  0.00     0.197 C 
HETATM    3  O   LIG     1      17.423  35.329  24.401  1.00  0.00    -0.388 OA
HETATM    4  C   LIG     1      17.407  35.018  25.780  1.00  0.00     0.197 C 
HETATM    5  C   LIG     1      18.223  36.045  26.579  1.00  0.00     0.295 C 
HETATM    6  N   LIG     1      17.709  37.402  26.359  1.00  0.00     0.087 N 
HETATM    7  H   LIG     1      16.747  37.465  26.768  1.00  0.00     0.316 HD
ENDROOT
TORSDOF 0
ENDMDL
MODEL 3
REMARK VINA RESULT:      -3.4      1.632      1.905
REMARK  0 active torsions:
REMARK  status: ('A' for Active; 'I' for Inactive)
ROOT
HETATM    1  C   LIG     1      17.281  38.107  25.604  1.00  0.00     0.295 C 
HETATM    2  C   LIG     1      18.032  36.772  25.508  1.00  0.00     0.197 C 
HETATM    3  O   LIG     1      17.273  35.820  24.789  1.00  0.00    -0.388 OA
HETATM    4  C   LIG     1      17.056  36.283  23.471  1.00  0.00     0.197 C 
HETATM    5  C   LIG     1      16.263  37.598  23.479  1.00  0.00     0.295 C 
HETATM    6  N   LIG     1      16.959  38.621  24.267  1.00  0.00     0.087 N 
HETATM    7  H   LIG     1      17.855  38.864  23.780  1.00  0.00     0.316 HD
ENDROOT
TORSDOF 0
ENDMDL
MODEL 4
REMARK VINA RESULT:      -3.4      1.747      2.161
REMARK  0 active torsions:
REMARK  status: ('A' for Active; 'I' for Inactive)
ROOT
HETATM    1  C   LIG     1      18.056  36.636  26.494  1.00  0.00     0.295 C 
HETATM    2  C   LIG     1      17.519  37.741  25.573  1.00  0.00     0.197 C 
HETATM    3  O   LIG     1      17.658  37.373  24.215  1.00  0.00    -0.388 OA
HETATM    4  C   LIG     1      16.908  36.203  23.960  1.00  0.00     0.197 C 
HETATM    5  C   LIG     1      17.419  35.031  24.811  1.00  0.00     0.295 C 
HETATM    6  N   LIG     1      17.368  35.365  26.239  1.00  0.00     0.087 N 
HETATM    7  H   LIG     1      16.363  35.468  26.521  1.00  0.00     0.316 HD
ENDROOT
TORSDOF 0
ENDMDL
MODEL 5
REMARK VINA RESULT:      -3.4      5.107      5.808
REMARK  0 active torsions:
REMARK  status: ('A' for Active; 'I' for Inactive)
ROOT
HETATM    1  C   LIG     1      19.867  38.912  19.916  1.00  0.00     0.295 C 
HETATM    2  C   LIG     1      19.040  37.739  19.368  1.00  0.00     0.197 C 
HETATM    3  O   LIG     1      18.554  36.933  20.423  1.00  0.00    -0.388 OA
HETATM    4  C   LIG     1      17.707  37.700  21.257  1.00  0.00     0.197 C 
HETATM    5  C   LIG     1      18.477  38.871  21.885  1.00  0.00     0.295 C 
HETATM    6  N   LIG     1      19.071  39.720  20.847  1.00  0.00     0.087 N 
HETATM    7  H   LIG     1      18.297  40.180  20.310  1.00  0.00     0.316 HD
ENDROOT
TORSDOF 0
ENDMDL
MODEL 6
REMARK VINA RESULT:      -3.4      2.693      3.818
REMARK  0 active torsions:
REMARK  status: ('A' for Active; 'I' for Inactive)
ROOT
HETATM    1  C   LIG     1      16.187  37.170  22.544  1.00  0.00     0.295 C 
HETATM    2  C   LIG     1      16.695  38.606  22.742  1.00  0.00     0.197 C 
HETATM    3  O   LIG     1      16.739  38.936  24.116  1.00  0.00    -0.388 OA
HETATM    4  C   LIG     1      17.634  38.071  24.785  1.00  0.00     0.197 C 
HETATM    5  C   LIG     1      17.166  36.612  24.675  1.00  0.00     0.295 C 
HETATM    6  N   LIG     1      17.032  36.214  23.269  1.00  0.00     0.087 N 
HETATM    7  H   LIG     1      17.984  36.212  22.831  1.00  0.00     0.316 HD
ENDROOT
TORSDOF 0
ENDMDL
MODEL 7
REMARK VINA RESULT:      -3.3      5.594      6.378
REMARK  0 active torsions:
REMARK  status: ('A' for Active; 'I' for Inactive)
ROOT
HETATM    1  C   LIG     1      18.918  37.496  19.214  1.00  0.00     0.295 C 
HETATM    2  C   LIG     1      19.859  38.684  19.458  1.00  0.00     0.197 C 
HETATM    3  O   LIG     1      19.204  39.699  20.194  1.00  0.00    -0.388 OA
HETATM    4  C   LIG     1      18.816  39.195  21.456  1.00  0.00     0.197 C 
HETATM    5  C   LIG     1      17.829  38.029  21.298  1.00  0.00     0.295 C 
HETATM    6  N   LIG     1      18.417  36.958  20.484  1.00  0.00     0.087 N 
HETATM    7  H   LIG     1      19.223  36.543  21.010  1.00  0.00     0.316 HD
ENDROOT
TORSDOF 0
ENDMDL
MODEL 8
REMARK VINA RESULT:      -3.3      1.229      2.020
REMARK  0 active torsions:
REMARK  status: ('A' for Active; 'I' for Inactive)
ROOT
HETATM    1  C   LIG     1      17.180  35.382  24.452  1.00  0.00     0.295 C 
HETATM    2  C   LIG     1      17.354  34.737  25.834  1.00  0.00     0.197 C 
HETATM    3  O   LIG     1      18.505  35.242  26.482  1.00  0.00    -0.388 OA
HETATM    4  C   LIG     1      18.368  36.636  26.676  1.00  0.00     0.197 C 
HETATM    5  C   LIG     1      18.238  37.363  25.329  1.00  0.00     0.295 C 
HETATM    6  N   LIG     1      17.097  36.843  24.566  1.00  0.00     0.087 N 
HETATM    7  H   LIG     1      16.215  37.088  25.076  1.00  0.00     0.316 HD
ENDROOT
TORSDOF 0
ENDMDL
MODEL 9
REMARK VINA RESULT:      -3.2      8.162      9.035
REMARK  0 active torsions:
REMARK  status: ('A' for Active; 'I' for Inactive)
ROOT
HETATM    1  C   LIG     1      14.912  31.760  19.291  1.00  0.00     0.295 C 
HETATM    2  C   LIG     1      15.271  33.249  19.189  1.00  0.00     0.197 C 
HETATM    3  O   LIG     1      15.671  33.579  17.873  1.00  0.00    -0.388 OA
HETATM    4  C   LIG     1      14.606  33.334  16.976  1.00  0.00     0.197 C 
HETATM    5  C   LIG     1      14.219  31.848  16.984  1.00  0.00     0.295 C 
HETATM    6  N   LIG     1      13.853  31.412  18.336  1.00  0.00     0.087 N 
HETATM    7  H   LIG     1      12.974  31.908  18.619  1.00  0.00     0.316 HD
ENDROOT
TORSDOF 0
ENDMDL
MODEL 10
REMARK VINA RESULT:      -3.2      5.107      5.811
REMARK  0 active torsions:
REMARK  status: ('A' for Active; 'I' for Inactive)
ROOT
HETATM    1  C   LIG     1      17.818  36.400  20.821  1.00  0.00     0.295 C 
HETATM    2  C   LIG     1      17.480  37.712  21.545  1.00  0.00     0.197 C 
HETATM    3  O   LIG     1      18.611  38.559  21.599  1.00  0.00    -0.388 OA
HETATM    4  C   LIG     1      19.021  38.889  20.287  1.00  0.00     0.197 C 
HETATM    5  C   LIG     1      19.425  37.628  19.509  1.00  0.00     0.295 C 
HETATM    6  N   LIG     1      18.318  36.666  19.467  1.00  0.00     0.087 N 
HETATM    7  H   LIG     1      17.539  37.079  18.900  1.00  0.00     0.316 HD
ENDROOT
TORSDOF 0
ENDMDL
MODEL 11
REMARK VINA RESULT:      -3.1      3.611      4.136
REMARK  0 active torsions:
REMARK  status: ('A' for Active; 'I' for Inactive)
ROOT
HETATM    1  C   LIG     1      18.073  38.928  22.474  1.00  0.00     0.295 C 
HETATM    2  C   LIG     1      17.943  38.032  21.233  1.00  0.00     0.197 C 
HETATM    3  O   LIG     1      17.466  36.750  21.590  1.00  0.00    -0.388 OA
HETATM    4  C   LIG     1      16.182  36.864  22.170  1.00  0.00     0.197 C 
HETATM    5  C   LIG     1      16.237  37.710  23.451  1.00  0.00     0.295 C 
HETATM    6  N   LIG     1      16.787  39.041  23.172  1.00  0.00     0.087 N 
HETATM    7  H   LIG     1      16.117  39.556  22.553  1.00  0.00     0.316 HD
ENDROOT
TORSDOF 0
ENDMDL
MODEL 12
REMARK VINA RESULT:      -3.1      3.804      4.467
REMARK  0 active torsions:
REMARK  status: ('A' for Active; 'I' for Inactive)
ROOT
HETATM    1  C   LIG     1      17.930  38.139  21.276  1.00  0.00     0.295 C 
HETATM    2  C   LIG     1      18.049  38.904  22.602  1.00  0.00     0.197 C 
HETATM    3  O   LIG     1      16.793  38.993  23.244  1.00  0.00    -0.388 OA
HETATM    4  C   LIG     1      16.317  37.695  23.541  1.00  0.00     0.197 C 
HETATM    5  C   LIG     1      16.124  36.878  22.255  1.00  0.00     0.295 C 
HETATM    6  N   LIG     1      17.377  36.797  21.496  1.00  0.00     0.087 N 
HETATM    7  H   LIG     1      18.069  36.240  22.053  1.00  0.00     0.316 HD
ENDROOT
TORSDOF 0
ENDMDL
MODEL 13
REMARK VINA RESULT:      -3.1      5.397      5.972
REMARK  0 active torsions:
REMARK  status: ('A' for Active; 'I' for Inactive)
ROOT
HETATM    1  C   LIG     1      18.677  38.928  21.522  1.00  0.00     0.295 C 
HETATM    2  C   LIG     1      19.303  39.264  20.161  1.00  0.00     0.197 C 
HETATM    3  O   LIG     1      19.871  38.111  19.573  1.00  0.00    -0.388 OA
HETATM    4  C   LIG     1      18.864  37.144  19.351  1.00  0.00     0.197 C 
HETATM    5  C   LIG     1      18.218  36.717  20.678  1.00  0.00     0.295 C 
HETATM    6  N   LIG     1      17.662  37.877  21.383  1.00  0.00     0.087 N 
HETATM    7  H   LIG     1      16.864  38.258  20.820  1.00  0.00     0.316 HD
ENDROOT
TORSDOF 0
ENDMDL
MODEL 14
REMARK VINA RESULT:      -3.1      7.396      8.404
REMARK  0 active torsions:
REMARK  status: ('A' for Active; 'I' for Inactive)
ROOT
HETATM    1  C   LIG     1      15.148  32.885  17.570  1.00  0.00     0.295 C 
HETATM    2  C   LIG     1      14.093  31.808  17.864  1.00  0.00     0.197 C 
HETATM    3  O   LIG     1      14.450  31.058  19.008  1.00  0.00    -0.388 OA
HETATM    4  C   LIG     1      14.516  31.909  20.135  1.00  0.00     0.197 C 
HETATM    5  C   LIG     1      15.589  32.990  19.938  1.00  0.00     0.295 C 
HETATM    6  N   LIG     1      15.322  33.773  18.726  1.00  0.00     0.087 N 
HETATM    7  H   LIG     1      14.435  34.314  18.866  1.00  0.00     0.316 HD
ENDROOT
TORSDOF 0
ENDMDL
MODEL 15
REMARK VINA RESULT:      -3.1     10.207     10.992
REMARK  0 active torsions:
REMARK  status: ('A' for Active; 'I' for Inactive)
ROOT
HETATM    1  C   LIG     1      12.991  31.170  16.401  1.00  0.00     0.295 C 
HETATM    2  C   LIG     1      14.153  30.615  15.565  1.00  0.00     0.197 C 
HETATM    3  O   LIG     1      14.963  31.665  15.075  1.00  0.00    -0.388 OA
HETATM    4  C   LIG     1      15.521  32.381  16.159  1.00  0.00     0.197 C 
HETATM    5  C   LIG     1      14.418  33.011  17.021  1.00  0.00     0.295 C 
HETATM    6  N   LIG     1      13.492  31.985  17.514  1.00  0.00     0.087 N 
HETATM    7  H   LIG     1      14.010  31.359  18.177  1.00  0.00     0.316 HD
ENDROOT
TORSDOF 0
ENDMDL
MODEL 16
REMARK VINA RESULT:      -3.0     13.752     14.350
REMARK  0 active torsions:
REMARK  status: ('A' for Active; 'I' for Inactive)
ROOT
HETATM    1  C   LIG     1      13.474  29.756  14.602  1.00  0.00     0.295 C 
HETATM    2  C   LIG     1      14.921  29.838  14.096  1.00  0.00     0.197 C 
HETATM    3  O   LIG     1      15.564  28.584  14.211  1.00  0.00    -0.388 OA
HETATM    4  C   LIG     1      14.888  27.629  13.417  1.00  0.00     0.197 C 
HETATM    5  C   LIG     1      13.439  27.452  13.894  1.00  0.00     0.295 C 
HETATM    6  N   LIG     1      12.722  28.732  13.867  1.00  0.00     0.087 N 
HETATM    7  H   LIG     1      12.629  29.040  12.869  1.00  0.00     0.316 HD
ENDROOT
TORSDOF 0
ENDMDL
MODEL 17
REMARK VINA RESULT:      -3.0      2.894      3.547
REMARK  0 active torsions:
REMARK  status: ('A' for Active; 'I' for Inactive)
ROOT
HETATM    1  C   LIG     1      17.125  36.247  23.983  1.00  0.00     0.295 C 
HETATM    2  C   LIG     1      16.872  37.628  24.606  1.00  0.00     0.197 C 
HETATM    3  O   LIG     1      17.485  38.644  23.838  1.00  0.00    -0.388 OA
HETATM    4  C   LIG     1      16.933  38.656  22.537  1.00  0.00     0.197 C 
HETATM    5  C   LIG     1      17.188  37.319  21.825  1.00  0.00     0.295 C 
HETATM    6  N   LIG     1      16.636  36.203  22.600  1.00  0.00     0.087 N 
HETATM    7  H   LIG     1      15.591  36.291  22.614  1.00  0.00     0.316 HD
ENDROOT
TORSDOF 0
ENDMDL
MODEL 18
REMARK VINA RESULT:      -3.0      9.758     10.663
REMARK  0 active torsions:
REMARK  status: ('A' for Active; 'I' for Inactive)
ROOT
HETATM    1  C   LIG     1      14.811  32.690  17.640  1.00  0.00     0.295 C 
HETATM    2  C   LIG     1      15.396  32.901  16.236  1.00  0.00     0.197 C 
HETATM    3  O   LIG     1      15.521  31.667  15.556  1.00  0.00    -0.388 OA
HETATM    4  C   LIG     1      14.246  31.076  15.404  1.00  0.00     0.197 C 
HETATM    5  C   LIG     1      13.612  30.788  16.772  1.00  0.00     0.295 C 
HETATM    6  N   LIG     1      13.509  32.017  17.567  1.00  0.00     0.087 N 
HETATM    7  H   LIG     1      12.828  32.660  17.099  1.00  0.00     0.316 HD
ENDROOT
TORSDOF 0
ENDMDL
MODEL 19
REMARK VINA RESULT:      -2.8     13.691     14.524
REMARK  0 active torsions:
REMARK  status: ('A' for Active; 'I' for Inactive)
ROOT
HETATM    1  C   LIG     1      19.066  34.820  10.615  1.00  0.00     0.295 C 
HETATM    2  C   LIG     1      20.580  34.696  10.386  1.00  0.00     0.197 C 
HETATM    3  O   LIG     1      21.282  34.809  11.608  1.00  0.00    -0.388 OA
HETATM    4  C   LIG     1      20.895  33.764  12.478  1.00  0.00     0.197 C 
HETATM    5  C   LIG     1      19.395  33.847  12.796  1.00  0.00     0.295 C 
HETATM    6  N   LIG     1      18.598  33.803  11.565  1.00  0.00     0.087 N 
HETATM    7  H   LIG     1      18.715  32.859  11.126  1.00  0.00     0.316 HD
ENDROOT
TORSDOF 0
ENDMDL
MODEL 20
REMARK VINA RESULT:      -2.8     13.896     14.614
REMARK  0 active torsions:
REMARK  status: ('A' for Active; 'I' for Inactive)
ROOT
HETATM    1  C   LIG     1      18.745  33.772  12.225  1.00  0.00     0.295 C 
HETATM    2  C   LIG     1      20.226  33.993  12.564  1.00  0.00     0.197 C 
HETATM    3  O   LIG     1      21.030  33.856  11.410  1.00  0.00    -0.388 OA
HETATM    4  C   LIG     1      20.661  34.830  10.454  1.00  0.00     0.197 C 
HETATM    5  C   LIG     1      19.198  34.645  10.024  1.00  0.00     0.295 C 
HETATM    6  N   LIG     1      18.303  34.708  11.185  1.00  0.00     0.087 N 
HETATM    7  H   LIG     1      18.334  35.680  11.578  1.00  0.00     0.316 HD
ENDROOT
TORSDOF 0
ENDMDL
