REMARK  6 active torsions:
REMARK  status: ('A' for Active; 'I' for Inactive)
REMARK    1  A    between atoms: O_1  and  C_2 
REMARK    2  A    between atoms: C_2  and  C_3 
REMARK    3  A    between atoms: C_3  and  C_4 
REMARK    4  A    between atoms: C_4  and  C_5 
REMARK    5  A    between atoms: C_5  and  C_6 
REMARK    6  A    between atoms: C_6  and  O_7 
ROOT
HETATM    1  C   LIG     1       0.150   0.981   0.433  1.00  0.00     0.021 C 
ENDROOT
BRANCH   1   2
HETATM    2  C   LIG     1       1.283   0.557  -0.516  1.00  0.00     0.110 C 
BRANCH   2   3
HETATM    3  C   LIG     1       1.397  -0.934  -0.639  1.00  0.00     0.139 C 
HETATM    4  O   LIG     1       1.103  -1.500  -1.725  1.00  0.00    -0.650 OA
BRANCH   3   5
HETATM    5  O   LIG     1       1.827  -1.704   0.438  1.00  0.00    -0.776 OA
HETATM    6  H   LIG     1       2.082  -1.276   1.320  1.00  0.00     0.167 HD
ENDBRANCH   3   5
ENDBRANCH   2   3
ENDBRANCH   1   2
BRANCH   1   7
HETATM    7  C   LIG     1      -1.254   0.821  -0.176  1.00  0.00     0.110 C 
BRANCH   7   8
HETATM    8  C   LIG     1      -1.696  -0.612  -0.238  1.00  0.00     0.139 C 
HETATM    9  O   LIG     1      -1.928  -1.148  -1.353  1.00  0.00    -0.650 OA
BRANCH   8  10
HETATM   10  O   LIG     1      -1.875  -1.354   0.926  1.00  0.00    -0.776 OA
HETATM   11  H   LIG     1      -1.730  -0.942   1.840  1.00  0.00     0.167 HD
ENDBRANCH   8  10
ENDBRANCH   7   8
ENDBRANCH   1   7
TORSDOF 6
