MODEL 1
REMARK VINA RESULT:      -4.7      0.000      0.000
REMARK  0 active torsions:
REMARK  status: ('A' for Active; 'I' for Inactive)
ROOT
HETATM    1  C   LIG     1      18.356  36.327  26.909  1.00  0.00     0.269 C 
HETATM    2  C   LIG     1      18.329  34.948  26.234  1.00  0.00     0.030 C 
HETATM    3  C   LIG     1      17.177  34.864  25.228  1.00  0.00     0.003 C 
HETATM    4  C   LIG     1      17.243  36.029  24.237  1.00  0.00     0.030 C 
HETATM    5  C   LIG     1      17.309  37.368  24.984  1.00  0.00     0.269 C 
HETATM    6  N   LIG     1      18.446  37.408  25.915  1.00  0.00     0.083 N 
HETATM    7  H   LIG     1      19.335  37.298  25.372  1.00  0.00     0.315 HD
ENDROOT
TORSDOF 0
ENDMDL
MODEL 2
REMARK VINA RESULT:      -4.6      1.211      2.543
REMARK  0 active torsions:
REMARK  status: ('A' for Active; 'I' for Inactive)
ROOT
HETATM    1  C   LIG     1      17.213  37.176  24.788  1.00  0.00     0.269 C 
HETATM    2  C   LIG     1      18.390  37.371  25.754  1.00  0.00     0.030 C 
HETATM    3  C   LIG     1      18.371  36.300  26.848  1.00  0.00     0.003 C 
HETATM    4  C   LIG     1      18.313  34.901  26.230  1.00  0.00     0.030 C 
HETATM    5  C   LIG     1      17.139  34.795  25.247  1.00  0.00     0.269 C 
HETATM    6  N   LIG     1      17.218  35.827  24.203  1.00  0.00     0.083 N 
HETATM    7  H   LIG     1      18.105  35.695  23.661  1.00  0.00     0.315 HD
ENDROOT
TORSDOF 0
ENDMDL
MODEL 3
REMARK VINA RESULT:      -4.5      0.858      2.082
REMARK  0 active torsions:
REMARK  status: ('A' for Active; 'I' for Inactive)
ROOT
HETATM    1  C   LIG     1      17.162  35.917  24.236  1.00  0.00     0.269 C 
HETATM    2  C   LIG     1      17.146  34.792  25.282  1.00  0.00     0.030 C 
HETATM    3  C   LIG     1      18.335  34.929  26.237  1.00  0.00     0.003 C 
HETATM    4  C   LIG     1      18.376  36.332  26.848  1.00  0.00     0.030 C 
HETATM    5  C   LIG     1      18.347  37.400  25.747  1.00  0.00     0.269 C 
HETATM    6  N   LIG     1      17.174  37.242  24.875  1.00  0.00     0.083 N 
HETATM    7  H   LIG     1      16.305  37.350  25.450  1.00  0.00     0.315 HD
ENDROOT
TORSDOF 0
ENDMDL
MODEL 4
REMARK VINA RESULT:      -4.4      0.615      2.090
REMARK  0 active torsions:
REMARK  status: ('A' for Active; 'I' for Inactive)
ROOT
HETATM    1  C   LIG     1      17.637  37.532  24.797  1.00  0.00     0.269 C 
HETATM    2  C   LIG     1      16.890  36.341  24.178  1.00  0.00     0.030 C 
HETATM    3  C   LIG     1      17.497  35.019  24.657  1.00  0.00     0.003 C 
HETATM    4  C   LIG     1      17.555  34.976  26.186  1.00  0.00     0.030 C 
HETATM    5  C   LIG     1      18.276  36.216  26.733  1.00  0.00     0.269 C 
HETATM    6  N   LIG     1      17.640  37.457  26.266  1.00  0.00     0.083 N 
HETATM    7  H   LIG     1      16.651  37.482  26.610  1.00  0.00     0.315 HD
ENDROOT
TORSDOF 0
ENDMDL
MODEL 5
REMARK VINA RESULT:      -4.2      5.053      5.919
REMARK  0 active torsions:
REMARK  status: ('A' for Active; 'I' for Inactive)
ROOT
HETATM    1  C   LIG     1      19.965  38.788  19.672  1.00  0.00     0.269 C 
HETATM    2  C   LIG     1      19.042  37.659  19.190  1.00  0.00     0.030 C 
HETATM    3  C   LIG     1      18.422  36.927  20.383  1.00  0.00     0.003 C 
HETATM    4  C   LIG     1      17.734  37.918  21.325  1.00  0.00     0.030 C 
HETATM    5  C   LIG     1      18.704  39.038  21.729  1.00  0.00     0.269 C 
HETATM    6  N   LIG     1      19.250  39.726  20.551  1.00  0.00     0.083 N 
HETATM    7  H   LIG     1      18.462  40.161  20.015  1.00  0.00     0.315 HD
ENDROOT
TORSDOF 0
ENDMDL
MODEL 6
REMARK VINA RESULT:      -4.2      1.369      2.108
REMARK  0 active torsions:
REMARK  status: ('A' for Active; 'I' for Inactive)
ROOT
HETATM    1  C   LIG     1      18.316  34.890  26.274  1.00  0.00     0.269 C 
HETATM    2  C   LIG     1      18.397  36.327  26.810  1.00  0.00     0.030 C 
HETATM    3  C   LIG     1      18.398  37.331  25.654  1.00  0.00     0.003 C 
HETATM    4  C   LIG     1      17.202  37.090  24.729  1.00  0.00     0.030 C 
HETATM    5  C   LIG     1      17.164  35.626  24.269  1.00  0.00     0.269 C 
HETATM    6  N   LIG     1      17.137  34.704  25.415  1.00  0.00     0.083 N 
HETATM    7  H   LIG     1      16.273  34.887  25.978  1.00  0.00     0.315 HD
ENDROOT
TORSDOF 0
ENDMDL
MODEL 7
REMARK VINA RESULT:      -4.0      5.044      5.853
REMARK  0 active torsions:
REMARK  status: ('A' for Active; 'I' for Inactive)
ROOT
HETATM    1  C   LIG     1      17.842  36.660  20.425  1.00  0.00     0.269 C 
HETATM    2  C   LIG     1      19.142  36.856  19.631  1.00  0.00     0.030 C 
HETATM    3  C   LIG     1      19.336  38.332  19.274  1.00  0.00     0.003 C 
HETATM    4  C   LIG     1      19.247  39.206  20.527  1.00  0.00     0.030 C 
HETATM    5  C   LIG     1      17.944  38.924  21.289  1.00  0.00     0.269 C 
HETATM    6  N   LIG     1      17.820  37.500  21.632  1.00  0.00     0.083 N 
HETATM    7  H   LIG     1      18.619  37.228  22.251  1.00  0.00     0.315 HD
ENDROOT
TORSDOF 0
ENDMDL
MODEL 8
REMARK VINA RESULT:      -3.9      4.754      5.924
REMARK  0 active torsions:
REMARK  status: ('A' for Active; 'I' for Inactive)
ROOT
HETATM    1  C   LIG     1      19.186  38.043  19.335  1.00  0.00     0.269 C 
HETATM    2  C   LIG     1      19.216  38.979  20.552  1.00  0.00     0.030 C 
HETATM    3  C   LIG     1      17.918  38.858  21.355  1.00  0.00     0.003 C 
HETATM    4  C   LIG     1      17.643  37.396  21.715  1.00  0.00     0.030 C 
HETATM    5  C   LIG     1      17.670  36.517  20.457  1.00  0.00     0.269 C 
HETATM    6  N   LIG     1      18.946  36.649  19.738  1.00  0.00     0.083 N 
HETATM    7  H   LIG     1      19.724  36.337  20.365  1.00  0.00     0.315 HD
ENDROOT
TORSDOF 0
ENDMDL
MODEL 9
REMARK VINA RESULT:      -3.9      4.953      5.824
REMARK  0 active torsions:
REMARK  status: ('A' for Active; 'I' for Inactive)
ROOT
HETATM    1  C   LIG     1      17.842  36.439  20.890  1.00  0.00     0.269 C 
HETATM    2  C   LIG     1      17.429  37.753  21.568  1.00  0.00     0.030 C 
HETATM    3  C   LIG     1      18.580  38.763  21.527  1.00  0.00     0.003 C 
HETATM    4  C   LIG     1      19.084  38.947  20.094  1.00  0.00     0.030 C 
HETATM    5  C   LIG     1      19.437  37.590  19.469  1.00  0.00     0.269 C 
HETATM    6  N   LIG     1      18.293  36.667  19.509  1.00  0.00     0.083 N 
HETATM    7  H   LIG     1      17.503  37.080  18.957  1.00  0.00     0.315 HD
ENDROOT
TORSDOF 0
ENDMDL
MODEL 10
REMARK VINA RESULT:      -3.6      2.508      3.997
REMARK  0 active torsions:
REMARK  status: ('A' for Active; 'I' for Inactive)
ROOT
HETATM    1  C   LIG     1      16.594  36.591  22.075  1.00  0.00     0.269 C 
HETATM    2  C   LIG     1      17.526  37.712  21.592  1.00  0.00     0.030 C 
HETATM    3  C   LIG     1      17.549  38.862  22.603  1.00  0.00     0.003 C 
HETATM    4  C   LIG     1      17.889  38.344  24.002  1.00  0.00     0.030 C 
HETATM    5  C   LIG     1      16.945  37.199  24.396  1.00  0.00     0.269 C 
HETATM    6  N   LIG     1      16.980  36.110  23.410  1.00  0.00     0.083 N 
HETATM    7  H   LIG     1      17.952  35.723  23.364  1.00  0.00     0.315 HD
ENDROOT
TORSDOF 0
ENDMDL
MODEL 11
REMARK VINA RESULT:      -3.6      3.606      4.246
REMARK  0 active torsions:
REMARK  status: ('A' for Active; 'I' for Inactive)
ROOT
HETATM    1  C   LIG     1      17.952  39.009  22.378  1.00  0.00     0.269 C 
HETATM    2  C   LIG     1      17.981  38.136  21.115  1.00  0.00     0.030 C 
HETATM    3  C   LIG     1      17.461  36.729  21.423  1.00  0.00     0.003 C 
HETATM    4  C   LIG     1      16.083  36.798  22.087  1.00  0.00     0.030 C 
HETATM    5  C   LIG     1      16.123  37.720  23.314  1.00  0.00     0.269 C 
HETATM    6  N   LIG     1      16.603  39.064  22.960  1.00  0.00     0.083 N 
HETATM    7  H   LIG     1      15.947  39.486  22.262  1.00  0.00     0.315 HD
ENDROOT
TORSDOF 0
ENDMDL
MODEL 12
REMARK VINA RESULT:      -3.6     10.149     11.103
REMARK  0 active torsions:
REMARK  status: ('A' for Active; 'I' for Inactive)
ROOT
HETATM    1  C   LIG     1      14.635  32.727  16.937  1.00  0.00     0.269 C 
HETATM    2  C   LIG     1      13.906  31.376  16.989  1.00  0.00     0.030 C 
HETATM    3  C   LIG     1      13.754  30.795  15.580  1.00  0.00     0.003 C 
HETATM    4  C   LIG     1      15.110  30.731  14.874  1.00  0.00     0.030 C 
HETATM    5  C   LIG     1      15.796  32.105  14.900  1.00  0.00     0.269 C 
HETATM    6  N   LIG     1      15.942  32.606  16.274  1.00  0.00     0.083 N 
HETATM    7  H   LIG     1      16.539  31.939  16.818  1.00  0.00     0.315 HD
ENDROOT
TORSDOF 0
ENDMDL
MODEL 13
REMARK VINA RESULT:      -3.6      2.076      2.875
REMARK  0 active torsions:
REMARK  status: ('A' for Active; 'I' for Inactive)
ROOT
HETATM    1  C   LIG     1      17.037  37.049  24.556  1.00  0.00     0.269 C 
HETATM    2  C   LIG     1      17.095  35.926  23.510  1.00  0.00     0.030 C 
HETATM    3  C   LIG     1      16.643  36.445  22.141  1.00  0.00     0.003 C 
HETATM    4  C   LIG     1      17.441  37.690  21.747  1.00  0.00     0.030 C 
HETATM    5  C   LIG     1      17.371  38.748  22.857  1.00  0.00     0.269 C 
HETATM    6  N   LIG     1      17.840  38.209  24.142  1.00  0.00     0.083 N 
HETATM    7  H   LIG     1      18.840  37.913  24.043  1.00  0.00     0.315 HD
ENDROOT
TORSDOF 0
ENDMDL
MODEL 14
REMARK VINA RESULT:      -3.5     10.522     11.567
REMARK  0 active torsions:
REMARK  status: ('A' for Active; 'I' for Inactive)
ROOT
HETATM    1  C   LIG     1      13.159  30.440  15.513  1.00  0.00     0.269 C 
HETATM    2  C   LIG     1      14.581  30.362  14.940  1.00  0.00     0.030 C 
HETATM    3  C   LIG     1      15.284  31.718  15.061  1.00  0.00     0.003 C 
HETATM    4  C   LIG     1      15.233  32.223  16.505  1.00  0.00     0.030 C 
HETATM    5  C   LIG     1      13.787  32.233  17.021  1.00  0.00     0.269 C 
HETATM    6  N   LIG     1      13.168  30.905  16.908  1.00  0.00     0.083 N 
HETATM    7  H   LIG     1      13.712  30.225  17.490  1.00  0.00     0.315 HD
ENDROOT
TORSDOF 0
ENDMDL
MODEL 15
REMARK VINA RESULT:      -3.5     10.554     11.470
REMARK  0 active torsions:
REMARK  status: ('A' for Active; 'I' for Inactive)
ROOT
HETATM    1  C   LIG     1      15.808  32.240  15.778  1.00  0.00     0.269 C 
HETATM    2  C   LIG     1      15.381  31.459  14.526  1.00  0.00     0.030 C 
HETATM    3  C   LIG     1      14.531  30.247  14.914  1.00  0.00     0.003 C 
HETATM    4  C   LIG     1      13.356  30.674  15.798  1.00  0.00     0.030 C 
HETATM    5  C   LIG     1      13.855  31.483  17.002  1.00  0.00     0.269 C 
HETATM    6  N   LIG     1      14.643  32.650  16.576  1.00  0.00     0.083 N 
HETATM    7  H   LIG     1      14.036  33.276  15.996  1.00  0.00     0.315 HD
ENDROOT
TORSDOF 0
ENDMDL
MODEL 16
REMARK VINA RESULT:      -3.5      1.822      3.184
REMARK  0 active torsions:
REMARK  status: ('A' for Active; 'I' for Inactive)
ROOT
HETATM    1  C   LIG     1      17.132  38.569  23.687  1.00  0.00     0.269 C 
HETATM    2  C   LIG     1      16.561  37.935  22.411  1.00  0.00     0.030 C 
HETATM    3  C   LIG     1      17.065  36.498  22.253  1.00  0.00     0.003 C 
HETATM    4  C   LIG     1      16.780  35.685  23.519  1.00  0.00     0.030 C 
HETATM    5  C   LIG     1      17.343  36.400  24.755  1.00  0.00     0.269 C 
HETATM    6  N   LIG     1      16.809  37.765  24.876  1.00  0.00     0.083 N 
HETATM    7  H   LIG     1      15.768  37.714  24.979  1.00  0.00     0.315 HD
ENDROOT
TORSDOF 0
ENDMDL
MODEL 17
REMARK VINA RESULT:      -3.4      2.518      3.483
REMARK  0 active torsions:
REMARK  status: ('A' for Active; 'I' for Inactive)
ROOT
HETATM    1  C   LIG     1      17.207  36.342  21.450  1.00  0.00     0.269 C 
HETATM    2  C   LIG     1      16.640  35.236  22.353  1.00  0.00     0.030 C 
HETATM    3  C   LIG     1      17.192  35.368  23.775  1.00  0.00     0.003 C 
HETATM    4  C   LIG     1      16.955  36.780  24.316  1.00  0.00     0.030 C 
HETATM    5  C   LIG     1      17.511  37.830  23.342  1.00  0.00     0.269 C 
HETATM    6  N   LIG     1      16.930  37.677  22.000  1.00  0.00     0.083 N 
HETATM    7  H   LIG     1      15.893  37.811  22.061  1.00  0.00     0.315 HD
ENDROOT
TORSDOF 0
ENDMDL
MODEL 18
REMARK VINA RESULT:      -3.4      2.084      2.844
REMARK  0 active torsions:
REMARK  status: ('A' for Active; 'I' for Inactive)
ROOT
HETATM    1  C   LIG     1      17.285  38.433  23.702  1.00  0.00     0.269 C 
HETATM    2  C   LIG     1      17.898  37.624  24.854  1.00  0.00     0.030 C 
HETATM    3  C   LIG     1      17.207  36.264  24.982  1.00  0.00     0.003 C 
HETATM    4  C   LIG     1      17.221  35.525  23.641  1.00  0.00     0.030 C 
HETATM    5  C   LIG     1      16.633  36.410  22.533  1.00  0.00     0.269 C 
HETATM    6  N   LIG     1      17.347  37.691  22.434  1.00  0.00     0.083 N 
HETATM    7  H   LIG     1      18.350  37.504  22.198  1.00  0.00     0.315 HD
ENDROOT
TORSDOF 0
ENDMDL
MODEL 19
REMARK VINA RESULT:      -3.4     11.855     12.811
REMARK  0 active torsions:
REMARK  status: ('A' for Active; 'I' for Inactive)
ROOT
HETATM    1  C   LIG     1      15.229  30.601  13.516  1.00  0.00     0.269 C 
HETATM    2  C   LIG     1      15.862  31.297  14.730  1.00  0.00     0.030 C 
HETATM    3  C   LIG     1      14.776  31.797  15.687  1.00  0.00     0.003 C 
HETATM    4  C   LIG     1      13.823  30.660  16.062  1.00  0.00     0.030 C 
HETATM    5  C   LIG     1      13.265  29.987  14.801  1.00  0.00     0.269 C 
HETATM    6  N   LIG     1      14.345  29.501  13.929  1.00  0.00     0.083 N 
HETATM    7  H   LIG     1      14.909  28.789  14.452  1.00  0.00     0.315 HD
ENDROOT
TORSDOF 0
ENDMDL
MODEL 20
REMARK VINA RESULT:      -3.4     10.628     11.559
REMARK  0 active torsions:
REMARK  status: ('A' for Active; 'I' for Inactive)
ROOT
HETATM    1  C   LIG     1      14.533  30.325  14.901  1.00  0.00     0.269 C 
HETATM    2  C   LIG     1      13.349  30.696  15.806  1.00  0.00     0.030 C 
HETATM    3  C   LIG     1      13.837  31.461  17.040  1.00  0.00     0.003 C 
HETATM    4  C   LIG     1      14.689  32.663  16.626  1.00  0.00     0.030 C 
HETATM    5  C   LIG     1      15.824  32.221  15.691  1.00  0.00     0.269 C 
HETATM    6  N   LIG     1      15.303  31.516  14.510  1.00  0.00     0.083 N 
HETATM    7  H   LIG     1      14.678  32.165  13.975  1.00  0.00     0.315 HD
ENDROOT
TORSDOF 0
ENDMDL
