REMARK  0 active torsions:
REMARK  status: ('A' for Active; 'I' for Inactive)
ROOT
HETATM    1  C   LIG     1       1.376  -0.648  -0.052  1.00  0.00     0.269 C 
HETATM    2  C   LIG     1       1.096   0.818   0.310  1.00  0.00     0.030 C 
HETATM    3  C   LIG     1      -0.220   1.284  -0.319  1.00  0.00     0.003 C 
HETATM    4  C   LIG     1      -1.361   0.334   0.053  1.00  0.00     0.030 C 
HETATM    5  C   LIG     1      -0.992  -1.114  -0.299  1.00  0.00     0.269 C 
HETATM    6  N   LIG     1       0.263  -1.521   0.350  1.00  0.00     0.083 N 
HETATM    7  H   LIG     1       0.143  -1.463   1.389  1.00  0.00     0.315 HD
ENDROOT
TORSDOF 0
