MODEL 1
REMARK VINA RESULT:      -6.2      0.000      0.000
REMARK  10 active torsions:
REMARK  status: ('A' for Active; 'I' for Inactive)
REMARK    1  A    between atoms: C_2  and  C_3 
REMARK    2  A    between atoms: C_3  and  C_4 
REMARK    3  A    between atoms: C_4  and  C_5 
REMARK    4  A    between atoms: C_5  and  C_6 
REMARK    5  A    between atoms: C_6  and  C_7 
REMARK    6  A    between atoms: C_7  and  C_8 
REMARK    7  A    between atoms: C_8  and  C_9 
REMARK    8  A    between atoms: C_9  and  C_10 
REMARK    9  A    between atoms: C_10  and  O_11 
REMARK   10  A    between atoms: O_11  and  C_12 
ROOT
HETATM    1  C   LIG     1      18.943  39.380  21.632  1.00  0.00     0.000 C 
ENDROOT
BRANCH   1   2
HETATM    2  C   LIG     1      18.561  39.199  20.154  1.00  0.00     0.000 C 
BRANCH   2   3
HETATM    3  C   LIG     1      19.494  38.235  19.389  1.00  0.00     0.000 C 
BRANCH   3   4
HETATM    4  C   LIG     1      19.180  36.761  19.697  1.00  0.00     0.000 C 
BRANCH   4   5
HETATM    5  C   LIG     1      17.680  36.508  19.917  1.00  0.00    -0.000 C 
BRANCH   5   6
HETATM    6  C   LIG     1      17.396  35.739  21.215  1.00  0.00    -0.005 C 
HETATM    7  C   LIG     1      15.900  35.711  21.520  1.00  0.00     0.005 C 
ENDBRANCH   5   6
ENDBRANCH   4   5
ENDBRANCH   3   4
ENDBRANCH   2   3
ENDBRANCH   1   2
BRANCH   1   8
HETATM    8  C   LIG     1      17.787  39.054  22.592  1.00  0.00     0.010 C 
BRANCH   8   9
HETATM    9  C   LIG     1      18.264  38.276  23.826  1.00  0.00     0.111 C 
BRANCH   9  10
HETATM   10  C   LIG     1      17.126  37.920  24.735  1.00  0.00     0.258 C 
HETATM   11  O   LIG     1      15.943  37.940  24.298  1.00  0.00    -0.265 OA
BRANCH  10  12
HETATM   12  O   LIG     1      17.391  37.570  26.062  1.00  0.00    -0.322 OA
BRANCH  12  13
HETATM   13  C   LIG     1      18.293  36.526  26.414  1.00  0.00     0.174 C 
HETATM   14  C   LIG     1      17.747  35.195  25.923  1.00  0.00     0.034 C 
ENDBRANCH  12  13
ENDBRANCH  10  12
ENDBRANCH   9  10
ENDBRANCH   8   9
ENDBRANCH   1   8
TORSDOF 10
ENDMDL
MODEL 2
REMARK VINA RESULT:      -6.2      2.769      5.520
REMARK  10 active torsions:
REMARK  status: ('A' for Active; 'I' for Inactive)
REMARK    1  A    between atoms: C_2  and  C_3 
REMARK    2  A    between atoms: C_3  and  C_4 
REMARK    3  A    between atoms: C_4  and  C_5 
REMARK    4  A    between atoms: C_5  and  C_6 
REMARK    5  A    between atoms: C_6  and  C_7 
REMARK    6  A    between atoms: C_7  and  C_8 
REMARK    7  A    between atoms: C_8  and  C_9 
REMARK    8  A    between atoms: C_9  and  C_10 
REMARK    9  A    between atoms: C_10  and  O_11 
REMARK   10  A    between atoms: O_11  and  C_12 
ROOT
HETATM    1  C   LIG     1      17.150  37.700  21.974  1.00  0.00     0.000 C 
ENDROOT
BRANCH   1   2
HETATM    2  C   LIG     1      17.189  38.689  23.151  1.00  0.00     0.000 C 
BRANCH   2   3
HETATM    3  C   LIG     1      18.170  38.276  24.270  1.00  0.00     0.000 C 
BRANCH   3   4
HETATM    4  C   LIG     1      17.466  37.507  25.401  1.00  0.00     0.000 C 
BRANCH   4   5
HETATM    5  C   LIG     1      18.455  36.813  26.352  1.00  0.00    -0.000 C 
BRANCH   5   6
HETATM    6  C   LIG     1      18.269  35.290  26.388  1.00  0.00    -0.005 C 
HETATM    7  C   LIG     1      17.380  34.818  25.241  1.00  0.00     0.005 C 
ENDBRANCH   5   6
ENDBRANCH   4   5
ENDBRANCH   3   4
ENDBRANCH   2   3
ENDBRANCH   1   2
BRANCH   1   8
HETATM    8  C   LIG     1      16.181  36.529  22.208  1.00  0.00     0.010 C 
BRANCH   8   9
HETATM    9  C   LIG     1      16.764  35.193  21.728  1.00  0.00     0.111 C 
BRANCH   9  10
HETATM   10  C   LIG     1      15.704  34.287  21.178  1.00  0.00     0.258 C 
HETATM   11  O   LIG     1      14.528  34.352  21.628  1.00  0.00    -0.265 OA
BRANCH  10  12
HETATM   12  O   LIG     1      16.035  33.377  20.170  1.00  0.00    -0.322 OA
BRANCH  12  13
HETATM   13  C   LIG     1      15.052  32.632  19.459  1.00  0.00     0.174 C 
HETATM   14  C   LIG     1      14.910  31.253  20.082  1.00  0.00     0.034 C 
ENDBRANCH  12  13
ENDBRANCH  10  12
ENDBRANCH   9  10
ENDBRANCH   8   9
ENDBRANCH   1   8
TORSDOF 10
ENDMDL
MODEL 3
REMARK VINA RESULT:      -6.0      2.989      6.268
REMARK  10 active torsions:
REMARK  status: ('A' for Active; 'I' for Inactive)
REMARK    1  A    between atoms: C_2  and  C_3 
REMARK    2  A    between atoms: C_3  and  C_4 
REMARK    3  A    between atoms: C_4  and  C_5 
REMARK    4  A    between atoms: C_5  and  C_6 
REMARK    5  A    between atoms: C_6  and  C_7 
REMARK    6  A    between atoms: C_7  and  C_8 
REMARK    7  A    between atoms: C_8  and  C_9 
REMARK    8  A    between atoms: C_9  and  C_10 
REMARK    9  A    between atoms: C_10  and  O_11 
REMARK   10  A    between atoms: O_11  and  C_12 
ROOT
HETATM    1  C   LIG     1      17.253  37.019  21.749  1.00  0.00     0.000 C 
ENDROOT
BRANCH   1   2
HETATM    2  C   LIG     1      16.802  38.251  22.550  1.00  0.00     0.000 C 
BRANCH   2   3
HETATM    3  C   LIG     1      16.432  37.931  24.014  1.00  0.00     0.000 C 
BRANCH   3   4
HETATM    4  C   LIG     1      17.369  36.880  24.633  1.00  0.00     0.000 C 
BRANCH   4   5
HETATM    5  C   LIG     1      17.928  37.313  25.997  1.00  0.00    -0.000 C 
BRANCH   5   6
HETATM    6  C   LIG     1      18.454  36.130  26.823  1.00  0.00    -0.005 C 
HETATM    7  C   LIG     1      18.046  34.799  26.195  1.00  0.00     0.005 C 
ENDBRANCH   5   6
ENDBRANCH   4   5
ENDBRANCH   3   4
ENDBRANCH   2   3
ENDBRANCH   1   2
BRANCH   1   8
HETATM    8  C   LIG     1      18.199  37.372  20.589  1.00  0.00     0.010 C 
BRANCH   8   9
HETATM    9  C   LIG     1      18.920  38.708  20.819  1.00  0.00     0.111 C 
BRANCH   9  10
HETATM   10  C   LIG     1      19.536  39.233  19.558  1.00  0.00     0.258 C 
HETATM   11  O   LIG     1      20.790  39.242  19.427  1.00  0.00    -0.265 OA
BRANCH  10  12
HETATM   12  O   LIG     1      18.709  39.711  18.537  1.00  0.00    -0.322 OA
BRANCH  12  13
HETATM   13  C   LIG     1      18.744  39.188  17.214  1.00  0.00     0.174 C 
HETATM   14  C   LIG     1      18.494  40.307  16.216  1.00  0.00     0.034 C 
ENDBRANCH  12  13
ENDBRANCH  10  12
ENDBRANCH   9  10
ENDBRANCH   8   9
ENDBRANCH   1   8
TORSDOF 10
ENDMDL
MODEL 4
REMARK VINA RESULT:      -5.6      3.632      6.578
REMARK  10 active torsions:
REMARK  status: ('A' for Active; 'I' for Inactive)
REMARK    1  A    between atoms: C_2  and  C_3 
REMARK    2  A    between atoms: C_3  and  C_4 
REMARK    3  A    between atoms: C_4  and  C_5 
REMARK    4  A    between atoms: C_5  and  C_6 
REMARK    5  A    between atoms: C_6  and  C_7 
REMARK    6  A    between atoms: C_7  and  C_8 
REMARK    7  A    between atoms: C_8  and  C_9 
REMARK    8  A    between atoms: C_9  and  C_10 
REMARK    9  A    between atoms: C_10  and  O_11 
REMARK   10  A    between atoms: O_11  and  C_12 
ROOT
HETATM    1  C   LIG     1      16.964  36.040  20.837  1.00  0.00     0.000 C 
ENDROOT
BRANCH   1   2
HETATM    2  C   LIG     1      16.987  35.857  22.363  1.00  0.00     0.000 C 
BRANCH   2   3
HETATM    3  C   LIG     1      16.575  37.125  23.143  1.00  0.00     0.000 C 
BRANCH   3   4
HETATM    4  C   LIG     1      17.720  37.662  24.019  1.00  0.00     0.000 C 
BRANCH   4   5
HETATM    5  C   LIG     1      17.416  37.554  25.522  1.00  0.00    -0.000 C 
BRANCH   5   6
HETATM    6  C   LIG     1      18.395  36.627  26.257  1.00  0.00    -0.005 C 
HETATM    7  C   LIG     1      17.974  35.165  26.119  1.00  0.00     0.005 C 
ENDBRANCH   5   6
ENDBRANCH   4   5
ENDBRANCH   3   4
ENDBRANCH   2   3
ENDBRANCH   1   2
BRANCH   1   8
HETATM    8  C   LIG     1      15.851  35.228  20.154  1.00  0.00     0.010 C 
BRANCH   8   9
HETATM    9  C   LIG     1      15.488  33.965  20.946  1.00  0.00     0.111 C 
BRANCH   9  10
HETATM   10  C   LIG     1      15.211  32.801  20.043  1.00  0.00     0.258 C 
HETATM   11  O   LIG     1      14.482  31.854  20.445  1.00  0.00    -0.265 OA
BRANCH  10  12
HETATM   12  O   LIG     1      15.768  32.779  18.761  1.00  0.00    -0.322 OA
BRANCH  12  13
HETATM   13  C   LIG     1      14.979  32.631  17.586  1.00  0.00     0.174 C 
HETATM   14  C   LIG     1      15.041  33.911  16.767  1.00  0.00     0.034 C 
ENDBRANCH  12  13
ENDBRANCH  10  12
ENDBRANCH   9  10
ENDBRANCH   8   9
ENDBRANCH   1   8
TORSDOF 10
ENDMDL
MODEL 5
REMARK VINA RESULT:      -5.6      1.874      2.981
REMARK  10 active torsions:
REMARK  status: ('A' for Active; 'I' for Inactive)
REMARK    1  A    between atoms: C_2  and  C_3 
REMARK    2  A    between atoms: C_3  and  C_4 
REMARK    3  A    between atoms: C_4  and  C_5 
REMARK    4  A    between atoms: C_5  and  C_6 
REMARK    5  A    between atoms: C_6  and  C_7 
REMARK    6  A    between atoms: C_7  and  C_8 
REMARK    7  A    between atoms: C_8  and  C_9 
REMARK    8  A    between atoms: C_9  and  C_10 
REMARK    9  A    between atoms: C_10  and  O_11 
REMARK   10  A    between atoms: O_11  and  C_12 
ROOT
HETATM    1  C   LIG     1      17.924  37.507  20.629  1.00  0.00     0.000 C 
ENDROOT
BRANCH   1   2
HETATM    2  C   LIG     1      17.587  36.042  20.951  1.00  0.00     0.000 C 
BRANCH   2   3
HETATM    3  C   LIG     1      16.311  35.534  20.245  1.00  0.00     0.000 C 
BRANCH   3   4
HETATM    4  C   LIG     1      15.194  35.190  21.245  1.00  0.00     0.000 C 
BRANCH   4   5
HETATM    5  C   LIG     1      14.808  33.702  21.214  1.00  0.00    -0.000 C 
BRANCH   5   6
HETATM    6  C   LIG     1      15.421  32.959  20.018  1.00  0.00    -0.005 C 
HETATM    7  C   LIG     1      14.941  31.510  19.969  1.00  0.00     0.005 C 
ENDBRANCH   5   6
ENDBRANCH   4   5
ENDBRANCH   3   4
ENDBRANCH   2   3
ENDBRANCH   1   2
BRANCH   1   8
HETATM    8  C   LIG     1      18.249  38.336  21.883  1.00  0.00     0.010 C 
BRANCH   8   9
HETATM    9  C   LIG     1      16.989  38.938  22.519  1.00  0.00     0.111 C 
BRANCH   9  10
HETATM   10  C   LIG     1      16.359  38.000  23.505  1.00  0.00     0.258 C 
HETATM   11  O   LIG     1      15.103  37.906  23.569  1.00  0.00    -0.265 OA
BRANCH  10  12
HETATM   12  O   LIG     1      17.176  37.240  24.347  1.00  0.00    -0.322 OA
BRANCH  12  13
HETATM   13  C   LIG     1      17.545  37.672  25.652  1.00  0.00     0.174 C 
HETATM   14  C   LIG     1      18.440  36.629  26.300  1.00  0.00     0.034 C 
ENDBRANCH  12  13
ENDBRANCH  10  12
ENDBRANCH   9  10
ENDBRANCH   8   9
ENDBRANCH   1   8
TORSDOF 10
ENDMDL
MODEL 6
REMARK VINA RESULT:      -5.5      3.131      4.292
REMARK  10 active torsions:
REMARK  status: ('A' for Active; 'I' for Inactive)
REMARK    1  A    between atoms: C_2  and  C_3 
REMARK    2  A    between atoms: C_3  and  C_4 
REMARK    3  A    between atoms: C_4  and  C_5 
REMARK    4  A    between atoms: C_5  and  C_6 
REMARK    5  A    between atoms: C_6  and  C_7 
REMARK    6  A    between atoms: C_7  and  C_8 
REMARK    7  A    between atoms: C_8  and  C_9 
REMARK    8  A    between atoms: C_9  and  C_10 
REMARK    9  A    between atoms: C_10  and  O_11 
REMARK   10  A    between atoms: O_11  and  C_12 
ROOT
HETATM    1  C   LIG     1      16.841  35.137  21.489  1.00  0.00     0.000 C 
ENDROOT
BRANCH   1   2
HETATM    2  C   LIG     1      15.852  34.760  20.375  1.00  0.00     0.000 C 
BRANCH   2   3
HETATM    3  C   LIG     1      15.084  33.449  20.649  1.00  0.00     0.000 C 
BRANCH   3   4
HETATM    4  C   LIG     1      15.467  32.335  19.660  1.00  0.00     0.000 C 
BRANCH   4   5
HETATM    5  C   LIG     1      15.030  32.646  18.219  1.00  0.00    -0.000 C 
BRANCH   5   6
HETATM    6  C   LIG     1      14.218  31.506  17.589  1.00  0.00    -0.005 C 
HETATM    7  C   LIG     1      13.022  32.049  16.810  1.00  0.00     0.005 C 
ENDBRANCH   5   6
ENDBRANCH   4   5
ENDBRANCH   3   4
ENDBRANCH   2   3
ENDBRANCH   1   2
BRANCH   1   8
HETATM    8  C   LIG     1      17.076  36.653  21.593  1.00  0.00     0.010 C 
BRANCH   8   9
HETATM    9  C   LIG     1      16.131  37.316  22.604  1.00  0.00     0.111 C 
BRANCH   9  10
HETATM   10  C   LIG     1      16.762  37.442  23.958  1.00  0.00     0.258 C 
HETATM   11  O   LIG     1      16.854  38.574  24.505  1.00  0.00    -0.265 OA
BRANCH  10  12
HETATM   12  O   LIG     1      17.244  36.297  24.600  1.00  0.00    -0.322 OA
BRANCH  12  13
HETATM   13  C   LIG     1      17.904  36.346  25.860  1.00  0.00     0.174 C 
HETATM   14  C   LIG     1      18.229  34.934  26.320  1.00  0.00     0.034 C 
ENDBRANCH  12  13
ENDBRANCH  10  12
ENDBRANCH   9  10
ENDBRANCH   8   9
ENDBRANCH   1   8
TORSDOF 10
ENDMDL
MODEL 7
REMARK VINA RESULT:      -5.5      4.469      7.196
REMARK  10 active torsions:
REMARK  status: ('A' for Active; 'I' for Inactive)
REMARK    1  A    between atoms: C_2  and  C_3 
REMARK    2  A    between atoms: C_3  and  C_4 
REMARK    3  A    between atoms: C_4  and  C_5 
REMARK    4  A    between atoms: C_5  and  C_6 
REMARK    5  A    between atoms: C_6  and  C_7 
REMARK    6  A    between atoms: C_7  and  C_8 
REMARK    7  A    between atoms: C_8  and  C_9 
REMARK    8  A    between atoms: C_9  and  C_10 
REMARK    9  A    between atoms: C_10  and  O_11 
REMARK   10  A    between atoms: O_11  and  C_12 
ROOT
HETATM    1  C   LIG     1      15.476  34.455  21.517  1.00  0.00     0.000 C 
ENDROOT
BRANCH   1   2
HETATM    2  C   LIG     1      16.665  35.253  22.073  1.00  0.00     0.000 C 
BRANCH   2   3
HETATM    3  C   LIG     1      16.485  36.783  21.966  1.00  0.00     0.000 C 
BRANCH   3   4
HETATM    4  C   LIG     1      17.721  37.471  21.360  1.00  0.00     0.000 C 
BRANCH   4   5
HETATM    5  C   LIG     1      18.298  36.702  20.160  1.00  0.00    -0.000 C 
BRANCH   5   6
HETATM    6  C   LIG     1      18.977  37.626  19.139  1.00  0.00    -0.005 C 
HETATM    7  C   LIG     1      19.872  38.650  19.834  1.00  0.00     0.005 C 
ENDBRANCH   5   6
ENDBRANCH   4   5
ENDBRANCH   3   4
ENDBRANCH   2   3
ENDBRANCH   1   2
BRANCH   1   8
HETATM    8  C   LIG     1      15.764  33.831  20.141  1.00  0.00     0.010 C 
BRANCH   8   9
HETATM    9  C   LIG     1      15.071  32.473  19.966  1.00  0.00     0.111 C 
BRANCH   9  10
HETATM   10  C   LIG     1      14.856  32.139  18.520  1.00  0.00     0.258 C 
HETATM   11  O   LIG     1      13.973  31.299  18.194  1.00  0.00    -0.265 OA
BRANCH  10  12
HETATM   12  O   LIG     1      15.642  32.764  17.547  1.00  0.00    -0.322 OA
BRANCH  12  13
HETATM   13  C   LIG     1      15.397  32.613  16.153  1.00  0.00     0.174 C 
HETATM   14  C   LIG     1      16.716  32.649  15.398  1.00  0.00     0.034 C 
ENDBRANCH  12  13
ENDBRANCH  10  12
ENDBRANCH   9  10
ENDBRANCH   8   9
ENDBRANCH   1   8
TORSDOF 10
ENDMDL
MODEL 8
REMARK VINA RESULT:      -5.2      8.437     10.864
REMARK  10 active torsions:
REMARK  status: ('A' for Active; 'I' for Inactive)
REMARK    1  A    between atoms: C_2  and  C_3 
REMARK    2  A    between atoms: C_3  and  C_4 
REMARK    3  A    between atoms: C_4  and  C_5 
REMARK    4  A    between atoms: C_5  and  C_6 
REMARK    5  A    between atoms: C_6  and  C_7 
REMARK    6  A    between atoms: C_7  and  C_8 
REMARK    7  A    between atoms: C_8  and  C_9 
REMARK    8  A    between atoms: C_9  and  C_10 
REMARK    9  A    between atoms: C_10  and  O_11 
REMARK   10  A    between atoms: O_11  and  C_12 
ROOT
HETATM    1  C   LIG     1      16.012  31.905  13.423  1.00  0.00     0.000 C 
ENDROOT
BRANCH   1   2
HETATM    2  C   LIG     1      15.207  30.597  13.483  1.00  0.00     0.000 C 
BRANCH   2   3
HETATM    3  C   LIG     1      14.791  30.194  14.914  1.00  0.00     0.000 C 
BRANCH   3   4
HETATM    4  C   LIG     1      13.265  30.224  15.104  1.00  0.00     0.000 C 
BRANCH   4   5
HETATM    5  C   LIG     1      12.850  30.750  16.488  1.00  0.00    -0.000 C 
BRANCH   5   6
HETATM    6  C   LIG     1      13.593  32.036  16.878  1.00  0.00    -0.005 C 
HETATM    7  C   LIG     1      14.410  31.833  18.152  1.00  0.00     0.005 C 
ENDBRANCH   5   6
ENDBRANCH   4   5
ENDBRANCH   3   4
ENDBRANCH   2   3
ENDBRANCH   1   2
BRANCH   1   8
HETATM    8  C   LIG     1      16.341  32.469  14.815  1.00  0.00     0.010 C 
BRANCH   8   9
HETATM    9  C   LIG     1      17.754  33.065  14.876  1.00  0.00     0.111 C 
BRANCH   9  10
HETATM   10  C   LIG     1      17.811  34.430  14.260  1.00  0.00     0.258 C 
HETATM   11  O   LIG     1      17.126  35.369  14.748  1.00  0.00    -0.265 OA
BRANCH  10  12
HETATM   12  O   LIG     1      18.626  34.647  13.144  1.00  0.00    -0.322 OA
BRANCH  12  13
HETATM   13  C   LIG     1      19.371  33.603  12.526  1.00  0.00     0.174 C 
HETATM   14  C   LIG     1      19.271  33.733  11.015  1.00  0.00     0.034 C 
ENDBRANCH  12  13
ENDBRANCH  10  12
ENDBRANCH   9  10
ENDBRANCH   8   9
ENDBRANCH   1   8
TORSDOF 10
ENDMDL
MODEL 9
REMARK VINA RESULT:      -5.1      6.759      9.458
REMARK  10 active torsions:
REMARK  status: ('A' for Active; 'I' for Inactive)
REMARK    1  A    between atoms: C_2  and  C_3 
REMARK    2  A    between atoms: C_3  and  C_4 
REMARK    3  A    between atoms: C_4  and  C_5 
REMARK    4  A    between atoms: C_5  and  C_6 
REMARK    5  A    between atoms: C_6  and  C_7 
REMARK    6  A    between atoms: C_7  and  C_8 
REMARK    7  A    between atoms: C_8  and  C_9 
REMARK    8  A    between atoms: C_9  and  C_10 
REMARK    9  A    between atoms: C_10  and  O_11 
REMARK   10  A    between atoms: O_11  and  C_12 
ROOT
HETATM    1  C   LIG     1      14.401  32.116  17.698  1.00  0.00     0.000 C 
ENDROOT
BRANCH   1   2
HETATM    2  C   LIG     1      15.465  31.934  18.793  1.00  0.00     0.000 C 
BRANCH   2   3
HETATM    3  C   LIG     1      15.128  32.670  20.108  1.00  0.00     0.000 C 
BRANCH   3   4
HETATM    4  C   LIG     1      15.612  34.130  20.095  1.00  0.00     0.000 C 
BRANCH   4   5
HETATM    5  C   LIG     1      15.416  34.832  21.448  1.00  0.00    -0.000 C 
BRANCH   5   6
HETATM    6  C   LIG     1      16.746  35.193  22.125  1.00  0.00    -0.005 C 
HETATM    7  C   LIG     1      17.132  36.642  21.838  1.00  0.00     0.005 C 
ENDBRANCH   5   6
ENDBRANCH   4   5
ENDBRANCH   3   4
ENDBRANCH   2   3
ENDBRANCH   1   2
BRANCH   1   8
HETATM    8  C   LIG     1      14.851  33.070  16.579  1.00  0.00     0.010 C 
BRANCH   8   9
HETATM    9  C   LIG     1      16.246  32.717  16.045  1.00  0.00     0.111 C 
BRANCH   9  10
HETATM   10  C   LIG     1      16.190  32.195  14.641  1.00  0.00     0.258 C 
HETATM   11  O   LIG     1      16.140  33.001  13.673  1.00  0.00    -0.265 OA
BRANCH  10  12
HETATM   12  O   LIG     1      16.192  30.814  14.422  1.00  0.00    -0.322 OA
BRANCH  12  13
HETATM   13  C   LIG     1      15.167  30.154  13.688  1.00  0.00     0.174 C 
HETATM   14  C   LIG     1      13.987  29.871  14.603  1.00  0.00     0.034 C 
ENDBRANCH  12  13
ENDBRANCH  10  12
ENDBRANCH   9  10
ENDBRANCH   8   9
ENDBRANCH   1   8
TORSDOF 10
ENDMDL
MODEL 10
REMARK VINA RESULT:      -5.1      4.798      7.849
REMARK  10 active torsions:
REMARK  status: ('A' for Active; 'I' for Inactive)
REMARK    1  A    between atoms: C_2  and  C_3 
REMARK    2  A    between atoms: C_3  and  C_4 
REMARK    3  A    between atoms: C_4  and  C_5 
REMARK    4  A    between atoms: C_5  and  C_6 
REMARK    5  A    between atoms: C_6  and  C_7 
REMARK    6  A    between atoms: C_7  and  C_8 
REMARK    7  A    between atoms: C_8  and  C_9 
REMARK    8  A    between atoms: C_9  and  C_10 
REMARK    9  A    between atoms: C_10  and  O_11 
REMARK   10  A    between atoms: O_11  and  C_12 
ROOT
HETATM    1  C   LIG     1      15.701  34.426  20.054  1.00  0.00     0.000 C 
ENDROOT
BRANCH   1   2
HETATM    2  C   LIG     1      15.730  34.687  21.569  1.00  0.00     0.000 C 
BRANCH   2   3
HETATM    3  C   LIG     1      17.137  35.022  22.110  1.00  0.00     0.000 C 
BRANCH   3   4
HETATM    4  C   LIG     1      17.077  35.797  23.438  1.00  0.00     0.000 C 
BRANCH   4   5
HETATM    5  C   LIG     1      17.035  34.871  24.664  1.00  0.00    -0.000 C 
BRANCH   5   6
HETATM    6  C   LIG     1      18.058  35.266  25.738  1.00  0.00    -0.005 C 
HETATM    7  C   LIG     1      18.020  36.769  26.006  1.00  0.00     0.005 C 
ENDBRANCH   5   6
ENDBRANCH   4   5
ENDBRANCH   3   4
ENDBRANCH   2   3
ENDBRANCH   1   2
BRANCH   1   8
HETATM    8  C   LIG     1      15.550  32.935  19.707  1.00  0.00     0.010 C 
BRANCH   8   9
HETATM    9  C   LIG     1      14.687  32.718  18.457  1.00  0.00     0.111 C 
BRANCH   9  10
HETATM   10  C   LIG     1      15.294  33.355  17.243  1.00  0.00     0.258 C 
HETATM   11  O   LIG     1      14.883  34.482  16.853  1.00  0.00    -0.265 OA
BRANCH  10  12
HETATM   12  O   LIG     1      16.311  32.689  16.554  1.00  0.00    -0.322 OA
BRANCH  12  13
HETATM   13  C   LIG     1      16.334  32.584  15.135  1.00  0.00     0.174 C 
HETATM   14  C   LIG     1      15.571  31.343  14.703  1.00  0.00     0.034 C 
ENDBRANCH  12  13
ENDBRANCH  10  12
ENDBRANCH   9  10
ENDBRANCH   8   9
ENDBRANCH   1   8
TORSDOF 10
ENDMDL
MODEL 11
REMARK VINA RESULT:      -5.0      7.218      9.934
REMARK  10 active torsions:
REMARK  status: ('A' for Active; 'I' for Inactive)
REMARK    1  A    between atoms: C_2  and  C_3 
REMARK    2  A    between atoms: C_3  and  C_4 
REMARK    3  A    between atoms: C_4  and  C_5 
REMARK    4  A    between atoms: C_5  and  C_6 
REMARK    5  A    between atoms: C_6  and  C_7 
REMARK    6  A    between atoms: C_7  and  C_8 
REMARK    7  A    between atoms: C_8  and  C_9 
REMARK    8  A    between atoms: C_9  and  C_10 
REMARK    9  A    between atoms: C_10  and  O_11 
REMARK   10  A    between atoms: O_11  and  C_12 
ROOT
HETATM    1  C   LIG     1      13.683  32.185  17.086  1.00  0.00     0.000 C 
ENDROOT
BRANCH   1   2
HETATM    2  C   LIG     1      14.942  32.714  17.791  1.00  0.00     0.000 C 
BRANCH   2   3
HETATM    3  C   LIG     1      15.192  32.069  19.171  1.00  0.00     0.000 C 
BRANCH   3   4
HETATM    4  C   LIG     1      15.314  33.121  20.288  1.00  0.00     0.000 C 
BRANCH   4   5
HETATM    5  C   LIG     1      15.669  34.517  19.751  1.00  0.00    -0.000 C 
BRANCH   5   6
HETATM    6  C   LIG     1      15.842  35.554  20.870  1.00  0.00    -0.005 C 
HETATM    7  C   LIG     1      16.855  35.077  21.908  1.00  0.00     0.005 C 
ENDBRANCH   5   6
ENDBRANCH   4   5
ENDBRANCH   3   4
ENDBRANCH   2   3
ENDBRANCH   1   2
BRANCH   1   8
HETATM    8  C   LIG     1      13.834  30.733  16.600  1.00  0.00     0.010 C 
BRANCH   8   9
HETATM    9  C   LIG     1      13.783  30.629  15.069  1.00  0.00     0.111 C 
BRANCH   9  10
HETATM   10  C   LIG     1      15.033  30.018  14.510  1.00  0.00     0.258 C 
HETATM   11  O   LIG     1      15.042  28.804  14.172  1.00  0.00    -0.265 OA
BRANCH  10  12
HETATM   12  O   LIG     1      16.179  30.807  14.371  1.00  0.00    -0.322 OA
BRANCH  12  13
HETATM   13  C   LIG     1      16.124  32.183  14.014  1.00  0.00     0.174 C 
HETATM   14  C   LIG     1      17.133  32.965  14.840  1.00  0.00     0.034 C 
ENDBRANCH  12  13
ENDBRANCH  10  12
ENDBRANCH   9  10
ENDBRANCH   8   9
ENDBRANCH   1   8
TORSDOF 10
ENDMDL
MODEL 12
REMARK VINA RESULT:      -5.0      9.147     11.259
REMARK  10 active torsions:
REMARK  status: ('A' for Active; 'I' for Inactive)
REMARK    1  A    between atoms: C_2  and  C_3 
REMARK    2  A    between atoms: C_3  and  C_4 
REMARK    3  A    between atoms: C_4  and  C_5 
REMARK    4  A    between atoms: C_5  and  C_6 
REMARK    5  A    between atoms: C_6  and  C_7 
REMARK    6  A    between atoms: C_7  and  C_8 
REMARK    7  A    between atoms: C_8  and  C_9 
REMARK    8  A    between atoms: C_9  and  C_10 
REMARK    9  A    between atoms: C_10  and  O_11 
REMARK   10  A    between atoms: O_11  and  C_12 
ROOT
HETATM    1  C   LIG     1      16.697  32.634  15.085  1.00  0.00     0.000 C 
ENDROOT
BRANCH   1   2
HETATM    2  C   LIG     1      15.916  31.783  14.070  1.00  0.00     0.000 C 
BRANCH   2   3
HETATM    3  C   LIG     1      15.395  30.452  14.653  1.00  0.00     0.000 C 
BRANCH   3   4
HETATM    4  C   LIG     1      13.878  30.488  14.910  1.00  0.00     0.000 C 
BRANCH   4   5
HETATM    5  C   LIG     1      13.530  30.510  16.407  1.00  0.00    -0.000 C 
BRANCH   5   6
HETATM    6  C   LIG     1      13.414  31.935  16.965  1.00  0.00    -0.005 C 
HETATM    7  C   LIG     1      14.565  32.246  17.920  1.00  0.00     0.005 C 
ENDBRANCH   5   6
ENDBRANCH   4   5
ENDBRANCH   3   4
ENDBRANCH   2   3
ENDBRANCH   1   2
BRANCH   1   8
HETATM    8  C   LIG     1      17.938  33.306  14.473  1.00  0.00     0.010 C 
BRANCH   8   9
HETATM    9  C   LIG     1      17.642  33.925  13.101  1.00  0.00     0.111 C 
BRANCH   9  10
HETATM   10  C   LIG     1      18.732  33.638  12.113  1.00  0.00     0.258 C 
HETATM   11  O   LIG     1      18.895  32.465  11.679  1.00  0.00    -0.265 OA
BRANCH  10  12
HETATM   12  O   LIG     1      19.561  34.679  11.683  1.00  0.00    -0.322 OA
BRANCH  12  13
HETATM   13  C   LIG     1      20.963  34.517  11.502  1.00  0.00     0.174 C 
HETATM   14  C   LIG     1      21.647  34.452  12.858  1.00  0.00     0.034 C 
ENDBRANCH  12  13
ENDBRANCH  10  12
ENDBRANCH   9  10
ENDBRANCH   8   9
ENDBRANCH   1   8
TORSDOF 10
ENDMDL
MODEL 13
REMARK VINA RESULT:      -4.9      1.780      3.051
REMARK  10 active torsions:
REMARK  status: ('A' for Active; 'I' for Inactive)
REMARK    1  A    between atoms: C_2  and  C_3 
REMARK    2  A    between atoms: C_3  and  C_4 
REMARK    3  A    between atoms: C_4  and  C_5 
REMARK    4  A    between atoms: C_5  and  C_6 
REMARK    5  A    between atoms: C_6  and  C_7 
REMARK    6  A    between atoms: C_7  and  C_8 
REMARK    7  A    between atoms: C_8  and  C_9 
REMARK    8  A    between atoms: C_9  and  C_10 
REMARK    9  A    between atoms: C_10  and  O_11 
REMARK   10  A    between atoms: O_11  and  C_12 
ROOT
HETATM    1  C   LIG     1      17.951  39.210  21.107  1.00  0.00     0.000 C 
ENDROOT
BRANCH   1   2
HETATM    2  C   LIG     1      18.776  38.054  20.519  1.00  0.00     0.000 C 
BRANCH   2   3
HETATM    3  C   LIG     1      20.096  38.510  19.861  1.00  0.00     0.000 C 
BRANCH   3   4
HETATM    4  C   LIG     1      19.851  39.381  18.617  1.00  0.00     0.000 C 
BRANCH   4   5
HETATM    5  C   LIG     1      18.872  38.734  17.624  1.00  0.00    -0.000 C 
BRANCH   5   6
HETATM    6  C   LIG     1      18.540  39.653  16.440  1.00  0.00    -0.005 C 
HETATM    7  C   LIG     1      18.062  41.021  16.923  1.00  0.00     0.005 C 
ENDBRANCH   5   6
ENDBRANCH   4   5
ENDBRANCH   3   4
ENDBRANCH   2   3
ENDBRANCH   1   2
BRANCH   1   8
HETATM    8  C   LIG     1      17.131  38.795  22.340  1.00  0.00     0.010 C 
BRANCH   8   9
HETATM    9  C   LIG     1      18.015  38.213  23.452  1.00  0.00     0.111 C 
BRANCH   9  10
HETATM   10  C   LIG     1      17.241  37.314  24.366  1.00  0.00     0.258 C 
HETATM   11  O   LIG     1      16.452  37.809  25.216  1.00  0.00    -0.265 OA
BRANCH  10  12
HETATM   12  O   LIG     1      17.405  35.928  24.268  1.00  0.00    -0.322 OA
BRANCH  12  13
HETATM   13  C   LIG     1      17.206  35.053  25.372  1.00  0.00     0.174 C 
HETATM   14  C   LIG     1      18.396  35.143  26.313  1.00  0.00     0.034 C 
ENDBRANCH  12  13
ENDBRANCH  10  12
ENDBRANCH   9  10
ENDBRANCH   8   9
ENDBRANCH   1   8
TORSDOF 10
ENDMDL
MODEL 14
REMARK VINA RESULT:      -4.9      9.052     11.108
REMARK  10 active torsions:
REMARK  status: ('A' for Active; 'I' for Inactive)
REMARK    1  A    between atoms: C_2  and  C_3 
REMARK    2  A    between atoms: C_3  and  C_4 
REMARK    3  A    between atoms: C_4  and  C_5 
REMARK    4  A    between atoms: C_5  and  C_6 
REMARK    5  A    between atoms: C_6  and  C_7 
REMARK    6  A    between atoms: C_7  and  C_8 
REMARK    7  A    between atoms: C_8  and  C_9 
REMARK    8  A    between atoms: C_9  and  C_10 
REMARK    9  A    between atoms: C_10  and  O_11 
REMARK   10  A    between atoms: O_11  and  C_12 
ROOT
HETATM    1  C   LIG     1      16.513  32.295  15.257  1.00  0.00     0.000 C 
ENDROOT
BRANCH   1   2
HETATM    2  C   LIG     1      15.694  33.292  16.092  1.00  0.00     0.000 C 
BRANCH   2   3
HETATM    3  C   LIG     1      14.987  32.646  17.304  1.00  0.00     0.000 C 
BRANCH   3   4
HETATM    4  C   LIG     1      13.574  32.151  16.952  1.00  0.00     0.000 C 
BRANCH   4   5
HETATM    5  C   LIG     1      13.526  30.639  16.679  1.00  0.00    -0.000 C 
BRANCH   5   6
HETATM    6  C   LIG     1      13.021  30.310  15.267  1.00  0.00    -0.005 C 
HETATM    7  C   LIG     1      14.149  29.762  14.395  1.00  0.00     0.005 C 
ENDBRANCH   5   6
ENDBRANCH   4   5
ENDBRANCH   3   4
ENDBRANCH   2   3
ENDBRANCH   1   2
BRANCH   1   8
HETATM    8  C   LIG     1      16.782  32.791  13.827  1.00  0.00     0.010 C 
BRANCH   8   9
HETATM    9  C   LIG     1      17.800  33.939  13.795  1.00  0.00     0.111 C 
BRANCH   9  10
HETATM   10  C   LIG     1      18.515  34.015  12.480  1.00  0.00     0.258 C 
HETATM   11  O   LIG     1      18.262  34.957  11.680  1.00  0.00    -0.265 OA
BRANCH  10  12
HETATM   12  O   LIG     1      19.457  33.034  12.153  1.00  0.00    -0.322 OA
BRANCH  12  13
HETATM   13  C   LIG     1      20.753  33.352  11.659  1.00  0.00     0.174 C 
HETATM   14  C   LIG     1      21.532  34.108  12.723  1.00  0.00     0.034 C 
ENDBRANCH  12  13
ENDBRANCH  10  12
ENDBRANCH   9  10
ENDBRANCH   8   9
ENDBRANCH   1   8
TORSDOF 10
ENDMDL
MODEL 15
REMARK VINA RESULT:      -4.9      7.393      9.492
REMARK  10 active torsions:
REMARK  status: ('A' for Active; 'I' for Inactive)
REMARK    1  A    between atoms: C_2  and  C_3 
REMARK    2  A    between atoms: C_3  and  C_4 
REMARK    3  A    between atoms: C_4  and  C_5 
REMARK    4  A    between atoms: C_5  and  C_6 
REMARK    5  A    between atoms: C_6  and  C_7 
REMARK    6  A    between atoms: C_7  and  C_8 
REMARK    7  A    between atoms: C_8  and  C_9 
REMARK    8  A    between atoms: C_9  and  C_10 
REMARK    9  A    between atoms: C_10  and  O_11 
REMARK   10  A    between atoms: O_11  and  C_12 
ROOT
HETATM    1  C   LIG     1      16.904  32.992  13.380  1.00  0.00     0.000 C 
ENDROOT
BRANCH   1   2
HETATM    2  C   LIG     1      17.796  34.149  12.900  1.00  0.00     0.000 C 
BRANCH   2   3
HETATM    3  C   LIG     1      19.302  33.904  13.137  1.00  0.00     0.000 C 
BRANCH   3   4
HETATM    4  C   LIG     1      20.085  33.792  11.817  1.00  0.00     0.000 C 
BRANCH   4   5
HETATM    5  C   LIG     1      21.403  34.583  11.840  1.00  0.00    -0.000 C 
BRANCH   5   6
HETATM    6  C   LIG     1      22.172  34.411  13.158  1.00  0.00    -0.005 C 
HETATM    7  C   LIG     1      23.139  35.570  13.384  1.00  0.00     0.005 C 
ENDBRANCH   5   6
ENDBRANCH   4   5
ENDBRANCH   3   4
ENDBRANCH   2   3
ENDBRANCH   1   2
BRANCH   1   8
HETATM    8  C   LIG     1      17.121  32.644  14.862  1.00  0.00     0.010 C 
BRANCH   8   9
HETATM    9  C   LIG     1      15.829  32.161  15.536  1.00  0.00     0.111 C 
BRANCH   9  10
HETATM   10  C   LIG     1      15.250  33.205  16.442  1.00  0.00     0.258 C 
HETATM   11  O   LIG     1      15.666  34.394  16.379  1.00  0.00    -0.265 OA
BRANCH  10  12
HETATM   12  O   LIG     1      14.251  32.846  17.353  1.00  0.00    -0.322 OA
BRANCH  12  13
HETATM   13  C   LIG     1      14.447  31.850  18.350  1.00  0.00     0.174 C 
HETATM   14  C   LIG     1      15.446  32.350  19.381  1.00  0.00     0.034 C 
ENDBRANCH  12  13
ENDBRANCH  10  12
ENDBRANCH   9  10
ENDBRANCH   8   9
ENDBRANCH   1   8
TORSDOF 10
ENDMDL
MODEL 16
REMARK VINA RESULT:      -4.9      4.077      5.629
REMARK  10 active torsions:
REMARK  status: ('A' for Active; 'I' for Inactive)
REMARK    1  A    between atoms: C_2  and  C_3 
REMARK    2  A    between atoms: C_3  and  C_4 
REMARK    3  A    between atoms: C_4  and  C_5 
REMARK    4  A    between atoms: C_5  and  C_6 
REMARK    5  A    between atoms: C_6  and  C_7 
REMARK    6  A    between atoms: C_7  and  C_8 
REMARK    7  A    between atoms: C_8  and  C_9 
REMARK    8  A    between atoms: C_9  and  C_10 
REMARK    9  A    between atoms: C_10  and  O_11 
REMARK   10  A    between atoms: O_11  and  C_12 
ROOT
HETATM    1  C   LIG     1      15.770  34.156  20.251  1.00  0.00     0.000 C 
ENDROOT
BRANCH   1   2
HETATM    2  C   LIG     1      15.100  32.773  20.196  1.00  0.00     0.000 C 
BRANCH   2   3
HETATM    3  C   LIG     1      15.463  31.962  18.933  1.00  0.00     0.000 C 
BRANCH   3   4
HETATM    4  C   LIG     1      14.768  32.508  17.674  1.00  0.00     0.000 C 
BRANCH   4   5
HETATM    5  C   LIG     1      13.698  31.550  17.125  1.00  0.00    -0.000 C 
BRANCH   5   6
HETATM    6  C   LIG     1      14.095  30.933  15.776  1.00  0.00    -0.005 C 
HETATM    7  C   LIG     1      15.322  31.631  15.194  1.00  0.00     0.005 C 
ENDBRANCH   5   6
ENDBRANCH   4   5
ENDBRANCH   3   4
ENDBRANCH   2   3
ENDBRANCH   1   2
BRANCH   1   8
HETATM    8  C   LIG     1      15.833  34.734  21.674  1.00  0.00     0.010 C 
BRANCH   8   9
HETATM    9  C   LIG     1      15.382  36.200  21.723  1.00  0.00     0.111 C 
BRANCH   9  10
HETATM   10  C   LIG     1      16.499  37.114  22.129  1.00  0.00     0.258 C 
HETATM   11  O   LIG     1      17.569  37.135  21.461  1.00  0.00    -0.265 OA
BRANCH  10  12
HETATM   12  O   LIG     1      16.342  37.934  23.250  1.00  0.00    -0.322 OA
BRANCH  12  13
HETATM   13  C   LIG     1      17.440  38.356  24.051  1.00  0.00     0.174 C 
HETATM   14  C   LIG     1      17.396  37.642  25.392  1.00  0.00     0.034 C 
ENDBRANCH  12  13
ENDBRANCH  10  12
ENDBRANCH   9  10
ENDBRANCH   8   9
ENDBRANCH   1   8
TORSDOF 10
ENDMDL
MODEL 17
REMARK VINA RESULT:      -4.8      6.758      8.414
REMARK  10 active torsions:
REMARK  status: ('A' for Active; 'I' for Inactive)
REMARK    1  A    between atoms: C_2  and  C_3 
REMARK    2  A    between atoms: C_3  and  C_4 
REMARK    3  A    between atoms: C_4  and  C_5 
REMARK    4  A    between atoms: C_5  and  C_6 
REMARK    5  A    between atoms: C_6  and  C_7 
REMARK    6  A    between atoms: C_7  and  C_8 
REMARK    7  A    between atoms: C_8  and  C_9 
REMARK    8  A    between atoms: C_9  and  C_10 
REMARK    9  A    between atoms: C_10  and  O_11 
REMARK   10  A    between atoms: O_11  and  C_12 
ROOT
HETATM    1  C   LIG     1      15.967  33.711  15.927  1.00  0.00     0.000 C 
ENDROOT
BRANCH   1   2
HETATM    2  C   LIG     1      16.720  32.441  15.499  1.00  0.00     0.000 C 
BRANCH   2   3
HETATM    3  C   LIG     1      16.621  32.145  13.987  1.00  0.00     0.000 C 
BRANCH   3   4
HETATM    4  C   LIG     1      15.320  31.408  13.626  1.00  0.00     0.000 C 
BRANCH   4   5
HETATM    5  C   LIG     1      15.433  29.885  13.802  1.00  0.00    -0.000 C 
BRANCH   5   6
HETATM    6  C   LIG     1      14.116  29.244  14.262  1.00  0.00    -0.005 C 
HETATM    7  C   LIG     1      13.305  30.212  15.121  1.00  0.00     0.005 C 
ENDBRANCH   5   6
ENDBRANCH   4   5
ENDBRANCH   3   4
ENDBRANCH   2   3
ENDBRANCH   1   2
BRANCH   1   8
HETATM    8  C   LIG     1      14.777  33.417  16.855  1.00  0.00     0.010 C 
BRANCH   8   9
HETATM    9  C   LIG     1      14.936  32.081  17.592  1.00  0.00     0.111 C 
BRANCH   9  10
HETATM   10  C   LIG     1      15.034  32.270  19.076  1.00  0.00     0.258 C 
HETATM   11  O   LIG     1      14.539  31.409  19.853  1.00  0.00    -0.265 OA
BRANCH  10  12
HETATM   12  O   LIG     1      15.673  33.406  19.582  1.00  0.00    -0.322 OA
BRANCH  12  13
HETATM   13  C   LIG     1      15.319  33.992  20.830  1.00  0.00     0.174 C 
HETATM   14  C   LIG     1      16.465  34.858  21.329  1.00  0.00     0.034 C 
ENDBRANCH  12  13
ENDBRANCH  10  12
ENDBRANCH   9  10
ENDBRANCH   8   9
ENDBRANCH   1   8
TORSDOF 10
ENDMDL
MODEL 18
REMARK VINA RESULT:      -4.7      6.597      8.784
REMARK  10 active torsions:
REMARK  status: ('A' for Active; 'I' for Inactive)
REMARK    1  A    between atoms: C_2  and  C_3 
REMARK    2  A    between atoms: C_3  and  C_4 
REMARK    3  A    between atoms: C_4  and  C_5 
REMARK    4  A    between atoms: C_5  and  C_6 
REMARK    5  A    between atoms: C_6  and  C_7 
REMARK    6  A    between atoms: C_7  and  C_8 
REMARK    7  A    between atoms: C_8  and  C_9 
REMARK    8  A    between atoms: C_9  and  C_10 
REMARK    9  A    between atoms: C_10  and  O_11 
REMARK   10  A    between atoms: O_11  and  C_12 
ROOT
HETATM    1  C   LIG     1      14.981  31.263  15.259  1.00  0.00     0.000 C 
ENDROOT
BRANCH   1   2
HETATM    2  C   LIG     1      15.793  31.701  14.029  1.00  0.00     0.000 C 
BRANCH   2   3
HETATM    3  C   LIG     1      16.873  32.757  14.348  1.00  0.00     0.000 C 
BRANCH   3   4
HETATM    4  C   LIG     1      17.583  33.260  13.079  1.00  0.00     0.000 C 
BRANCH   4   5
HETATM    5  C   LIG     1      18.925  33.946  13.382  1.00  0.00    -0.000 C 
BRANCH   5   6
HETATM    6  C   LIG     1      19.879  33.933  12.179  1.00  0.00    -0.005 C 
HETATM    7  C   LIG     1      21.306  34.271  12.607  1.00  0.00     0.005 C 
ENDBRANCH   5   6
ENDBRANCH   4   5
ENDBRANCH   3   4
ENDBRANCH   2   3
ENDBRANCH   1   2
BRANCH   1   8
HETATM    8  C   LIG     1      15.086  32.255  16.429  1.00  0.00     0.010 C 
BRANCH   8   9
HETATM    9  C   LIG     1      14.125  31.902  17.573  1.00  0.00     0.111 C 
BRANCH   9  10
HETATM   10  C   LIG     1      14.772  32.066  18.915  1.00  0.00     0.258 C 
HETATM   11  O   LIG     1      14.651  31.162  19.786  1.00  0.00    -0.265 OA
BRANCH  10  12
HETATM   12  O   LIG     1      15.504  33.226  19.187  1.00  0.00    -0.322 OA
BRANCH  12  13
HETATM   13  C   LIG     1      15.552  33.816  20.482  1.00  0.00     0.174 C 
HETATM   14  C   LIG     1      16.159  35.206  20.386  1.00  0.00     0.034 C 
ENDBRANCH  12  13
ENDBRANCH  10  12
ENDBRANCH   9  10
ENDBRANCH   8   9
ENDBRANCH   1   8
TORSDOF 10
ENDMDL
MODEL 19
REMARK VINA RESULT:      -4.7      6.439      9.407
REMARK  10 active torsions:
REMARK  status: ('A' for Active; 'I' for Inactive)
REMARK    1  A    between atoms: C_2  and  C_3 
REMARK    2  A    between atoms: C_3  and  C_4 
REMARK    3  A    between atoms: C_4  and  C_5 
REMARK    4  A    between atoms: C_5  and  C_6 
REMARK    5  A    between atoms: C_6  and  C_7 
REMARK    6  A    between atoms: C_7  and  C_8 
REMARK    7  A    between atoms: C_8  and  C_9 
REMARK    8  A    between atoms: C_9  and  C_10 
REMARK    9  A    between atoms: C_10  and  O_11 
REMARK   10  A    between atoms: O_11  and  C_12 
ROOT
HETATM    1  C   LIG     1      14.199  31.994  17.916  1.00  0.00     0.000 C 
ENDROOT
BRANCH   1   2
HETATM    2  C   LIG     1      15.377  31.959  18.903  1.00  0.00     0.000 C 
BRANCH   2   3
HETATM    3  C   LIG     1      15.125  32.770  20.192  1.00  0.00     0.000 C 
BRANCH   3   4
HETATM    4  C   LIG     1      15.718  34.188  20.109  1.00  0.00     0.000 C 
BRANCH   4   5
HETATM    5  C   LIG     1      15.290  35.079  21.286  1.00  0.00    -0.000 C 
BRANCH   5   6
HETATM    6  C   LIG     1      16.461  35.879  21.876  1.00  0.00    -0.005 C 
HETATM    7  C   LIG     1      16.976  35.231  23.159  1.00  0.00     0.005 C 
ENDBRANCH   5   6
ENDBRANCH   4   5
ENDBRANCH   3   4
ENDBRANCH   2   3
ENDBRANCH   1   2
BRANCH   1   8
HETATM    8  C   LIG     1      14.630  31.749  16.460  1.00  0.00     0.010 C 
BRANCH   8   9
HETATM    9  C   LIG     1      15.622  32.812  15.966  1.00  0.00     0.111 C 
BRANCH   9  10
HETATM   10  C   LIG     1      16.285  32.402  14.686  1.00  0.00     0.258 C 
HETATM   11  O   LIG     1      16.377  31.180  14.389  1.00  0.00    -0.265 OA
BRANCH  10  12
HETATM   12  O   LIG     1      16.797  33.385  13.833  1.00  0.00    -0.322 OA
BRANCH  12  13
HETATM   13  C   LIG     1      18.186  33.681  13.752  1.00  0.00     0.174 C 
HETATM   14  C   LIG     1      18.664  33.496  12.321  1.00  0.00     0.034 C 
ENDBRANCH  12  13
ENDBRANCH  10  12
ENDBRANCH   9  10
ENDBRANCH   8   9
ENDBRANCH   1   8
TORSDOF 10
ENDMDL
MODEL 20
REMARK VINA RESULT:      -4.6      7.443      9.590
REMARK  10 active torsions:
REMARK  status: ('A' for Active; 'I' for Inactive)
REMARK    1  A    between atoms: C_2  and  C_3 
REMARK    2  A    between atoms: C_3  and  C_4 
REMARK    3  A    between atoms: C_4  and  C_5 
REMARK    4  A    between atoms: C_5  and  C_6 
REMARK    5  A    between atoms: C_6  and  C_7 
REMARK    6  A    between atoms: C_7  and  C_8 
REMARK    7  A    between atoms: C_8  and  C_9 
REMARK    8  A    between atoms: C_9  and  C_10 
REMARK    9  A    between atoms: C_10  and  O_11 
REMARK   10  A    between atoms: O_11  and  C_12 
ROOT
HETATM    1  C   LIG     1      16.904  32.166  15.442  1.00  0.00     0.000 C 
ENDROOT
BRANCH   1   2
HETATM    2  C   LIG     1      17.737  33.234  14.714  1.00  0.00     0.000 C 
BRANCH   2   3
HETATM    3  C   LIG     1      17.504  33.264  13.189  1.00  0.00     0.000 C 
BRANCH   3   4
HETATM    4  C   LIG     1      18.653  33.962  12.441  1.00  0.00     0.000 C 
BRANCH   4   5
HETATM    5  C   LIG     1      19.389  33.021  11.474  1.00  0.00    -0.000 C 
BRANCH   5   6
HETATM    6  C   LIG     1      20.901  33.282  11.432  1.00  0.00    -0.005 C 
HETATM    7  C   LIG     1      21.365  34.024  12.683  1.00  0.00     0.005 C 
ENDBRANCH   5   6
ENDBRANCH   4   5
ENDBRANCH   3   4
ENDBRANCH   2   3
ENDBRANCH   1   2
BRANCH   1   8
HETATM    8  C   LIG     1      15.443  32.120  14.966  1.00  0.00     0.010 C 
BRANCH   8   9
HETATM    9  C   LIG     1      14.615  31.087  15.743  1.00  0.00     0.111 C 
BRANCH   9  10
HETATM   10  C   LIG     1      13.904  31.704  16.909  1.00  0.00     0.258 C 
HETATM   11  O   LIG     1      12.651  31.604  17.007  1.00  0.00    -0.265 OA
BRANCH  10  12
HETATM   12  O   LIG     1      14.643  32.388  17.879  1.00  0.00    -0.322 OA
BRANCH  12  13
HETATM   13  C   LIG     1      14.830  31.884  19.197  1.00  0.00     0.174 C 
HETATM   14  C   LIG     1      15.433  32.967  20.076  1.00  0.00     0.034 C 
ENDBRANCH  12  13
ENDBRANCH  10  12
ENDBRANCH   9  10
ENDBRANCH   8   9
ENDBRANCH   1   8
TORSDOF 10
ENDMDL
