MODEL 1
REMARK VINA RESULT:      -4.0      0.000      0.000
REMARK  0 active torsions:
REMARK  status: ('A' for Active; 'I' for Inactive)
ROOT
HETATM    1  C   LIG     1      17.367  34.997  24.978  1.00  0.00     0.049 A 
HETATM    2  C   LIG     1      18.026  34.900  26.195  1.00  0.00     0.007 A 
HETATM    3  C   LIG     1      18.350  36.140  26.759  1.00  0.00     0.007 A 
HETATM    4  C   LIG     1      17.946  37.222  25.990  1.00  0.00     0.049 A 
HETATM    5  S   LIG     1      17.190  36.628  24.613  1.00  0.00    -0.114 SA
ENDROOT
TORSDOF 0
ENDMDL
MODEL 2
REMARK VINA RESULT:      -4.0      0.028      1.819
REMARK  0 active torsions:
REMARK  status: ('A' for Active; 'I' for Inactive)
ROOT
HETATM    1  C   LIG     1      17.952  37.221  25.960  1.00  0.00     0.049 A 
HETATM    2  C   LIG     1      18.366  36.154  26.745  1.00  0.00     0.007 A 
HETATM    3  C   LIG     1      18.037  34.903  26.211  1.00  0.00     0.007 A 
HETATM    4  C   LIG     1      17.362  34.976  25.000  1.00  0.00     0.049 A 
HETATM    5  S   LIG     1      17.180  36.598  24.604  1.00  0.00    -0.114 SA
ENDROOT
TORSDOF 0
ENDMDL
MODEL 3
REMARK VINA RESULT:      -3.3      1.438      2.102
REMARK  0 active torsions:
REMARK  status: ('A' for Active; 'I' for Inactive)
ROOT
HETATM    1  C   LIG     1      16.882  36.519  23.148  1.00  0.00     0.049 A 
HETATM    2  C   LIG     1      17.056  35.190  23.506  1.00  0.00     0.007 A 
HETATM    3  C   LIG     1      17.411  35.012  24.849  1.00  0.00     0.007 A 
HETATM    4  C   LIG     1      17.518  36.200  25.557  1.00  0.00     0.049 A 
HETATM    5  S   LIG     1      17.170  37.464  24.507  1.00  0.00    -0.114 SA
ENDROOT
TORSDOF 0
ENDMDL
MODEL 4
REMARK VINA RESULT:      -3.3      5.682      6.128
REMARK  0 active torsions:
REMARK  status: ('A' for Active; 'I' for Inactive)
ROOT
HETATM    1  C   LIG     1      18.146  36.987  20.505  1.00  0.00     0.049 A 
HETATM    2  C   LIG     1      19.098  37.069  19.498  1.00  0.00     0.007 A 
HETATM    3  C   LIG     1      19.745  38.309  19.437  1.00  0.00     0.007 A 
HETATM    4  C   LIG     1      19.306  39.212  20.395  1.00  0.00     0.049 A 
HETATM    5  S   LIG     1      18.117  38.461  21.312  1.00  0.00    -0.114 SA
ENDROOT
TORSDOF 0
ENDMDL
MODEL 5
REMARK VINA RESULT:      -3.3      5.615      6.255
REMARK  0 active torsions:
REMARK  status: ('A' for Active; 'I' for Inactive)
ROOT
HETATM    1  C   LIG     1      18.964  39.286  20.829  1.00  0.00     0.049 A 
HETATM    2  C   LIG     1      18.103  38.273  21.228  1.00  0.00     0.007 A 
HETATM    3  C   LIG     1      18.235  37.096  20.482  1.00  0.00     0.007 A 
HETATM    4  C   LIG     1      19.203  37.174  19.490  1.00  0.00     0.049 A 
HETATM    5  S   LIG     1      19.886  38.707  19.548  1.00  0.00    -0.114 SA
ENDROOT
TORSDOF 0
ENDMDL
MODEL 6
REMARK VINA RESULT:      -3.0      3.363      3.960
REMARK  0 active torsions:
REMARK  status: ('A' for Active; 'I' for Inactive)
ROOT
HETATM    1  C   LIG     1      16.798  36.388  22.717  1.00  0.00     0.049 A 
HETATM    2  C   LIG     1      17.310  36.946  21.554  1.00  0.00     0.007 A 
HETATM    3  C   LIG     1      17.635  38.302  21.678  1.00  0.00     0.007 A 
HETATM    4  C   LIG     1      17.382  38.821  22.940  1.00  0.00     0.049 A 
HETATM    5  S   LIG     1      16.756  37.588  23.893  1.00  0.00    -0.114 SA
ENDROOT
TORSDOF 0
ENDMDL
MODEL 7
REMARK VINA RESULT:      -3.0     10.386     11.344
REMARK  0 active torsions:
REMARK  status: ('A' for Active; 'I' for Inactive)
ROOT
HETATM    1  C   LIG     1      15.278  31.469  15.087  1.00  0.00     0.049 A 
HETATM    2  C   LIG     1      14.208  30.593  15.203  1.00  0.00     0.007 A 
HETATM    3  C   LIG     1      13.393  30.844  16.313  1.00  0.00     0.007 A 
HETATM    4  C   LIG     1      13.816  31.921  17.079  1.00  0.00     0.049 A 
HETATM    5  S   LIG     1      15.201  32.553  16.369  1.00  0.00    -0.114 SA
ENDROOT
TORSDOF 0
ENDMDL
MODEL 8
REMARK VINA RESULT:      -3.0     10.325     11.362
REMARK  0 active torsions:
REMARK  status: ('A' for Active; 'I' for Inactive)
ROOT
HETATM    1  C   LIG     1      13.896  31.984  17.110  1.00  0.00     0.049 A 
HETATM    2  C   LIG     1      13.422  30.893  16.395  1.00  0.00     0.007 A 
HETATM    3  C   LIG     1      14.182  30.592  15.259  1.00  0.00     0.007 A 
HETATM    4  C   LIG     1      15.261  31.444  15.072  1.00  0.00     0.049 A 
HETATM    5  S   LIG     1      15.262  32.566  16.322  1.00  0.00    -0.114 SA
ENDROOT
TORSDOF 0
ENDMDL
MODEL 9
REMARK VINA RESULT:      -2.9      2.632      3.420
REMARK  0 active torsions:
REMARK  status: ('A' for Active; 'I' for Inactive)
ROOT
HETATM    1  C   LIG     1      17.357  38.225  24.376  1.00  0.00     0.049 A 
HETATM    2  C   LIG     1      17.137  36.855  24.368  1.00  0.00     0.007 A 
HETATM    3  C   LIG     1      16.913  36.329  23.090  1.00  0.00     0.007 A 
HETATM    4  C   LIG     1      16.957  37.282  22.082  1.00  0.00     0.049 A 
HETATM    5  S   LIG     1      17.274  38.772  22.789  1.00  0.00    -0.114 SA
ENDROOT
TORSDOF 0
ENDMDL
MODEL 10
REMARK VINA RESULT:      -2.9     10.932     11.747
REMARK  0 active torsions:
REMARK  status: ('A' for Active; 'I' for Inactive)
ROOT
HETATM    1  C   LIG     1      14.940  32.203  16.265  1.00  0.00     0.049 A 
HETATM    2  C   LIG     1      13.749  31.717  16.787  1.00  0.00     0.007 A 
HETATM    3  C   LIG     1      13.203  30.659  16.050  1.00  0.00     0.007 A 
HETATM    4  C   LIG     1      13.961  30.304  14.943  1.00  0.00     0.049 A 
HETATM    5  S   LIG     1      15.305  31.309  14.889  1.00  0.00    -0.114 SA
ENDROOT
TORSDOF 0
ENDMDL
MODEL 11
REMARK VINA RESULT:      -2.7     11.023     11.527
REMARK  0 active torsions:
REMARK  status: ('A' for Active; 'I' for Inactive)
ROOT
HETATM    1  C   LIG     1      13.128  30.683  16.124  1.00  0.00     0.049 A 
HETATM    2  C   LIG     1      13.623  31.758  16.850  1.00  0.00     0.007 A 
HETATM    3  C   LIG     1      14.838  32.253  16.362  1.00  0.00     0.007 A 
HETATM    4  C   LIG     1      15.308  31.572  15.248  1.00  0.00     0.049 A 
HETATM    5  S   LIG     1      14.208  30.358  14.878  1.00  0.00    -0.114 SA
ENDROOT
TORSDOF 0
ENDMDL
MODEL 12
REMARK VINA RESULT:      -2.7      4.461      5.066
REMARK  0 active torsions:
REMARK  status: ('A' for Active; 'I' for Inactive)
ROOT
HETATM    1  C   LIG     1      15.413  36.752  22.182  1.00  0.00     0.049 A 
HETATM    2  C   LIG     1      15.122  35.715  21.306  1.00  0.00     0.007 A 
HETATM    3  C   LIG     1      16.209  35.326  20.515  1.00  0.00     0.007 A 
HETATM    4  C   LIG     1      17.365  36.053  20.763  1.00  0.00     0.049 A 
HETATM    5  S   LIG     1      17.025  37.175  21.965  1.00  0.00    -0.114 SA
ENDROOT
TORSDOF 0
ENDMDL
MODEL 13
REMARK VINA RESULT:      -2.7     11.185     11.823
REMARK  0 active torsions:
REMARK  status: ('A' for Active; 'I' for Inactive)
ROOT
HETATM    1  C   LIG     1      15.576  31.332  14.460  1.00  0.00     0.049 A 
HETATM    2  C   LIG     1      15.525  32.196  15.545  1.00  0.00     0.007 A 
HETATM    3  C   LIG     1      14.506  31.893  16.457  1.00  0.00     0.007 A 
HETATM    4  C   LIG     1      13.749  30.788  16.096  1.00  0.00     0.049 A 
HETATM    5  S   LIG     1      14.352  30.195  14.645  1.00  0.00    -0.114 SA
ENDROOT
TORSDOF 0
ENDMDL
MODEL 14
REMARK VINA RESULT:      -2.6     13.735     14.427
REMARK  0 active torsions:
REMARK  status: ('A' for Active; 'I' for Inactive)
ROOT
HETATM    1  C   LIG     1      20.969  34.746  10.818  1.00  0.00     0.049 A 
HETATM    2  C   LIG     1      21.157  34.326  12.127  1.00  0.00     0.007 A 
HETATM    3  C   LIG     1      19.973  33.944  12.770  1.00  0.00     0.007 A 
HETATM    4  C   LIG     1      18.845  34.060  11.971  1.00  0.00     0.049 A 
HETATM    5  S   LIG     1      19.328  34.636  10.470  1.00  0.00    -0.114 SA
ENDROOT
TORSDOF 0
ENDMDL
MODEL 15
REMARK VINA RESULT:      -2.4     11.266     12.095
REMARK  0 active torsions:
REMARK  status: ('A' for Active; 'I' for Inactive)
ROOT
HETATM    1  C   LIG     1      16.866  33.142  15.051  1.00  0.00     0.049 A 
HETATM    2  C   LIG     1      15.977  32.289  15.691  1.00  0.00     0.007 A 
HETATM    3  C   LIG     1      15.356  31.375  14.831  1.00  0.00     0.007 A 
HETATM    4  C   LIG     1      15.753  31.502  13.507  1.00  0.00     0.049 A 
HETATM    5  S   LIG     1      16.873  32.750  13.416  1.00  0.00    -0.114 SA
ENDROOT
TORSDOF 0
ENDMDL
MODEL 16
REMARK VINA RESULT:      -2.3     13.555     14.405
REMARK  0 active torsions:
REMARK  status: ('A' for Active; 'I' for Inactive)
ROOT
HETATM    1  C   LIG     1      20.975  33.062  11.023  1.00  0.00     0.049 A 
HETATM    2  C   LIG     1      19.637  32.710  10.904  1.00  0.00     0.007 A 
HETATM    3  C   LIG     1      18.834  33.198  11.942  1.00  0.00     0.007 A 
HETATM    4  C   LIG     1      19.533  33.938  12.885  1.00  0.00     0.049 A 
HETATM    5  S   LIG     1      21.147  33.980  12.421  1.00  0.00    -0.114 SA
ENDROOT
TORSDOF 0
ENDMDL
MODEL 17
REMARK VINA RESULT:      -2.3     19.839     20.469
REMARK  0 active torsions:
REMARK  status: ('A' for Active; 'I' for Inactive)
ROOT
HETATM    1  C   LIG     1      15.759  18.895  16.058  1.00  0.00     0.049 A 
HETATM    2  C   LIG     1      14.448  18.453  16.170  1.00  0.00     0.007 A 
HETATM    3  C   LIG     1      13.742  18.477  14.961  1.00  0.00     0.007 A 
HETATM    4  C   LIG     1      14.494  18.936  13.889  1.00  0.00     0.049 A 
HETATM    5  S   LIG     1      16.031  19.310  14.453  1.00  0.00    -0.114 SA
ENDROOT
TORSDOF 0
ENDMDL
MODEL 18
REMARK VINA RESULT:      -2.3     13.743     14.330
REMARK  0 active torsions:
REMARK  status: ('A' for Active; 'I' for Inactive)
ROOT
HETATM    1  C   LIG     1      15.454  28.357  13.715  1.00  0.00     0.049 A 
HETATM    2  C   LIG     1      14.335  27.542  13.624  1.00  0.00     0.007 A 
HETATM    3  C   LIG     1      13.146  28.176  14.006  1.00  0.00     0.007 A 
HETATM    4  C   LIG     1      13.322  29.495  14.400  1.00  0.00     0.049 A 
HETATM    5  S   LIG     1      14.955  29.863  14.270  1.00  0.00    -0.114 SA
ENDROOT
TORSDOF 0
ENDMDL
MODEL 19
REMARK VINA RESULT:      -2.2      7.993      8.845
REMARK  0 active torsions:
REMARK  status: ('A' for Active; 'I' for Inactive)
ROOT
HETATM    1  C   LIG     1      15.383  33.648  18.348  1.00  0.00     0.049 A 
HETATM    2  C   LIG     1      15.297  32.783  19.430  1.00  0.00     0.007 A 
HETATM    3  C   LIG     1      14.625  31.589  19.142  1.00  0.00     0.007 A 
HETATM    4  C   LIG     1      14.178  31.506  17.831  1.00  0.00     0.049 A 
HETATM    5  S   LIG     1      14.622  32.918  17.039  1.00  0.00    -0.114 SA
ENDROOT
TORSDOF 0
ENDMDL
MODEL 20
REMARK VINA RESULT:      -2.0     14.990     15.510
REMARK  0 active torsions:
REMARK  status: ('A' for Active; 'I' for Inactive)
ROOT
HETATM    1  C   LIG     1      24.771  23.007  21.250  1.00  0.00     0.049 A 
HETATM    2  C   LIG     1      23.562  23.162  21.912  1.00  0.00     0.007 A 
HETATM    3  C   LIG     1      22.468  22.634  21.216  1.00  0.00     0.007 A 
HETATM    4  C   LIG     1      22.809  22.058  20.001  1.00  0.00     0.049 A 
HETATM    5  S   LIG     1      24.470  22.211  19.801  1.00  0.00    -0.114 SA
ENDROOT
TORSDOF 0
ENDMDL
