MODEL 1
REMARK VINA RESULT:      -4.1      0.000      0.000
REMARK  3 active torsions:
REMARK  status: ('A' for Active; 'I' for Inactive)
REMARK    1  A    between atoms: C_2  and  O_3 
REMARK    2  A    between atoms: O_3  and  C_4 
REMARK    3  A    between atoms: C_4  and  C_5 
ROOT
HETATM    1  O   LIG     1      17.471  36.824  24.477  1.00  0.00    -0.328 OA
ENDROOT
BRANCH   1   2
HETATM    2  C   LIG     1      16.607  37.394  23.536  1.00  0.00     0.398 C 
HETATM    3  O   LIG     1      15.604  38.066  23.895  1.00  0.00    -0.276 OA
ENDBRANCH   1   2
BRANCH   1   4
HETATM    4  C   LIG     1      17.656  37.348  25.792  1.00  0.00     0.178 C 
BRANCH   4   5
HETATM    5  C   LIG     1      18.368  36.338  26.699  1.00  0.00     0.022 C 
HETATM    6  C   LIG     1      18.119  34.899  26.252  1.00  0.00     0.007 C 
ENDBRANCH   4   5
ENDBRANCH   1   4
TORSDOF 3
ENDMDL
MODEL 2
REMARK VINA RESULT:      -3.6      2.081      3.547
REMARK  3 active torsions:
REMARK  status: ('A' for Active; 'I' for Inactive)
REMARK    1  A    between atoms: C_2  and  O_3 
REMARK    2  A    between atoms: O_3  and  C_4 
REMARK    3  A    between atoms: C_4  and  C_5 
ROOT
HETATM    1  O   LIG     1      15.894  37.851  24.003  1.00  0.00    -0.328 OA
ENDROOT
BRANCH   1   2
HETATM    2  C   LIG     1      17.009  37.826  24.847  1.00  0.00     0.398 C 
HETATM    3  O   LIG     1      17.162  38.689  25.752  1.00  0.00    -0.276 OA
ENDBRANCH   1   2
BRANCH   1   4
HETATM    4  C   LIG     1      15.939  37.459  22.631  1.00  0.00     0.178 C 
BRANCH   4   5
HETATM    5  C   LIG     1      16.848  36.241  22.429  1.00  0.00     0.022 C 
HETATM    6  C   LIG     1      17.326  36.123  20.984  1.00  0.00     0.007 C 
ENDBRANCH   4   5
ENDBRANCH   1   4
TORSDOF 3
ENDMDL
MODEL 3
REMARK VINA RESULT:      -3.5      6.279      7.338
REMARK  3 active torsions:
REMARK  status: ('A' for Active; 'I' for Inactive)
REMARK    1  A    between atoms: C_2  and  O_3 
REMARK    2  A    between atoms: O_3  and  C_4 
REMARK    3  A    between atoms: C_4  and  C_5 
ROOT
HETATM    1  O   LIG     1      18.721  39.661  18.108  1.00  0.00    -0.328 OA
ENDROOT
BRANCH   1   2
HETATM    2  C   LIG     1      18.845  39.720  16.716  1.00  0.00     0.398 C 
HETATM    3  O   LIG     1      18.333  38.839  15.976  1.00  0.00    -0.276 OA
ENDBRANCH   1   2
BRANCH   1   4
HETATM    4  C   LIG     1      19.630  38.949  18.947  1.00  0.00     0.178 C 
BRANCH   4   5
HETATM    5  C   LIG     1      18.900  38.276  20.115  1.00  0.00     0.022 C 
HETATM    6  C   LIG     1      18.582  39.267  21.233  1.00  0.00     0.007 C 
ENDBRANCH   4   5
ENDBRANCH   1   4
TORSDOF 3
ENDMDL
MODEL 4
REMARK VINA RESULT:      -3.5      1.875      3.807
REMARK  3 active torsions:
REMARK  status: ('A' for Active; 'I' for Inactive)
REMARK    1  A    between atoms: C_2  and  O_3 
REMARK    2  A    between atoms: O_3  and  C_4 
REMARK    3  A    between atoms: C_4  and  C_5 
ROOT
HETATM    1  O   LIG     1      17.110  36.917  23.761  1.00  0.00    -0.328 OA
ENDROOT
BRANCH   1   2
HETATM    2  C   LIG     1      17.187  37.407  25.069  1.00  0.00     0.398 C 
HETATM    3  O   LIG     1      17.111  38.642  25.309  1.00  0.00    -0.276 OA
ENDBRANCH   1   2
BRANCH   1   4
HETATM    4  C   LIG     1      16.586  37.672  22.669  1.00  0.00     0.178 C 
BRANCH   4   5
HETATM    5  C   LIG     1      17.651  37.907  21.592  1.00  0.00     0.022 C 
HETATM    6  C   LIG     1      18.364  39.244  21.780  1.00  0.00     0.007 C 
ENDBRANCH   4   5
ENDBRANCH   1   4
TORSDOF 3
ENDMDL
MODEL 5
REMARK VINA RESULT:      -3.5      3.086      4.685
REMARK  3 active torsions:
REMARK  status: ('A' for Active; 'I' for Inactive)
REMARK    1  A    between atoms: C_2  and  O_3 
REMARK    2  A    between atoms: O_3  and  C_4 
REMARK    3  A    between atoms: C_4  and  C_5 
ROOT
HETATM    1  O   LIG     1      17.198  38.640  22.443  1.00  0.00    -0.328 OA
ENDROOT
BRANCH   1   2
HETATM    2  C   LIG     1      16.928  37.744  23.483  1.00  0.00     0.398 C 
HETATM    3  O   LIG     1      16.190  38.071  24.451  1.00  0.00    -0.276 OA
ENDBRANCH   1   2
BRANCH   1   4
HETATM    4  C   LIG     1      18.517  39.047  22.080  1.00  0.00     0.178 C 
BRANCH   4   5
HETATM    5  C   LIG     1      18.599  39.411  20.593  1.00  0.00     0.022 C 
HETATM    6  C   LIG     1      19.913  38.948  19.967  1.00  0.00     0.007 C 
ENDBRANCH   4   5
ENDBRANCH   1   4
TORSDOF 3
ENDMDL
MODEL 6
REMARK VINA RESULT:      -3.5      9.067      9.879
REMARK  3 active torsions:
REMARK  status: ('A' for Active; 'I' for Inactive)
REMARK    1  A    between atoms: C_2  and  O_3 
REMARK    2  A    between atoms: O_3  and  C_4 
REMARK    3  A    between atoms: C_4  and  C_5 
ROOT
HETATM    1  O   LIG     1      15.382  32.839  17.564  1.00  0.00    -0.328 OA
ENDROOT
BRANCH   1   2
HETATM    2  C   LIG     1      15.117  34.043  16.902  1.00  0.00     0.398 C 
HETATM    3  O   LIG     1      16.025  34.665  16.289  1.00  0.00    -0.276 OA
ENDBRANCH   1   2
BRANCH   1   4
HETATM    4  C   LIG     1      14.366  31.910  17.939  1.00  0.00     0.178 C 
BRANCH   4   5
HETATM    5  C   LIG     1      13.228  31.884  16.913  1.00  0.00     0.022 C 
HETATM    6  C   LIG     1      13.362  30.710  15.946  1.00  0.00     0.007 C 
ENDBRANCH   4   5
ENDBRANCH   1   4
TORSDOF 3
ENDMDL
MODEL 7
REMARK VINA RESULT:      -3.4      8.940     10.119
REMARK  3 active torsions:
REMARK  status: ('A' for Active; 'I' for Inactive)
REMARK    1  A    between atoms: C_2  and  O_3 
REMARK    2  A    between atoms: O_3  and  C_4 
REMARK    3  A    between atoms: C_4  and  C_5 
ROOT
HETATM    1  O   LIG     1      14.181  31.336  18.551  1.00  0.00    -0.328 OA
ENDROOT
BRANCH   1   2
HETATM    2  C   LIG     1      15.032  31.908  19.503  1.00  0.00     0.398 C 
HETATM    3  O   LIG     1      15.596  33.015  19.293  1.00  0.00    -0.276 OA
ENDBRANCH   1   2
BRANCH   1   4
HETATM    4  C   LIG     1      14.069  31.814  17.211  1.00  0.00     0.178 C 
BRANCH   4   5
HETATM    5  C   LIG     1      13.029  31.012  16.419  1.00  0.00     0.022 C 
HETATM    6  C   LIG     1      13.642  30.346  15.189  1.00  0.00     0.007 C 
ENDBRANCH   4   5
ENDBRANCH   1   4
TORSDOF 3
ENDMDL
MODEL 8
REMARK VINA RESULT:      -3.4      8.298      8.747
REMARK  3 active torsions:
REMARK  status: ('A' for Active; 'I' for Inactive)
REMARK    1  A    between atoms: C_2  and  O_3 
REMARK    2  A    between atoms: O_3  and  C_4 
REMARK    3  A    between atoms: C_4  and  C_5 
ROOT
HETATM    1  O   LIG     1      14.860  32.743  16.788  1.00  0.00    -0.328 OA
ENDROOT
BRANCH   1   2
HETATM    2  C   LIG     1      15.063  34.127  16.842  1.00  0.00     0.398 C 
HETATM    3  O   LIG     1      16.044  34.666  16.265  1.00  0.00    -0.276 OA
ENDBRANCH   1   2
BRANCH   1   4
HETATM    4  C   LIG     1      14.332  31.984  17.875  1.00  0.00     0.178 C 
BRANCH   4   5
HETATM    5  C   LIG     1      15.156  32.192  19.151  1.00  0.00     0.022 C 
HETATM    6  C   LIG     1      14.884  31.102  20.186  1.00  0.00     0.007 C 
ENDBRANCH   4   5
ENDBRANCH   1   4
TORSDOF 3
ENDMDL
MODEL 9
REMARK VINA RESULT:      -3.4      4.235      5.417
REMARK  3 active torsions:
REMARK  status: ('A' for Active; 'I' for Inactive)
REMARK    1  A    between atoms: C_2  and  O_3 
REMARK    2  A    between atoms: O_3  and  C_4 
REMARK    3  A    between atoms: C_4  and  C_5 
ROOT
HETATM    1  O   LIG     1      18.799  38.138  20.716  1.00  0.00    -0.328 OA
ENDROOT
BRANCH   1   2
HETATM    2  C   LIG     1      19.169  39.315  20.057  1.00  0.00     0.398 C 
HETATM    3  O   LIG     1      20.299  39.431  19.511  1.00  0.00    -0.276 OA
ENDBRANCH   1   2
BRANCH   1   4
HETATM    4  C   LIG     1      18.445  36.935  20.034  1.00  0.00     0.178 C 
BRANCH   4   5
HETATM    5  C   LIG     1      17.459  36.097  20.858  1.00  0.00     0.022 C 
HETATM    6  C   LIG     1      16.820  36.914  21.979  1.00  0.00     0.007 C 
ENDBRANCH   4   5
ENDBRANCH   1   4
TORSDOF 3
ENDMDL
MODEL 10
REMARK VINA RESULT:      -3.4      4.204      5.156
REMARK  3 active torsions:
REMARK  status: ('A' for Active; 'I' for Inactive)
REMARK    1  A    between atoms: C_2  and  O_3 
REMARK    2  A    between atoms: O_3  and  C_4 
REMARK    3  A    between atoms: C_4  and  C_5 
ROOT
HETATM    1  O   LIG     1      18.663  38.413  20.402  1.00  0.00    -0.328 OA
ENDROOT
BRANCH   1   2
HETATM    2  C   LIG     1      19.808  38.409  19.598  1.00  0.00     0.398 C 
HETATM    3  O   LIG     1      20.405  39.480  19.307  1.00  0.00    -0.276 OA
ENDBRANCH   1   2
BRANCH   1   4
HETATM    4  C   LIG     1      18.543  39.189  21.594  1.00  0.00     0.178 C 
BRANCH   4   5
HETATM    5  C   LIG     1      17.257  38.847  22.354  1.00  0.00     0.022 C 
HETATM    6  C   LIG     1      17.552  38.239  23.724  1.00  0.00     0.007 C 
ENDBRANCH   4   5
ENDBRANCH   1   4
TORSDOF 3
ENDMDL
MODEL 11
REMARK VINA RESULT:      -3.2      1.736      3.643
REMARK  3 active torsions:
REMARK  status: ('A' for Active; 'I' for Inactive)
REMARK    1  A    between atoms: C_2  and  O_3 
REMARK    2  A    between atoms: O_3  and  C_4 
REMARK    3  A    between atoms: C_4  and  C_5 
ROOT
HETATM    1  O   LIG     1      18.216  37.038  25.752  1.00  0.00    -0.328 OA
ENDROOT
BRANCH   1   2
HETATM    2  C   LIG     1      18.244  35.968  26.653  1.00  0.00     0.398 C 
HETATM    3  O   LIG     1      18.295  34.776  26.250  1.00  0.00    -0.276 OA
ENDBRANCH   1   2
BRANCH   1   4
HETATM    4  C   LIG     1      17.193  37.211  24.771  1.00  0.00     0.178 C 
BRANCH   4   5
HETATM    5  C   LIG     1      17.590  38.266  23.733  1.00  0.00     0.022 C 
HETATM    6  C   LIG     1      17.213  37.837  22.316  1.00  0.00     0.007 C 
ENDBRANCH   4   5
ENDBRANCH   1   4
TORSDOF 3
ENDMDL
MODEL 12
REMARK VINA RESULT:      -3.2      1.757      2.158
REMARK  3 active torsions:
REMARK  status: ('A' for Active; 'I' for Inactive)
REMARK    1  A    between atoms: C_2  and  O_3 
REMARK    2  A    between atoms: O_3  and  C_4 
REMARK    3  A    between atoms: C_4  and  C_5 
ROOT
HETATM    1  O   LIG     1      16.887  37.164  23.224  1.00  0.00    -0.328 OA
ENDROOT
BRANCH   1   2
HETATM    2  C   LIG     1      16.705  36.387  22.075  1.00  0.00     0.398 C 
HETATM    3  O   LIG     1      17.578  36.350  21.167  1.00  0.00    -0.276 OA
ENDBRANCH   1   2
BRANCH   1   4
HETATM    4  C   LIG     1      16.994  36.612  24.536  1.00  0.00     0.178 C 
BRANCH   4   5
HETATM    5  C   LIG     1      18.014  37.382  25.383  1.00  0.00     0.022 C 
HETATM    6  C   LIG     1      18.521  36.548  26.558  1.00  0.00     0.007 C 
ENDBRANCH   4   5
ENDBRANCH   1   4
TORSDOF 3
ENDMDL
MODEL 13
REMARK VINA RESULT:      -3.2      5.234      6.161
REMARK  3 active torsions:
REMARK  status: ('A' for Active; 'I' for Inactive)
REMARK    1  A    between atoms: C_2  and  O_3 
REMARK    2  A    between atoms: O_3  and  C_4 
REMARK    3  A    between atoms: C_4  and  C_5 
ROOT
HETATM    1  O   LIG     1      15.950  33.437  20.135  1.00  0.00    -0.328 OA
ENDROOT
BRANCH   1   2
HETATM    2  C   LIG     1      15.205  32.440  19.495  1.00  0.00     0.398 C 
HETATM    3  O   LIG     1      14.719  31.473  20.140  1.00  0.00    -0.276 OA
ENDBRANCH   1   2
BRANCH   1   4
HETATM    4  C   LIG     1      15.401  34.325  21.108  1.00  0.00     0.178 C 
BRANCH   4   5
HETATM    5  C   LIG     1      16.505  35.048  21.888  1.00  0.00     0.022 C 
HETATM    6  C   LIG     1      17.303  35.995  20.995  1.00  0.00     0.007 C 
ENDBRANCH   4   5
ENDBRANCH   1   4
TORSDOF 3
ENDMDL
MODEL 14
REMARK VINA RESULT:      -3.2      3.182      4.366
REMARK  3 active torsions:
REMARK  status: ('A' for Active; 'I' for Inactive)
REMARK    1  A    between atoms: C_2  and  O_3 
REMARK    2  A    between atoms: O_3  and  C_4 
REMARK    3  A    between atoms: C_4  and  C_5 
ROOT
HETATM    1  O   LIG     1      16.291  36.682  21.944  1.00  0.00    -0.328 OA
ENDROOT
BRANCH   1   2
HETATM    2  C   LIG     1      16.959  35.686  21.224  1.00  0.00     0.398 C 
HETATM    3  O   LIG     1      17.231  35.835  20.003  1.00  0.00    -0.276 OA
ENDBRANCH   1   2
BRANCH   1   4
HETATM    4  C   LIG     1      16.933  37.520  22.905  1.00  0.00     0.178 C 
BRANCH   4   5
HETATM    5  C   LIG     1      17.092  38.951  22.379  1.00  0.00     0.022 C 
HETATM    6  C   LIG     1      18.413  39.139  21.636  1.00  0.00     0.007 C 
ENDBRANCH   4   5
ENDBRANCH   1   4
TORSDOF 3
ENDMDL
MODEL 15
REMARK VINA RESULT:      -3.1     11.737     12.229
REMARK  3 active torsions:
REMARK  status: ('A' for Active; 'I' for Inactive)
REMARK    1  A    between atoms: C_2  and  O_3 
REMARK    2  A    between atoms: O_3  and  C_4 
REMARK    3  A    between atoms: C_4  and  C_5 
ROOT
HETATM    1  O   LIG     1      17.488  32.592  13.908  1.00  0.00    -0.328 OA
ENDROOT
BRANCH   1   2
HETATM    2  C   LIG     1      18.033  33.856  13.658  1.00  0.00     0.398 C 
HETATM    3  O   LIG     1      17.472  34.904  14.077  1.00  0.00    -0.276 OA
ENDBRANCH   1   2
BRANCH   1   4
HETATM    4  C   LIG     1      16.168  32.215  13.517  1.00  0.00     0.178 C 
BRANCH   4   5
HETATM    5  C   LIG     1      15.527  31.279  14.548  1.00  0.00     0.022 C 
HETATM    6  C   LIG     1      15.154  29.931  13.936  1.00  0.00     0.007 C 
ENDBRANCH   4   5
ENDBRANCH   1   4
TORSDOF 3
ENDMDL
MODEL 16
REMARK VINA RESULT:      -3.1      8.805      9.601
REMARK  3 active torsions:
REMARK  status: ('A' for Active; 'I' for Inactive)
REMARK    1  A    between atoms: C_2  and  O_3 
REMARK    2  A    between atoms: O_3  and  C_4 
REMARK    3  A    between atoms: C_4  and  C_5 
ROOT
HETATM    1  O   LIG     1      13.631  31.169  17.672  1.00  0.00    -0.328 OA
ENDROOT
BRANCH   1   2
HETATM    2  C   LIG     1      13.259  30.950  16.341  1.00  0.00     0.398 C 
HETATM    3  O   LIG     1      14.064  30.448  15.512  1.00  0.00    -0.276 OA
ENDBRANCH   1   2
BRANCH   1   4
HETATM    4  C   LIG     1      14.602  32.138  18.066  1.00  0.00     0.178 C 
BRANCH   4   5
HETATM    5  C   LIG     1      15.035  31.932  19.522  1.00  0.00     0.022 C 
HETATM    6  C   LIG     1      15.511  33.235  20.162  1.00  0.00     0.007 C 
ENDBRANCH   4   5
ENDBRANCH   1   4
TORSDOF 3
ENDMDL
MODEL 17
REMARK VINA RESULT:      -3.1      4.201      4.771
REMARK  3 active torsions:
REMARK  status: ('A' for Active; 'I' for Inactive)
REMARK    1  A    between atoms: C_2  and  O_3 
REMARK    2  A    between atoms: O_3  and  C_4 
REMARK    3  A    between atoms: C_4  and  C_5 
ROOT
HETATM    1  O   LIG     1      16.362  35.364  20.497  1.00  0.00    -0.328 OA
ENDROOT
BRANCH   1   2
HETATM    2  C   LIG     1      15.177  35.356  21.240  1.00  0.00     0.398 C 
HETATM    3  O   LIG     1      14.649  34.275  21.615  1.00  0.00    -0.276 OA
ENDBRANCH   1   2
BRANCH   1   4
HETATM    4  C   LIG     1      17.470  36.212  20.796  1.00  0.00     0.178 C 
BRANCH   4   5
HETATM    5  C   LIG     1      17.144  37.168  21.950  1.00  0.00     0.022 C 
HETATM    6  C   LIG     1      17.692  38.571  21.697  1.00  0.00     0.007 C 
ENDBRANCH   4   5
ENDBRANCH   1   4
TORSDOF 3
ENDMDL
MODEL 18
REMARK VINA RESULT:      -3.1     11.997     12.725
REMARK  3 active torsions:
REMARK  status: ('A' for Active; 'I' for Inactive)
REMARK    1  A    between atoms: C_2  and  O_3 
REMARK    2  A    between atoms: O_3  and  C_4 
REMARK    3  A    between atoms: C_4  and  C_5 
ROOT
HETATM    1  O   LIG     1      15.712  30.969  13.340  1.00  0.00    -0.328 OA
ENDROOT
BRANCH   1   2
HETATM    2  C   LIG     1      16.247  32.155  13.855  1.00  0.00     0.398 C 
HETATM    3  O   LIG     1      17.099  32.138  14.783  1.00  0.00    -0.276 OA
ENDBRANCH   1   2
BRANCH   1   4
HETATM    4  C   LIG     1      15.385  29.839  14.150  1.00  0.00     0.178 C 
BRANCH   4   5
HETATM    5  C   LIG     1      13.871  29.725  14.361  1.00  0.00     0.022 C 
HETATM    6  C   LIG     1      13.409  30.511  15.586  1.00  0.00     0.007 C 
ENDBRANCH   4   5
ENDBRANCH   1   4
TORSDOF 3
ENDMDL
MODEL 19
REMARK VINA RESULT:      -3.0     11.616     12.598
REMARK  3 active torsions:
REMARK  status: ('A' for Active; 'I' for Inactive)
REMARK    1  A    between atoms: C_2  and  O_3 
REMARK    2  A    between atoms: O_3  and  C_4 
REMARK    3  A    between atoms: C_4  and  C_5 
ROOT
HETATM    1  O   LIG     1      14.353  31.008  15.518  1.00  0.00    -0.328 OA
ENDROOT
BRANCH   1   2
HETATM    2  C   LIG     1      13.753  31.157  16.773  1.00  0.00     0.398 C 
HETATM    3  O   LIG     1      12.501  31.115  16.907  1.00  0.00    -0.276 OA
ENDBRANCH   1   2
BRANCH   1   4
HETATM    4  C   LIG     1      14.049  29.937  14.624  1.00  0.00     0.178 C 
BRANCH   4   5
HETATM    5  C   LIG     1      15.310  29.424  13.920  1.00  0.00     0.022 C 
HETATM    6  C   LIG     1      15.237  27.923  13.649  1.00  0.00     0.007 C 
ENDBRANCH   4   5
ENDBRANCH   1   4
TORSDOF 3
ENDMDL
MODEL 20
REMARK VINA RESULT:      -3.0     10.275     10.689
REMARK  3 active torsions:
REMARK  status: ('A' for Active; 'I' for Inactive)
REMARK    1  A    between atoms: C_2  and  O_3 
REMARK    2  A    between atoms: O_3  and  C_4 
REMARK    3  A    between atoms: C_4  and  C_5 
ROOT
HETATM    1  O   LIG     1      16.860  32.526  15.649  1.00  0.00    -0.328 OA
ENDROOT
BRANCH   1   2
HETATM    2  C   LIG     1      17.335  33.707  15.066  1.00  0.00     0.398 C 
HETATM    3  O   LIG     1      16.982  34.836  15.499  1.00  0.00    -0.276 OA
ENDBRANCH   1   2
BRANCH   1   4
HETATM    4  C   LIG     1      15.626  31.911  15.281  1.00  0.00     0.178 C 
BRANCH   4   5
HETATM    5  C   LIG     1      14.610  31.972  16.427  1.00  0.00     0.022 C 
HETATM    6  C   LIG     1      13.482  30.959  16.241  1.00  0.00     0.007 C 
ENDBRANCH   4   5
ENDBRANCH   1   4
TORSDOF 3
ENDMDL
