REMARK  10 active torsions:
REMARK  status: ('A' for Active; 'I' for Inactive)
REMARK    1  A    between atoms: C_2  and  C_3 
REMARK    2  A    between atoms: C_3  and  C_4 
REMARK    3  A    between atoms: C_4  and  C_5 
REMARK    4  A    between atoms: C_5  and  C_6 
REMARK    5  A    between atoms: C_6  and  C_7 
REMARK    6  A    between atoms: C_7  and  C_8 
REMARK    7  A    between atoms: C_8  and  C_9 
REMARK    8  A    between atoms: C_9  and  C_10 
REMARK    9  A    between atoms: C_10  and  O_11 
REMARK   10  A    between atoms: O_11  and  C_12 
ROOT
HETATM    1  C   LIG     1       0.955   0.878   1.065  1.00  0.00     0.000 C 
ENDROOT
BRANCH   1   2
HETATM    2  C   LIG     1      -0.407   1.547   1.311  1.00  0.00     0.000 C 
BRANCH   2   3
HETATM    3  C   LIG     1      -1.521   1.042   0.369  1.00  0.00     0.000 C 
BRANCH   3   4
HETATM    4  C   LIG     1      -2.471   0.057   1.072  1.00  0.00     0.000 C 
BRANCH   4   5
HETATM    5  C   LIG     1      -3.446  -0.624   0.098  1.00  0.00    -0.000 C 
BRANCH   5   6
HETATM    6  C   LIG     1      -4.489   0.349  -0.470  1.00  0.00    -0.005 C 
HETATM    7  C   LIG     1      -5.518  -0.387  -1.325  1.00  0.00     0.005 C 
ENDBRANCH   5   6
ENDBRANCH   4   5
ENDBRANCH   3   4
ENDBRANCH   2   3
ENDBRANCH   1   2
BRANCH   1   8
HETATM    8  C   LIG     1       0.960  -0.618   1.421  1.00  0.00     0.010 C 
BRANCH   8   9
HETATM    9  C   LIG     1       2.369  -1.223   1.353  1.00  0.00     0.111 C 
BRANCH   9  10
HETATM   10  C   LIG     1       2.904  -1.234  -0.047  1.00  0.00     0.258 C 
HETATM   11  O   LIG     1       2.337  -1.932  -0.931  1.00  0.00    -0.265 OA
BRANCH  10  12
HETATM   12  O   LIG     1       4.032  -0.468  -0.357  1.00  0.00    -0.322 OA
BRANCH  12  13
HETATM   13  C   LIG     1       4.583  -0.412  -1.668  1.00  0.00     0.174 C 
HETATM   14  C   LIG     1       5.790   0.512  -1.674  1.00  0.00     0.034 C 
ENDBRANCH  12  13
ENDBRANCH  10  12
ENDBRANCH   9  10
ENDBRANCH   8   9
ENDBRANCH   1   8
TORSDOF 10
