MODEL 1
REMARK VINA RESULT:      -5.2      0.000      0.000
REMARK  0 active torsions:
REMARK  status: ('A' for Active; 'I' for Inactive)
ROOT
HETATM    1  C   LIG     1      18.334  34.887  26.265  1.00  0.00     0.000 C 
HETATM    2  C   LIG     1      17.132  34.769  25.320  1.00  0.00     0.000 C 
HETATM    3  C   LIG     1      17.193  35.831  24.215  1.00  0.00     0.000 C 
HETATM    4  C   LIG     1      17.286  37.241  24.813  1.00  0.00     0.000 C 
HETATM    5  C   LIG     1      18.488  37.360  25.758  1.00  0.00     0.000 C 
HETATM    6  C   LIG     1      18.427  36.297  26.863  1.00  0.00     0.000 C 
ENDROOT
TORSDOF 0
ENDMDL
MODEL 2
REMARK VINA RESULT:      -5.2      0.018      2.530
REMARK  0 active torsions:
REMARK  status: ('A' for Active; 'I' for Inactive)
ROOT
HETATM    1  C   LIG     1      17.197  35.840  24.229  1.00  0.00     0.000 C 
HETATM    2  C   LIG     1      17.286  37.247  24.833  1.00  0.00     0.000 C 
HETATM    3  C   LIG     1      18.491  37.367  25.775  1.00  0.00     0.000 C 
HETATM    4  C   LIG     1      18.440  36.298  26.874  1.00  0.00     0.000 C 
HETATM    5  C   LIG     1      18.352  34.891  26.269  1.00  0.00     0.000 C 
HETATM    6  C   LIG     1      17.147  34.771  25.328  1.00  0.00     0.000 C 
ENDROOT
TORSDOF 0
ENDMDL
MODEL 3
REMARK VINA RESULT:      -5.2      0.019      2.118
REMARK  0 active torsions:
REMARK  status: ('A' for Active; 'I' for Inactive)
ROOT
HETATM    1  C   LIG     1      17.122  34.781  25.319  1.00  0.00     0.000 C 
HETATM    2  C   LIG     1      18.327  34.901  26.260  1.00  0.00     0.000 C 
HETATM    3  C   LIG     1      18.429  36.314  26.848  1.00  0.00     0.000 C 
HETATM    4  C   LIG     1      18.492  37.369  25.736  1.00  0.00     0.000 C 
HETATM    5  C   LIG     1      17.286  37.250  24.796  1.00  0.00     0.000 C 
HETATM    6  C   LIG     1      17.184  35.837  24.208  1.00  0.00     0.000 C 
ENDROOT
TORSDOF 0
ENDMDL
MODEL 4
REMARK VINA RESULT:      -5.1      0.023      2.118
REMARK  0 active torsions:
REMARK  status: ('A' for Active; 'I' for Inactive)
ROOT
HETATM    1  C   LIG     1      18.429  36.318  26.860  1.00  0.00     0.000 C 
HETATM    2  C   LIG     1      18.496  37.362  25.739  1.00  0.00     0.000 C 
HETATM    3  C   LIG     1      17.298  37.229  24.790  1.00  0.00     0.000 C 
HETATM    4  C   LIG     1      17.207  35.810  24.215  1.00  0.00     0.000 C 
HETATM    5  C   LIG     1      17.140  34.765  25.336  1.00  0.00     0.000 C 
HETATM    6  C   LIG     1      18.338  34.898  26.285  1.00  0.00     0.000 C 
ENDROOT
TORSDOF 0
ENDMDL
MODEL 5
REMARK VINA RESULT:      -5.1      0.064      2.555
REMARK  0 active torsions:
REMARK  status: ('A' for Active; 'I' for Inactive)
ROOT
HETATM    1  C   LIG     1      18.413  37.389  25.723  1.00  0.00     0.000 C 
HETATM    2  C   LIG     1      18.398  36.345  26.846  1.00  0.00     0.000 C 
HETATM    3  C   LIG     1      18.355  34.922  26.275  1.00  0.00     0.000 C 
HETATM    4  C   LIG     1      17.153  34.740  25.340  1.00  0.00     0.000 C 
HETATM    5  C   LIG     1      17.168  35.784  24.216  1.00  0.00     0.000 C 
HETATM    6  C   LIG     1      17.211  37.208  24.787  1.00  0.00     0.000 C 
ENDROOT
TORSDOF 0
ENDMDL
MODEL 6
REMARK VINA RESULT:      -5.1      0.316      2.120
REMARK  0 active torsions:
REMARK  status: ('A' for Active; 'I' for Inactive)
ROOT
HETATM    1  C   LIG     1      17.160  37.042  24.531  1.00  0.00     0.000 C 
HETATM    2  C   LIG     1      17.162  35.540  24.217  1.00  0.00     0.000 C 
HETATM    3  C   LIG     1      17.205  34.709  25.506  1.00  0.00     0.000 C 
HETATM    4  C   LIG     1      18.415  35.093  26.368  1.00  0.00     0.000 C 
HETATM    5  C   LIG     1      18.413  36.594  26.681  1.00  0.00     0.000 C 
HETATM    6  C   LIG     1      18.369  37.426  25.393  1.00  0.00     0.000 C 
ENDROOT
TORSDOF 0
ENDMDL
MODEL 7
REMARK VINA RESULT:      -4.6      4.644      5.618
REMARK  0 active torsions:
REMARK  status: ('A' for Active; 'I' for Inactive)
ROOT
HETATM    1  C   LIG     1      17.761  37.395  21.570  1.00  0.00     0.000 C 
HETATM    2  C   LIG     1      17.915  36.580  20.280  1.00  0.00     0.000 C 
HETATM    3  C   LIG     1      19.249  36.890  19.589  1.00  0.00     0.000 C 
HETATM    4  C   LIG     1      19.389  38.392  19.311  1.00  0.00     0.000 C 
HETATM    5  C   LIG     1      19.235  39.207  20.601  1.00  0.00     0.000 C 
HETATM    6  C   LIG     1      17.901  38.897  21.292  1.00  0.00     0.000 C 
ENDROOT
TORSDOF 0
ENDMDL
MODEL 8
REMARK VINA RESULT:      -4.6      4.647      6.020
REMARK  0 active torsions:
REMARK  status: ('A' for Active; 'I' for Inactive)
ROOT
HETATM    1  C   LIG     1      19.288  39.181  20.629  1.00  0.00     0.000 C 
HETATM    2  C   LIG     1      17.929  38.910  21.287  1.00  0.00     0.000 C 
HETATM    3  C   LIG     1      17.732  37.411  21.547  1.00  0.00     0.000 C 
HETATM    4  C   LIG     1      17.889  36.602  20.253  1.00  0.00     0.000 C 
HETATM    5  C   LIG     1      19.248  36.873  19.596  1.00  0.00     0.000 C 
HETATM    6  C   LIG     1      19.444  38.372  19.335  1.00  0.00     0.000 C 
ENDROOT
TORSDOF 0
ENDMDL
MODEL 9
REMARK VINA RESULT:      -4.6      4.659      5.816
REMARK  0 active torsions:
REMARK  status: ('A' for Active; 'I' for Inactive)
ROOT
HETATM    1  C   LIG     1      19.371  38.404  19.282  1.00  0.00     0.000 C 
HETATM    2  C   LIG     1      19.246  36.906  19.586  1.00  0.00     0.000 C 
HETATM    3  C   LIG     1      17.929  36.599  20.312  1.00  0.00     0.000 C 
HETATM    4  C   LIG     1      17.799  37.434  21.592  1.00  0.00     0.000 C 
HETATM    5  C   LIG     1      17.924  38.932  21.288  1.00  0.00     0.000 C 
HETATM    6  C   LIG     1      19.241  39.239  20.562  1.00  0.00     0.000 C 
ENDROOT
TORSDOF 0
ENDMDL
MODEL 10
REMARK VINA RESULT:      -4.6      4.652      5.806
REMARK  0 active torsions:
REMARK  status: ('A' for Active; 'I' for Inactive)
ROOT
HETATM    1  C   LIG     1      17.878  36.607  20.345  1.00  0.00     0.000 C 
HETATM    2  C   LIG     1      17.769  37.483  21.600  1.00  0.00     0.000 C 
HETATM    3  C   LIG     1      17.953  38.966  21.254  1.00  0.00     0.000 C 
HETATM    4  C   LIG     1      19.286  39.202  20.532  1.00  0.00     0.000 C 
HETATM    5  C   LIG     1      19.395  38.326  19.277  1.00  0.00     0.000 C 
HETATM    6  C   LIG     1      19.211  36.843  19.624  1.00  0.00     0.000 C 
ENDROOT
TORSDOF 0
ENDMDL
MODEL 11
REMARK VINA RESULT:      -4.6      4.688      5.955
REMARK  0 active torsions:
REMARK  status: ('A' for Active; 'I' for Inactive)
ROOT
HETATM    1  C   LIG     1      17.558  37.713  21.389  1.00  0.00     0.000 C 
HETATM    2  C   LIG     1      18.557  38.840  21.681  1.00  0.00     0.000 C 
HETATM    3  C   LIG     1      19.153  39.398  20.382  1.00  0.00     0.000 C 
HETATM    4  C   LIG     1      19.806  38.285  19.553  1.00  0.00     0.000 C 
HETATM    5  C   LIG     1      18.807  37.158  19.261  1.00  0.00     0.000 C 
HETATM    6  C   LIG     1      18.212  36.599  20.560  1.00  0.00     0.000 C 
ENDROOT
TORSDOF 0
ENDMDL
MODEL 12
REMARK VINA RESULT:      -4.6      4.671      6.044
REMARK  0 active torsions:
REMARK  status: ('A' for Active; 'I' for Inactive)
ROOT
HETATM    1  C   LIG     1      19.806  38.094  19.587  1.00  0.00     0.000 C 
HETATM    2  C   LIG     1      19.228  39.299  20.339  1.00  0.00     0.000 C 
HETATM    3  C   LIG     1      18.602  38.867  21.672  1.00  0.00     0.000 C 
HETATM    4  C   LIG     1      17.533  37.789  21.454  1.00  0.00     0.000 C 
HETATM    5  C   LIG     1      18.111  36.584  20.701  1.00  0.00     0.000 C 
HETATM    6  C   LIG     1      18.736  37.016  19.369  1.00  0.00     0.000 C 
ENDROOT
TORSDOF 0
ENDMDL
MODEL 13
REMARK VINA RESULT:      -4.1      3.586      4.688
REMARK  0 active torsions:
REMARK  status: ('A' for Active; 'I' for Inactive)
ROOT
HETATM    1  C   LIG     1      18.121  38.382  20.891  1.00  0.00     0.000 C 
HETATM    2  C   LIG     1      18.407  36.969  20.368  1.00  0.00     0.000 C 
HETATM    3  C   LIG     1      17.223  36.032  20.639  1.00  0.00     0.000 C 
HETATM    4  C   LIG     1      16.871  36.006  22.132  1.00  0.00     0.000 C 
HETATM    5  C   LIG     1      16.585  37.419  22.654  1.00  0.00     0.000 C 
HETATM    6  C   LIG     1      17.769  38.357  22.384  1.00  0.00     0.000 C 
ENDROOT
TORSDOF 0
ENDMDL
MODEL 14
REMARK VINA RESULT:      -4.1      3.408      4.223
REMARK  0 active torsions:
REMARK  status: ('A' for Active; 'I' for Inactive)
ROOT
HETATM    1  C   LIG     1      16.890  36.111  22.390  1.00  0.00     0.000 C 
HETATM    2  C   LIG     1      17.144  36.034  20.880  1.00  0.00     0.000 C 
HETATM    3  C   LIG     1      18.328  36.920  20.474  1.00  0.00     0.000 C 
HETATM    4  C   LIG     1      18.109  38.371  20.922  1.00  0.00     0.000 C 
HETATM    5  C   LIG     1      17.854  38.448  22.432  1.00  0.00     0.000 C 
HETATM    6  C   LIG     1      16.670  37.562  22.838  1.00  0.00     0.000 C 
ENDROOT
TORSDOF 0
ENDMDL
MODEL 15
REMARK VINA RESULT:      -4.1     10.784     12.049
REMARK  0 active torsions:
REMARK  status: ('A' for Active; 'I' for Inactive)
ROOT
HETATM    1  C   LIG     1      13.866  31.037  16.542  1.00  0.00     0.000 C 
HETATM    2  C   LIG     1      13.190  30.343  15.353  1.00  0.00     0.000 C 
HETATM    3  C   LIG     1      14.231  29.766  14.386  1.00  0.00     0.000 C 
HETATM    4  C   LIG     1      15.202  30.854  13.909  1.00  0.00     0.000 C 
HETATM    5  C   LIG     1      15.878  31.548  15.098  1.00  0.00     0.000 C 
HETATM    6  C   LIG     1      14.836  32.125  16.065  1.00  0.00     0.000 C 
ENDROOT
TORSDOF 0
ENDMDL
MODEL 16
REMARK VINA RESULT:      -4.0     10.450     11.826
REMARK  0 active torsions:
REMARK  status: ('A' for Active; 'I' for Inactive)
ROOT
HETATM    1  C   LIG     1      14.562  32.369  16.439  1.00  0.00     0.000 C 
HETATM    2  C   LIG     1      15.822  32.060  15.620  1.00  0.00     0.000 C 
HETATM    3  C   LIG     1      15.465  31.358  14.304  1.00  0.00     0.000 C 
HETATM    4  C   LIG     1      14.651  30.083  14.563  1.00  0.00     0.000 C 
HETATM    5  C   LIG     1      13.391  30.392  15.382  1.00  0.00     0.000 C 
HETATM    6  C   LIG     1      13.748  31.095  16.698  1.00  0.00     0.000 C 
ENDROOT
TORSDOF 0
ENDMDL
MODEL 17
REMARK VINA RESULT:      -4.0     10.240     11.586
REMARK  0 active torsions:
REMARK  status: ('A' for Active; 'I' for Inactive)
ROOT
HETATM    1  C   LIG     1      13.372  30.651  15.742  1.00  0.00     0.000 C 
HETATM    2  C   LIG     1      13.911  31.422  16.953  1.00  0.00     0.000 C 
HETATM    3  C   LIG     1      14.784  32.604  16.509  1.00  0.00     0.000 C 
HETATM    4  C   LIG     1      15.928  32.133  15.603  1.00  0.00     0.000 C 
HETATM    5  C   LIG     1      15.389  31.361  14.392  1.00  0.00     0.000 C 
HETATM    6  C   LIG     1      14.517  30.180  14.835  1.00  0.00     0.000 C 
ENDROOT
TORSDOF 0
ENDMDL
MODEL 18
REMARK VINA RESULT:      -4.0     10.362     11.634
REMARK  0 active torsions:
REMARK  status: ('A' for Active; 'I' for Inactive)
ROOT
HETATM    1  C   LIG     1      15.560  31.466  14.323  1.00  0.00     0.000 C 
HETATM    2  C   LIG     1      14.756  30.185  14.579  1.00  0.00     0.000 C 
HETATM    3  C   LIG     1      13.499  30.479  15.407  1.00  0.00     0.000 C 
HETATM    4  C   LIG     1      13.858  31.176  16.725  1.00  0.00     0.000 C 
HETATM    5  C   LIG     1      14.662  32.457  16.469  1.00  0.00     0.000 C 
HETATM    6  C   LIG     1      15.919  32.163  15.642  1.00  0.00     0.000 C 
ENDROOT
TORSDOF 0
ENDMDL
MODEL 19
REMARK VINA RESULT:      -4.0      2.072      3.583
REMARK  0 active torsions:
REMARK  status: ('A' for Active; 'I' for Inactive)
ROOT
HETATM    1  C   LIG     1      16.962  36.991  24.293  1.00  0.00     0.000 C 
HETATM    2  C   LIG     1      17.634  38.032  23.389  1.00  0.00     0.000 C 
HETATM    3  C   LIG     1      17.137  37.909  21.943  1.00  0.00     0.000 C 
HETATM    4  C   LIG     1      17.356  36.490  21.405  1.00  0.00     0.000 C 
HETATM    5  C   LIG     1      16.684  35.448  22.308  1.00  0.00     0.000 C 
HETATM    6  C   LIG     1      17.181  35.571  23.754  1.00  0.00     0.000 C 
ENDROOT
TORSDOF 0
ENDMDL
MODEL 20
REMARK VINA RESULT:      -4.0      2.153      3.990
REMARK  0 active torsions:
REMARK  status: ('A' for Active; 'I' for Inactive)
ROOT
HETATM    1  C   LIG     1      17.519  37.682  21.635  1.00  0.00     0.000 C 
HETATM    2  C   LIG     1      17.430  38.775  22.706  1.00  0.00     0.000 C 
HETATM    3  C   LIG     1      17.841  38.234  24.081  1.00  0.00     0.000 C 
HETATM    4  C   LIG     1      16.995  37.014  24.468  1.00  0.00     0.000 C 
HETATM    5  C   LIG     1      17.085  35.920  23.396  1.00  0.00     0.000 C 
HETATM    6  C   LIG     1      16.673  36.462  22.021  1.00  0.00     0.000 C 
ENDROOT
TORSDOF 0
ENDMDL
