REMARK  7 active torsions:
REMARK  status: ('A' for Active; 'I' for Inactive)
REMARK    1  A    between atoms: C_6  and  O_7 
REMARK    2  A    between atoms: C_21  and  C_23 
REMARK    3  A    between atoms: C_21  and  O_22 
REMARK    4  A    between atoms: C_23  and  C_24 
REMARK    5  A    between atoms: C_24  and  O_25 
REMARK    6  A    between atoms: O_25  and  C_26 
REMARK    7  A    between atoms: C_26  and  C_27 
ROOT
HETATM    1  C   LIG     1      -3.683   1.689   0.900  1.00  0.00     0.025 C 
HETATM    2  C   LIG     1      -3.001   1.329  -0.441  1.00  0.00     0.004 C 
HETATM    3  C   LIG     1      -2.533   2.656  -1.034  1.00  0.00    -0.009 C 
HETATM    4  C   LIG     1      -3.119   3.240  -2.080  1.00  0.00     0.052 C 
HETATM    5  C   LIG     1      -1.726   0.371  -0.309  1.00  0.00     0.035 C 
HETATM    6  C   LIG     1      -1.032   0.380   1.083  1.00  0.00     0.124 C 
HETATM    7  C   LIG     1       0.238  -0.483   1.075  1.00  0.00     0.045 C 
HETATM    8  C   LIG     1      -1.988  -1.071  -0.835  1.00  0.00    -0.002 C 
HETATM    9  C   LIG     1      -3.350  -1.592  -0.330  1.00  0.00     0.010 C 
HETATM   10  C   LIG     1      -4.502  -0.777  -0.950  1.00  0.00     0.036 C 
HETATM   11  C   LIG     1      -4.087   0.645  -1.291  1.00  0.00    -0.064 C 
HETATM   12  C   LIG     1      -4.678   1.265  -2.324  1.00  0.00     0.058 C 
HETATM   13  C   LIG     1      -4.247   2.598  -2.750  1.00  0.00     0.171 C 
HETATM   14  O   LIG     1      -4.830   3.179  -3.703  1.00  0.00    -0.289 OA
HETATM   15  C   LIG     1      -0.800  -2.071  -0.651  1.00  0.00     0.002 C 
HETATM   16  C   LIG     1       0.233  -1.951  -1.790  1.00  0.00     0.009 C 
HETATM   17  C   LIG     1       1.614  -2.160  -1.176  1.00  0.00     0.047 C 
HETATM   18  C   LIG     1       0.015  -1.977   0.663  1.00  0.00     0.001 C 
HETATM   19  C   LIG     1      -0.684  -2.764   1.808  1.00  0.00     0.019 C 
HETATM   20  C   LIG     1       1.380  -2.650   0.266  1.00  0.00     0.128 C 
ENDROOT
BRANCH  20  21
HETATM   21  C   LIG     1       2.535  -2.323   1.224  1.00  0.00     0.185 C 
HETATM   22  O   LIG     1       2.350  -2.429   2.429  1.00  0.00    -0.292 OA
BRANCH  21  23
HETATM   23  C   LIG     1       3.928  -1.969   0.746  1.00  0.00     0.260 C 
BRANCH  23  24
HETATM   24  O   LIG     1       4.006  -0.612   0.301  1.00  0.00    -0.313 OA
BRANCH  24  25
HETATM   25  C   LIG     1       3.814   0.492   1.141  1.00  0.00     0.266 C 
HETATM   26  O   LIG     1       3.608   0.318   2.376  1.00  0.00    -0.264 OA
BRANCH  25  27
HETATM   27  C   LIG     1       3.932   1.891   0.565  1.00  0.00     0.037 C 
HETATM   28  C   LIG     1       3.119   1.986  -0.742  1.00  0.00     0.025 C 
HETATM   29  C   LIG     1       5.414   2.180   0.266  1.00  0.00     0.025 C 
HETATM   30  C   LIG     1       3.401   2.944   1.562  1.00  0.00     0.025 C 
ENDBRANCH  25  27
ENDBRANCH  24  25
ENDBRANCH  23  24
ENDBRANCH  21  23
ENDBRANCH  20  21
BRANCH  20  31
HETATM   31  O   LIG     1       1.217  -4.053   0.227  1.00  0.00    -0.381 OA
HETATM   32  H   LIG     1       2.089  -4.463  -0.013  1.00  0.00     0.211 HD
ENDBRANCH  20  31
BRANCH   6  33
HETATM   33  O   LIG     1      -1.892  -0.057   2.103  1.00  0.00    -0.395 OA
HETATM   34  H   LIG     1      -1.526   0.289   2.959  1.00  0.00     0.210 HD
ENDBRANCH   6  33
TORSDOF 7
