REMARK  6 active torsions:
REMARK  status: ('A' for Active; 'I' for Inactive)
REMARK    1  A    between atoms: C_2  and  C_3 
REMARK    2  A    between atoms: C_3  and  C_4 
REMARK    3  A    between atoms: C_4  and  O_5 
REMARK    4  A    between atoms: O_5  and  C_6 
REMARK    5  A    between atoms: C_6  and  C_7 
REMARK    6  A    between atoms: C_7  and  O_8 
ROOT
HETATM    1  O   LIG     1       1.107  -0.018   0.288  1.00  0.00    -0.389 OA
ENDROOT
BRANCH   1   2
HETATM    2  C   LIG     1      -0.206   0.009  -0.231  1.00  0.00     0.167 C 
BRANCH   2   3
HETATM    3  C   LIG     1      -1.051  -1.034   0.504  1.00  0.00     0.026 C 
BRANCH   3   4
HETATM    4  C   LIG     1      -2.462  -1.181  -0.084  1.00  0.00    -0.002 C 
HETATM    5  C   LIG     1      -3.349   0.032   0.196  1.00  0.00     0.005 C 
ENDBRANCH   3   4
ENDBRANCH   2   3
ENDBRANCH   1   2
BRANCH   1   6
HETATM    6  C   LIG     1       1.901   0.937  -0.386  1.00  0.00     0.193 C 
BRANCH   6   7
HETATM    7  C   LIG     1       3.317   0.902   0.174  1.00  0.00     0.190 C 
BRANCH   7   8
HETATM    8  O   LIG     1       3.885  -0.359  -0.047  1.00  0.00    -0.399 OA
HETATM    9  H   LIG     1       4.798  -0.321   0.339  1.00  0.00     0.209 HD
ENDBRANCH   7   8
ENDBRANCH   6   7
ENDBRANCH   1   6
TORSDOF 6
