REMARK  5 active torsions:
REMARK  status: ('A' for Active; 'I' for Inactive)
REMARK    1  A    between atoms: C_2  and  C_3 
REMARK    2  A    between atoms: C_3  and  C_4 
REMARK    3  A    between atoms: C_4  and  C_5 
REMARK    4  A    between atoms: C_5  and  C_6 
REMARK    5  A    between atoms: C_6  and  C_7 
ROOT
HETATM    1  C   LIG     1      -0.517  -0.871  -0.860  1.00  0.00     0.007 C 
ENDROOT
BRANCH   1   2
HETATM    2  C   LIG     1      -2.021  -1.179  -0.851  1.00  0.00     0.077 C 
BRANCH   2   3
HETATM    3  C   LIG     1      -2.825  -0.040  -0.281  1.00  0.00     0.123 C 
HETATM    4  C   LIG     1      -3.061   1.211  -1.073  1.00  0.00     0.091 C 
HETATM    5  O   LIG     1      -3.270  -0.123   0.854  1.00  0.00    -0.298 OA
ENDBRANCH   2   3
ENDBRANCH   1   2
BRANCH   1   6
HETATM    6  C   LIG     1       0.061  -0.767   0.562  1.00  0.00     0.000 C 
BRANCH   6   7
HETATM    7  C   LIG     1       1.593  -0.638   0.569  1.00  0.00    -0.000 C 
BRANCH   7   8
HETATM    8  C   LIG     1       2.072   0.729   0.056  1.00  0.00    -0.005 C 
HETATM    9  C   LIG     1       3.584   0.870   0.202  1.00  0.00     0.005 C 
ENDBRANCH   7   8
ENDBRANCH   6   7
ENDBRANCH   1   6
TORSDOF 5
