REMARK  5 active torsions:
REMARK  status: ('A' for Active; 'I' for Inactive)
REMARK    1  A    between atoms: C_2  and  C_3 
REMARK    2  A    between atoms: C_3  and  C_4 
REMARK    3  A    between atoms: C_4  and  C_5 
REMARK    4  A    between atoms: C_5  and  C_6 
REMARK    5  A    between atoms: C_6  and  C_7 
ROOT
HETATM    1  C   LIG     1       0.666  -1.558  -0.577  1.00  0.00     0.000 C 
ENDROOT
BRANCH   1   2
HETATM    2  C   LIG     1       1.702  -0.432  -0.744  1.00  0.00    -0.000 C 
BRANCH   2   3
HETATM    3  C   LIG     1       2.317   0.018   0.589  1.00  0.00    -0.005 C 
HETATM    4  C   LIG     1       3.464   0.998   0.362  1.00  0.00     0.005 C 
ENDBRANCH   2   3
ENDBRANCH   1   2
BRANCH   1   5
HETATM    5  C   LIG     1      -0.562  -1.191   0.276  1.00  0.00     0.000 C 
BRANCH   5   6
HETATM    6  C   LIG     1      -1.385  -0.041  -0.322  1.00  0.00    -0.000 C 
BRANCH   6   7
HETATM    7  C   LIG     1      -2.690   0.163   0.456  1.00  0.00    -0.005 C 
HETATM    8  C   LIG     1      -3.503   1.317  -0.123  1.00  0.00     0.005 C 
ENDBRANCH   6   7
ENDBRANCH   5   6
ENDBRANCH   1   5
TORSDOF 5
