REMARK  5 active torsions:
REMARK  status: ('A' for Active; 'I' for Inactive)
REMARK    1  A    between atoms: C_2  and  C_3 
REMARK    2  A    between atoms: C_3  and  C_4 
REMARK    3  A    between atoms: C_4  and  C_5 
REMARK    4  A    between atoms: C_5  and  C_6 
REMARK    5  A    between atoms: C_6  and  C_7 
ROOT
HETATM    1  C   LIG     1      -0.207  -0.257   0.631  1.00  0.00     0.000 C 
ENDROOT
BRANCH   1   2
HETATM    2  C   LIG     1       1.106   0.110  -0.070  1.00  0.00    -0.000 C 
BRANCH   2   3
HETATM    3  C   LIG     1       2.312  -0.440   0.701  1.00  0.00    -0.005 C 
HETATM    4  C   LIG     1       3.622  -0.076   0.007  1.00  0.00     0.005 C 
ENDBRANCH   2   3
ENDBRANCH   1   2
BRANCH   1   5
HETATM    5  C   LIG     1      -1.414   0.292  -0.139  1.00  0.00     0.007 C 
BRANCH   5   6
HETATM    6  C   LIG     1      -2.727  -0.074   0.563  1.00  0.00     0.069 C 
BRANCH   6   7
HETATM    7  C   LIG     1      -3.908   0.441  -0.204  1.00  0.00     0.231 C 
HETATM    8  O   LIG     1      -4.080   1.641  -0.344  1.00  0.00    -0.307 OA
ENDBRANCH   6   7
ENDBRANCH   5   6
ENDBRANCH   1   5
TORSDOF 5
