REMARK  5 active torsions:
REMARK  status: ('A' for Active; 'I' for Inactive)
REMARK    1  A    between atoms: C_2  and  C_3 
REMARK    2  A    between atoms: C_3  and  C_4 
REMARK    3  A    between atoms: C_4  and  C_5 
REMARK    4  A    between atoms: C_5  and  C_6 
REMARK    5  A    between atoms: C_6  and  C_7 
ROOT
HETATM    1  C   LIG     1      -0.002  -0.454   0.110  1.00  0.00     0.000 C 
ENDROOT
BRANCH   1   2
HETATM    2  C   LIG     1       1.362  -1.159   0.071  1.00  0.00    -0.000 C 
BRANCH   2   3
HETATM    3  C   LIG     1       2.296  -0.701   1.202  1.00  0.00    -0.005 C 
HETATM    4  C   LIG     1       2.801   0.729   1.008  1.00  0.00     0.005 C 
ENDBRANCH   2   3
ENDBRANCH   1   2
BRANCH   1   5
HETATM    5  C   LIG     1      -0.946  -1.024  -0.960  1.00  0.00     0.004 C 
BRANCH   5   6
HETATM    6  C   LIG     1      -2.329  -0.363  -0.920  1.00  0.00     0.026 C 
BRANCH   6   7
HETATM    7  C   LIG     1      -2.266   1.072  -1.372  1.00  0.00    -0.037 C 
HETATM    8  C   LIG     1      -2.619   2.082  -0.572  1.00  0.00     0.007 C 
ENDBRANCH   6   7
ENDBRANCH   5   6
ENDBRANCH   1   5
TORSDOF 5
