REMARK  7 active torsions:
REMARK  status: ('A' for Active; 'I' for Inactive)
REMARK    1  A    between atoms: C_2  and  C_3 
REMARK    2  A    between atoms: C_3  and  C_4 
REMARK    3  A    between atoms: C_4  and  C_5 
REMARK    4  A    between atoms: C_5  and  C_6 
REMARK    5  A    between atoms: C_6  and  C_7 
REMARK    6  A    between atoms: C_7  and  C_8 
REMARK    7  A    between atoms: C_8  and  N_9 
ROOT
HETATM    1  C   LIG     1      -1.307  -0.033   0.408  1.00  0.00     0.002 C 
ENDROOT
BRANCH   1   2
HETATM    2  C   LIG     1      -0.201   1.029   0.510  1.00  0.00     0.000 C 
BRANCH   2   3
HETATM    3  C   LIG     1       1.201   0.414   0.656  1.00  0.00     0.000 C 
BRANCH   3   4
HETATM    4  C   LIG     1       1.718  -0.200  -0.656  1.00  0.00    -0.000 C 
BRANCH   4   5
HETATM    5  C   LIG     1       3.123  -0.803  -0.510  1.00  0.00    -0.005 C 
HETATM    6  C   LIG     1       4.216   0.260  -0.391  1.00  0.00     0.005 C 
ENDBRANCH   4   5
ENDBRANCH   3   4
ENDBRANCH   2   3
ENDBRANCH   1   2
BRANCH   1   7
HETATM    7  C   LIG     1      -2.695   0.624   0.384  1.00  0.00     0.030 C 
BRANCH   7   8
HETATM    8  C   LIG     1      -3.838  -0.407   0.415  1.00  0.00     0.267 C 
BRANCH   8   9
HETATM    9  N   LIG     1      -3.921  -1.189  -0.818  1.00  0.00     0.078 N 
HETATM   10  H   LIG     1      -3.100  -1.833  -0.875  1.00  0.00     0.312 HD
HETATM   11  H   LIG     1      -3.890  -0.546  -1.642  1.00  0.00     0.312 HD
ENDBRANCH   8   9
ENDBRANCH   7   8
ENDBRANCH   1   7
TORSDOF 7
