MODEL 1
REMARK VINA RESULT:      -5.0      0.000      0.000
REMARK  6 active torsions:
REMARK  status: ('A' for Active; 'I' for Inactive)
REMARK    1  A    between atoms: C_2  and  C_3 
REMARK    2  A    between atoms: C_3  and  C_4 
REMARK    3  A    between atoms: C_4  and  C_5 
REMARK    4  A    between atoms: C_5  and  C_6 
REMARK    5  A    between atoms: C_6  and  C_7 
REMARK    6  A    between atoms: C_7  and  N_8 
ROOT
HETATM    1  C   LIG     1      16.611  36.435  22.799  1.00  0.00     0.002 C 
ENDROOT
BRANCH   1   2
HETATM    2  C   LIG     1      17.260  36.412  24.189  1.00  0.00     0.000 C 
BRANCH   2   3
HETATM    3  C   LIG     1      17.298  34.985  24.756  1.00  0.00    -0.000 C 
BRANCH   3   4
HETATM    4  C   LIG     1      17.976  34.913  26.132  1.00  0.00    -0.005 C 
HETATM    5  C   LIG     1      18.342  36.291  26.683  1.00  0.00     0.005 C 
ENDBRANCH   3   4
ENDBRANCH   2   3
ENDBRANCH   1   2
BRANCH   1   6
HETATM    6  C   LIG     1      16.828  35.101  22.069  1.00  0.00     0.030 C 
BRANCH   6   7
HETATM    7  C   LIG     1      15.651  34.738  21.157  1.00  0.00     0.267 C 
BRANCH   7   8
HETATM    8  N   LIG     1      14.553  35.689  21.315  1.00  0.00     0.078 N 
HETATM    9  H   LIG     1      14.048  35.463  22.203  1.00  0.00     0.312 HD
HETATM   10  H   LIG     1      14.971  36.637  21.456  1.00  0.00     0.312 HD
ENDBRANCH   7   8
ENDBRANCH   6   7
ENDBRANCH   1   6
TORSDOF 6
ENDMDL
MODEL 2
REMARK VINA RESULT:      -4.9      2.143      2.679
REMARK  6 active torsions:
REMARK  status: ('A' for Active; 'I' for Inactive)
REMARK    1  A    between atoms: C_2  and  C_3 
REMARK    2  A    between atoms: C_3  and  C_4 
REMARK    3  A    between atoms: C_4  and  C_5 
REMARK    4  A    between atoms: C_5  and  C_6 
REMARK    5  A    between atoms: C_6  and  C_7 
REMARK    6  A    between atoms: C_7  and  N_8 
ROOT
HETATM    1  C   LIG     1      18.218  38.219  24.403  1.00  0.00     0.002 C 
ENDROOT
BRANCH   1   2
HETATM    2  C   LIG     1      17.444  37.486  25.507  1.00  0.00     0.000 C 
BRANCH   2   3
HETATM    3  C   LIG     1      18.404  36.774  26.472  1.00  0.00    -0.000 C 
BRANCH   3   4
HETATM    4  C   LIG     1      18.313  35.244  26.374  1.00  0.00    -0.005 C 
HETATM    5  C   LIG     1      17.286  34.777  25.343  1.00  0.00     0.005 C 
ENDBRANCH   3   4
ENDBRANCH   2   3
ENDBRANCH   1   2
BRANCH   1   6
HETATM    6  C   LIG     1      17.600  37.945  23.024  1.00  0.00     0.030 C 
BRANCH   6   7
HETATM    7  C   LIG     1      16.122  37.551  23.115  1.00  0.00     0.267 C 
BRANCH   7   8
HETATM    8  N   LIG     1      15.257  38.688  22.805  1.00  0.00     0.078 N 
HETATM    9  H   LIG     1      15.210  39.305  23.648  1.00  0.00     0.312 HD
HETATM   10  H   LIG     1      15.728  39.252  22.062  1.00  0.00     0.312 HD
ENDBRANCH   7   8
ENDBRANCH   6   7
ENDBRANCH   1   6
TORSDOF 6
ENDMDL
MODEL 3
REMARK VINA RESULT:      -4.9      2.790      3.219
REMARK  6 active torsions:
REMARK  status: ('A' for Active; 'I' for Inactive)
REMARK    1  A    between atoms: C_2  and  C_3 
REMARK    2  A    between atoms: C_3  and  C_4 
REMARK    3  A    between atoms: C_4  and  C_5 
REMARK    4  A    between atoms: C_5  and  C_6 
REMARK    5  A    between atoms: C_6  and  C_7 
REMARK    6  A    between atoms: C_7  and  N_8 
ROOT
HETATM    1  C   LIG     1      16.909  37.370  23.664  1.00  0.00     0.002 C 
ENDROOT
BRANCH   1   2
HETATM    2  C   LIG     1      17.187  37.857  25.092  1.00  0.00     0.000 C 
BRANCH   2   3
HETATM    3  C   LIG     1      18.503  37.272  25.627  1.00  0.00    -0.000 C 
BRANCH   3   4
HETATM    4  C   LIG     1      18.280  36.229  26.732  1.00  0.00    -0.005 C 
HETATM    5  C   LIG     1      17.971  34.838  26.178  1.00  0.00     0.005 C 
ENDBRANCH   3   4
ENDBRANCH   2   3
ENDBRANCH   1   2
BRANCH   1   6
HETATM    6  C   LIG     1      16.837  38.552  22.685  1.00  0.00     0.030 C 
BRANCH   6   7
HETATM    7  C   LIG     1      17.943  38.498  21.626  1.00  0.00     0.267 C 
BRANCH   7   8
HETATM    8  N   LIG     1      19.083  39.325  22.017  1.00  0.00     0.078 N 
HETATM    9  H   LIG     1      19.885  39.098  21.386  1.00  0.00     0.312 HD
HETATM   10  H   LIG     1      18.835  40.322  21.819  1.00  0.00     0.312 HD
ENDBRANCH   7   8
ENDBRANCH   6   7
ENDBRANCH   1   6
TORSDOF 6
ENDMDL
MODEL 4
REMARK VINA RESULT:      -4.8      3.783      5.459
REMARK  6 active torsions:
REMARK  status: ('A' for Active; 'I' for Inactive)
REMARK    1  A    between atoms: C_2  and  C_3 
REMARK    2  A    between atoms: C_3  and  C_4 
REMARK    3  A    between atoms: C_4  and  C_5 
REMARK    4  A    between atoms: C_5  and  C_6 
REMARK    5  A    between atoms: C_6  and  C_7 
REMARK    6  A    between atoms: C_7  and  N_8 
ROOT
HETATM    1  C   LIG     1      18.025  38.698  22.748  1.00  0.00     0.002 C 
ENDROOT
BRANCH   1   2
HETATM    2  C   LIG     1      17.928  38.842  21.223  1.00  0.00     0.000 C 
BRANCH   2   3
HETATM    3  C   LIG     1      19.285  39.233  20.620  1.00  0.00    -0.000 C 
BRANCH   3   4
HETATM    4  C   LIG     1      19.710  38.305  19.472  1.00  0.00    -0.005 C 
HETATM    5  C   LIG     1      19.085  36.913  19.574  1.00  0.00     0.005 C 
ENDBRANCH   3   4
ENDBRANCH   2   3
ENDBRANCH   1   2
BRANCH   1   6
HETATM    6  C   LIG     1      16.793  37.976  23.311  1.00  0.00     0.030 C 
BRANCH   6   7
HETATM    7  C   LIG     1      17.019  37.465  24.739  1.00  0.00     0.267 C 
BRANCH   7   8
HETATM    8  N   LIG     1      17.306  38.571  25.651  1.00  0.00     0.078 N 
HETATM    9  H   LIG     1      16.977  39.458  25.206  1.00  0.00     0.312 HD
HETATM   10  H   LIG     1      16.714  38.441  26.503  1.00  0.00     0.312 HD
ENDBRANCH   7   8
ENDBRANCH   6   7
ENDBRANCH   1   6
TORSDOF 6
ENDMDL
MODEL 5
REMARK VINA RESULT:      -4.6      3.465      4.016
REMARK  6 active torsions:
REMARK  status: ('A' for Active; 'I' for Inactive)
REMARK    1  A    between atoms: C_2  and  C_3 
REMARK    2  A    between atoms: C_3  and  C_4 
REMARK    3  A    between atoms: C_4  and  C_5 
REMARK    4  A    between atoms: C_5  and  C_6 
REMARK    5  A    between atoms: C_6  and  C_7 
REMARK    6  A    between atoms: C_7  and  N_8 
ROOT
HETATM    1  C   LIG     1      17.755  38.297  21.650  1.00  0.00     0.002 C 
ENDROOT
BRANCH   1   2
HETATM    2  C   LIG     1      16.980  38.687  22.916  1.00  0.00     0.000 C 
BRANCH   2   3
HETATM    3  C   LIG     1      16.953  37.527  23.923  1.00  0.00    -0.000 C 
BRANCH   3   4
HETATM    4  C   LIG     1      17.450  37.942  25.316  1.00  0.00    -0.005 C 
HETATM    5  C   LIG     1      18.246  36.838  26.012  1.00  0.00     0.005 C 
ENDBRANCH   3   4
ENDBRANCH   2   3
ENDBRANCH   1   2
BRANCH   1   6
HETATM    6  C   LIG     1      18.754  39.395  21.257  1.00  0.00     0.030 C 
BRANCH   6   7
HETATM    7  C   LIG     1      19.603  39.003  20.042  1.00  0.00     0.267 C 
BRANCH   7   8
HETATM    8  N   LIG     1      18.976  39.449  18.800  1.00  0.00     0.078 N 
HETATM    9  H   LIG     1      19.670  40.026  18.271  1.00  0.00     0.312 HD
HETATM   10  H   LIG     1      18.799  38.603  18.212  1.00  0.00     0.312 HD
ENDBRANCH   7   8
ENDBRANCH   6   7
ENDBRANCH   1   6
TORSDOF 6
ENDMDL
MODEL 6
REMARK VINA RESULT:      -4.5      2.848      4.663
REMARK  6 active torsions:
REMARK  status: ('A' for Active; 'I' for Inactive)
REMARK    1  A    between atoms: C_2  and  C_3 
REMARK    2  A    between atoms: C_3  and  C_4 
REMARK    3  A    between atoms: C_4  and  C_5 
REMARK    4  A    between atoms: C_5  and  C_6 
REMARK    5  A    between atoms: C_6  and  C_7 
REMARK    6  A    between atoms: C_7  and  N_8 
ROOT
HETATM    1  C   LIG     1      16.940  35.260  23.342  1.00  0.00     0.002 C 
ENDROOT
BRANCH   1   2
HETATM    2  C   LIG     1      16.550  36.242  22.229  1.00  0.00     0.000 C 
BRANCH   2   3
HETATM    3  C   LIG     1      17.426  36.038  20.984  1.00  0.00    -0.000 C 
BRANCH   3   4
HETATM    4  C   LIG     1      18.239  37.290  20.622  1.00  0.00    -0.005 C 
HETATM    5  C   LIG     1      19.194  37.056  19.451  1.00  0.00     0.005 C 
ENDBRANCH   3   4
ENDBRANCH   2   3
ENDBRANCH   1   2
BRANCH   1   6
HETATM    6  C   LIG     1      17.328  36.010  24.625  1.00  0.00     0.030 C 
BRANCH   6   7
HETATM    7  C   LIG     1      16.888  37.478  24.598  1.00  0.00     0.267 C 
BRANCH   7   8
HETATM    8  N   LIG     1      17.463  38.218  25.719  1.00  0.00     0.078 N 
HETATM    9  H   LIG     1      18.504  38.205  25.622  1.00  0.00     0.312 HD
HETATM   10  H   LIG     1      17.177  39.219  25.619  1.00  0.00     0.312 HD
ENDBRANCH   7   8
ENDBRANCH   6   7
ENDBRANCH   1   6
TORSDOF 6
ENDMDL
MODEL 7
REMARK VINA RESULT:      -4.5      2.823      4.135
REMARK  6 active torsions:
REMARK  status: ('A' for Active; 'I' for Inactive)
REMARK    1  A    between atoms: C_2  and  C_3 
REMARK    2  A    between atoms: C_3  and  C_4 
REMARK    3  A    between atoms: C_4  and  C_5 
REMARK    4  A    between atoms: C_5  and  C_6 
REMARK    5  A    between atoms: C_6  and  C_7 
REMARK    6  A    between atoms: C_7  and  N_8 
ROOT
HETATM    1  C   LIG     1      16.440  36.451  22.010  1.00  0.00     0.002 C 
ENDROOT
BRANCH   1   2
HETATM    2  C   LIG     1      17.599  37.185  21.323  1.00  0.00     0.000 C 
BRANCH   2   3
HETATM    3  C   LIG     1      17.627  38.668  21.722  1.00  0.00    -0.000 C 
BRANCH   3   4
HETATM    4  C   LIG     1      18.801  39.429  21.089  1.00  0.00    -0.005 C 
HETATM    5  C   LIG     1      19.259  38.815  19.766  1.00  0.00     0.005 C 
ENDBRANCH   3   4
ENDBRANCH   2   3
ENDBRANCH   1   2
BRANCH   1   6
HETATM    6  C   LIG     1      16.573  34.931  21.840  1.00  0.00     0.030 C 
BRANCH   6   7
HETATM    7  C   LIG     1      15.544  34.363  20.856  1.00  0.00     0.267 C 
BRANCH   7   8
HETATM    8  N   LIG     1      14.245  34.187  21.501  1.00  0.00     0.078 N 
HETATM    9  H   LIG     1      13.542  34.765  20.987  1.00  0.00     0.312 HD
HETATM   10  H   LIG     1      13.955  33.192  21.364  1.00  0.00     0.312 HD
ENDBRANCH   7   8
ENDBRANCH   6   7
ENDBRANCH   1   6
TORSDOF 6
ENDMDL
MODEL 8
REMARK VINA RESULT:      -4.3      2.931      4.630
REMARK  6 active torsions:
REMARK  status: ('A' for Active; 'I' for Inactive)
REMARK    1  A    between atoms: C_2  and  C_3 
REMARK    2  A    between atoms: C_3  and  C_4 
REMARK    3  A    between atoms: C_4  and  C_5 
REMARK    4  A    between atoms: C_5  and  C_6 
REMARK    5  A    between atoms: C_6  and  C_7 
REMARK    6  A    between atoms: C_7  and  N_8 
ROOT
HETATM    1  C   LIG     1      17.203  36.751  24.323  1.00  0.00     0.002 C 
ENDROOT
BRANCH   1   2
HETATM    2  C   LIG     1      16.758  37.017  22.879  1.00  0.00     0.000 C 
BRANCH   2   3
HETATM    3  C   LIG     1      16.762  38.522  22.570  1.00  0.00    -0.000 C 
BRANCH   3   4
HETATM    4  C   LIG     1      18.160  39.047  22.208  1.00  0.00    -0.005 C 
HETATM    5  C   LIG     1      18.580  38.678  20.786  1.00  0.00     0.005 C 
ENDBRANCH   3   4
ENDBRANCH   2   3
ENDBRANCH   1   2
BRANCH   1   6
HETATM    6  C   LIG     1      17.278  35.243  24.606  1.00  0.00     0.030 C 
BRANCH   6   7
HETATM    7  C   LIG     1      17.627  34.942  26.067  1.00  0.00     0.267 C 
BRANCH   7   8
HETATM    8  N   LIG     1      17.764  36.175  26.838  1.00  0.00     0.078 N 
HETATM    9  H   LIG     1      16.826  36.428  27.224  1.00  0.00     0.312 HD
HETATM   10  H   LIG     1      18.369  35.968  27.666  1.00  0.00     0.312 HD
ENDBRANCH   7   8
ENDBRANCH   6   7
ENDBRANCH   1   6
TORSDOF 6
ENDMDL
MODEL 9
REMARK VINA RESULT:      -4.3      7.133      9.056
REMARK  6 active torsions:
REMARK  status: ('A' for Active; 'I' for Inactive)
REMARK    1  A    between atoms: C_2  and  C_3 
REMARK    2  A    between atoms: C_3  and  C_4 
REMARK    3  A    between atoms: C_4  and  C_5 
REMARK    4  A    between atoms: C_5  and  C_6 
REMARK    5  A    between atoms: C_6  and  C_7 
REMARK    6  A    between atoms: C_7  and  N_8 
ROOT
HETATM    1  C   LIG     1      13.137  30.734  16.037  1.00  0.00     0.002 C 
ENDROOT
BRANCH   1   2
HETATM    2  C   LIG     1      13.333  31.874  17.045  1.00  0.00     0.000 C 
BRANCH   2   3
HETATM    3  C   LIG     1      14.823  32.204  17.220  1.00  0.00    -0.000 C 
BRANCH   3   4
HETATM    4  C   LIG     1      15.174  32.606  18.661  1.00  0.00    -0.005 C 
HETATM    5  C   LIG     1      14.836  31.515  19.677  1.00  0.00     0.005 C 
ENDBRANCH   3   4
ENDBRANCH   2   3
ENDBRANCH   1   2
BRANCH   1   6
HETATM    6  C   LIG     1      14.358  30.599  15.115  1.00  0.00     0.030 C 
BRANCH   6   7
HETATM    7  C   LIG     1      14.263  29.375  14.198  1.00  0.00     0.267 C 
BRANCH   7   8
HETATM    8  N   LIG     1      12.881  28.915  14.080  1.00  0.00     0.078 N 
HETATM    9  H   LIG     1      12.250  29.684  14.402  1.00  0.00     0.312 HD
HETATM   10  H   LIG     1      12.677  28.783  13.063  1.00  0.00     0.312 HD
ENDBRANCH   7   8
ENDBRANCH   6   7
ENDBRANCH   1   6
TORSDOF 6
ENDMDL
MODEL 10
REMARK VINA RESULT:      -4.2      7.768     10.109
REMARK  6 active torsions:
REMARK  status: ('A' for Active; 'I' for Inactive)
REMARK    1  A    between atoms: C_2  and  C_3 
REMARK    2  A    between atoms: C_3  and  C_4 
REMARK    3  A    between atoms: C_4  and  C_5 
REMARK    4  A    between atoms: C_5  and  C_6 
REMARK    5  A    between atoms: C_6  and  C_7 
REMARK    6  A    between atoms: C_7  and  N_8 
ROOT
HETATM    1  C   LIG     1      13.043  30.667  15.876  1.00  0.00     0.002 C 
ENDROOT
BRANCH   1   2
HETATM    2  C   LIG     1      14.504  30.388  15.498  1.00  0.00     0.000 C 
BRANCH   2   3
HETATM    3  C   LIG     1      14.643  30.134  13.989  1.00  0.00    -0.000 C 
BRANCH   3   4
HETATM    4  C   LIG     1      15.583  31.138  13.305  1.00  0.00    -0.005 C 
HETATM    5  C   LIG     1      16.127  32.191  14.270  1.00  0.00     0.005 C 
ENDBRANCH   3   4
ENDBRANCH   2   3
ENDBRANCH   1   2
BRANCH   1   6
HETATM    6  C   LIG     1      12.940  31.873  16.820  1.00  0.00     0.030 C 
BRANCH   6   7
HETATM    7  C   LIG     1      14.243  32.126  17.587  1.00  0.00     0.267 C 
BRANCH   7   8
HETATM    8  N   LIG     1      14.167  31.584  18.942  1.00  0.00     0.078 N 
HETATM    9  H   LIG     1      13.337  30.951  18.996  1.00  0.00     0.312 HD
HETATM   10  H   LIG     1      15.004  30.974  19.087  1.00  0.00     0.312 HD
ENDBRANCH   7   8
ENDBRANCH   6   7
ENDBRANCH   1   6
TORSDOF 6
ENDMDL
MODEL 11
REMARK VINA RESULT:      -4.2      6.639      9.870
REMARK  6 active torsions:
REMARK  status: ('A' for Active; 'I' for Inactive)
REMARK    1  A    between atoms: C_2  and  C_3 
REMARK    2  A    between atoms: C_3  and  C_4 
REMARK    3  A    between atoms: C_4  and  C_5 
REMARK    4  A    between atoms: C_5  and  C_6 
REMARK    5  A    between atoms: C_6  and  C_7 
REMARK    6  A    between atoms: C_7  and  N_8 
ROOT
HETATM    1  C   LIG     1      13.082  32.048  16.896  1.00  0.00     0.002 C 
ENDROOT
BRANCH   1   2
HETATM    2  C   LIG     1      13.079  30.686  16.191  1.00  0.00     0.000 C 
BRANCH   2   3
HETATM    3  C   LIG     1      14.255  30.571  15.209  1.00  0.00    -0.000 C 
BRANCH   3   4
HETATM    4  C   LIG     1      14.044  29.468  14.161  1.00  0.00    -0.005 C 
HETATM    5  C   LIG     1      15.321  28.680  13.868  1.00  0.00     0.005 C 
ENDBRANCH   3   4
ENDBRANCH   2   3
ENDBRANCH   1   2
BRANCH   1   6
HETATM    6  C   LIG     1      14.516  32.560  17.097  1.00  0.00     0.030 C 
BRANCH   6   7
HETATM    7  C   LIG     1      15.003  32.377  18.538  1.00  0.00     0.267 C 
BRANCH   7   8
HETATM    8  N   LIG     1      15.387  33.658  19.128  1.00  0.00     0.078 N 
HETATM    9  H   LIG     1      15.523  33.519  20.155  1.00  0.00     0.312 HD
HETATM   10  H   LIG     1      16.326  33.915  18.746  1.00  0.00     0.312 HD
ENDBRANCH   7   8
ENDBRANCH   6   7
ENDBRANCH   1   6
TORSDOF 6
ENDMDL
MODEL 12
REMARK VINA RESULT:      -4.1      2.974      4.551
REMARK  6 active torsions:
REMARK  status: ('A' for Active; 'I' for Inactive)
REMARK    1  A    between atoms: C_2  and  C_3 
REMARK    2  A    between atoms: C_3  and  C_4 
REMARK    3  A    between atoms: C_4  and  C_5 
REMARK    4  A    between atoms: C_5  and  C_6 
REMARK    5  A    between atoms: C_6  and  C_7 
REMARK    6  A    between atoms: C_7  and  N_8 
ROOT
HETATM    1  C   LIG     1      17.365  35.783  20.964  1.00  0.00     0.002 C 
ENDROOT
BRANCH   1   2
HETATM    2  C   LIG     1      17.745  36.862  19.941  1.00  0.00     0.000 C 
BRANCH   2   3
HETATM    3  C   LIG     1      19.245  36.807  19.615  1.00  0.00    -0.000 C 
BRANCH   3   4
HETATM    4  C   LIG     1      19.917  38.186  19.687  1.00  0.00    -0.005 C 
HETATM    5  C   LIG     1      19.137  39.179  20.550  1.00  0.00     0.005 C 
ENDBRANCH   3   4
ENDBRANCH   2   3
ENDBRANCH   1   2
BRANCH   1   6
HETATM    6  C   LIG     1      16.743  36.410  22.220  1.00  0.00     0.030 C 
BRANCH   6   7
HETATM    7  C   LIG     1      15.260  36.749  22.029  1.00  0.00     0.267 C 
BRANCH   7   8
HETATM    8  N   LIG     1      14.569  35.685  21.304  1.00  0.00     0.078 N 
HETATM    9  H   LIG     1      13.975  36.124  20.563  1.00  0.00     0.312 HD
HETATM   10  H   LIG     1      15.292  35.124  20.798  1.00  0.00     0.312 HD
ENDBRANCH   7   8
ENDBRANCH   6   7
ENDBRANCH   1   6
TORSDOF 6
ENDMDL
MODEL 13
REMARK VINA RESULT:      -4.1      3.279      5.092
REMARK  6 active torsions:
REMARK  status: ('A' for Active; 'I' for Inactive)
REMARK    1  A    between atoms: C_2  and  C_3 
REMARK    2  A    between atoms: C_3  and  C_4 
REMARK    3  A    between atoms: C_4  and  C_5 
REMARK    4  A    between atoms: C_5  and  C_6 
REMARK    5  A    between atoms: C_6  and  C_7 
REMARK    6  A    between atoms: C_7  and  N_8 
ROOT
HETATM    1  C   LIG     1      15.527  32.417  19.750  1.00  0.00     0.002 C 
ENDROOT
BRANCH   1   2
HETATM    2  C   LIG     1      15.280  33.634  20.652  1.00  0.00     0.000 C 
BRANCH   2   3
HETATM    3  C   LIG     1      15.771  34.925  19.981  1.00  0.00    -0.000 C 
BRANCH   3   4
HETATM    4  C   LIG     1      16.854  35.643  20.801  1.00  0.00    -0.005 C 
HETATM    5  C   LIG     1      16.859  35.222  22.270  1.00  0.00     0.005 C 
ENDBRANCH   3   4
ENDBRANCH   2   3
ENDBRANCH   1   2
BRANCH   1   6
HETATM    6  C   LIG     1      15.070  32.699  18.311  1.00  0.00     0.030 C 
BRANCH   6   7
HETATM    7  C   LIG     1      14.161  31.594  17.762  1.00  0.00     0.267 C 
BRANCH   7   8
HETATM    8  N   LIG     1      12.926  32.154  17.217  1.00  0.00     0.078 N 
HETATM    9  H   LIG     1      12.593  32.905  17.864  1.00  0.00     0.312 HD
HETATM   10  H   LIG     1      13.164  32.633  16.319  1.00  0.00     0.312 HD
ENDBRANCH   7   8
ENDBRANCH   6   7
ENDBRANCH   1   6
TORSDOF 6
ENDMDL
MODEL 14
REMARK VINA RESULT:      -4.1      4.945      5.646
REMARK  6 active torsions:
REMARK  status: ('A' for Active; 'I' for Inactive)
REMARK    1  A    between atoms: C_2  and  C_3 
REMARK    2  A    between atoms: C_3  and  C_4 
REMARK    3  A    between atoms: C_4  and  C_5 
REMARK    4  A    between atoms: C_5  and  C_6 
REMARK    5  A    between atoms: C_6  and  C_7 
REMARK    6  A    between atoms: C_7  and  N_8 
ROOT
HETATM    1  C   LIG     1      19.896  38.938  19.529  1.00  0.00     0.002 C 
ENDROOT
BRANCH   1   2
HETATM    2  C   LIG     1      19.218  39.280  20.862  1.00  0.00     0.000 C 
BRANCH   2   3
HETATM    3  C   LIG     1      18.124  38.256  21.201  1.00  0.00    -0.000 C 
BRANCH   3   4
HETATM    4  C   LIG     1      17.153  38.763  22.278  1.00  0.00    -0.005 C 
HETATM    5  C   LIG     1      17.500  38.249  23.676  1.00  0.00     0.005 C 
ENDBRANCH   3   4
ENDBRANCH   2   3
ENDBRANCH   1   2
BRANCH   1   6
HETATM    6  C   LIG     1      18.856  38.750  18.415  1.00  0.00     0.030 C 
BRANCH   6   7
HETATM    7  C   LIG     1      19.171  39.596  17.176  1.00  0.00     0.267 C 
BRANCH   7   8
HETATM    8  N   LIG     1      18.160  39.402  16.139  1.00  0.00     0.078 N 
HETATM    9  H   LIG     1      18.082  38.378  15.943  1.00  0.00     0.312 HD
HETATM   10  H   LIG     1      17.237  39.689  16.538  1.00  0.00     0.312 HD
ENDBRANCH   7   8
ENDBRANCH   6   7
ENDBRANCH   1   6
TORSDOF 6
ENDMDL
MODEL 15
REMARK VINA RESULT:      -4.1      4.053      5.932
REMARK  6 active torsions:
REMARK  status: ('A' for Active; 'I' for Inactive)
REMARK    1  A    between atoms: C_2  and  C_3 
REMARK    2  A    between atoms: C_3  and  C_4 
REMARK    3  A    between atoms: C_4  and  C_5 
REMARK    4  A    between atoms: C_5  and  C_6 
REMARK    5  A    between atoms: C_6  and  C_7 
REMARK    6  A    between atoms: C_7  and  N_8 
ROOT
HETATM    1  C   LIG     1      17.749  36.601  20.783  1.00  0.00     0.002 C 
ENDROOT
BRANCH   1   2
HETATM    2  C   LIG     1      18.978  36.987  19.950  1.00  0.00     0.000 C 
BRANCH   2   3
HETATM    3  C   LIG     1      18.561  37.571  18.592  1.00  0.00    -0.000 C 
BRANCH   3   4
HETATM    4  C   LIG     1      19.002  39.032  18.416  1.00  0.00    -0.005 C 
HETATM    5  C   LIG     1      18.753  39.559  17.003  1.00  0.00     0.005 C 
ENDBRANCH   3   4
ENDBRANCH   2   3
ENDBRANCH   1   2
BRANCH   1   6
HETATM    6  C   LIG     1      17.395  37.710  21.785  1.00  0.00     0.030 C 
BRANCH   6   7
HETATM    7  C   LIG     1      16.521  37.197  22.936  1.00  0.00     0.267 C 
BRANCH   7   8
HETATM    8  N   LIG     1      15.331  38.029  23.101  1.00  0.00     0.078 N 
HETATM    9  H   LIG     1      15.625  39.032  23.077  1.00  0.00     0.312 HD
HETATM   10  H   LIG     1      14.725  37.887  22.261  1.00  0.00     0.312 HD
ENDBRANCH   7   8
ENDBRANCH   6   7
ENDBRANCH   1   6
TORSDOF 6
ENDMDL
MODEL 16
REMARK VINA RESULT:      -4.0      2.509      4.557
REMARK  6 active torsions:
REMARK  status: ('A' for Active; 'I' for Inactive)
REMARK    1  A    between atoms: C_2  and  C_3 
REMARK    2  A    between atoms: C_3  and  C_4 
REMARK    3  A    between atoms: C_4  and  C_5 
REMARK    4  A    between atoms: C_5  and  C_6 
REMARK    5  A    between atoms: C_6  and  C_7 
REMARK    6  A    between atoms: C_7  and  N_8 
ROOT
HETATM    1  C   LIG     1      16.493  37.298  23.357  1.00  0.00     0.002 C 
ENDROOT
BRANCH   1   2
HETATM    2  C   LIG     1      17.005  37.211  21.913  1.00  0.00     0.000 C 
BRANCH   2   3
HETATM    3  C   LIG     1      17.226  35.750  21.494  1.00  0.00    -0.000 C 
BRANCH   3   4
HETATM    4  C   LIG     1      15.990  34.872  21.741  1.00  0.00    -0.005 C 
HETATM    5  C   LIG     1      15.645  33.987  20.543  1.00  0.00     0.005 C 
ENDBRANCH   3   4
ENDBRANCH   2   3
ENDBRANCH   1   2
BRANCH   1   6
HETATM    6  C   LIG     1      17.507  36.688  24.336  1.00  0.00     0.030 C 
BRANCH   6   7
HETATM    7  C   LIG     1      17.472  37.369  25.709  1.00  0.00     0.267 C 
BRANCH   7   8
HETATM    8  N   LIG     1      17.279  38.811  25.574  1.00  0.00     0.078 N 
HETATM    9  H   LIG     1      16.298  38.984  25.256  1.00  0.00     0.312 HD
HETATM   10  H   LIG     1      17.351  39.233  26.528  1.00  0.00     0.312 HD
ENDBRANCH   7   8
ENDBRANCH   6   7
ENDBRANCH   1   6
TORSDOF 6
ENDMDL
MODEL 17
REMARK VINA RESULT:      -4.0      3.322      4.898
REMARK  6 active torsions:
REMARK  status: ('A' for Active; 'I' for Inactive)
REMARK    1  A    between atoms: C_2  and  C_3 
REMARK    2  A    between atoms: C_3  and  C_4 
REMARK    3  A    between atoms: C_4  and  C_5 
REMARK    4  A    between atoms: C_5  and  C_6 
REMARK    5  A    between atoms: C_6  and  C_7 
REMARK    6  A    between atoms: C_7  and  N_8 
ROOT
HETATM    1  C   LIG     1      17.487  36.847  21.079  1.00  0.00     0.002 C 
ENDROOT
BRANCH   1   2
HETATM    2  C   LIG     1      17.235  35.796  22.168  1.00  0.00     0.000 C 
BRANCH   2   3
HETATM    3  C   LIG     1      15.978  34.970  21.855  1.00  0.00    -0.000 C 
BRANCH   3   4
HETATM    4  C   LIG     1      15.821  34.678  20.355  1.00  0.00    -0.005 C 
HETATM    5  C   LIG     1      15.529  33.205  20.067  1.00  0.00     0.005 C 
ENDBRANCH   3   4
ENDBRANCH   2   3
ENDBRANCH   1   2
BRANCH   1   6
HETATM    6  C   LIG     1      17.596  38.253  21.687  1.00  0.00     0.030 C 
BRANCH   6   7
HETATM    7  C   LIG     1      18.919  38.941  21.332  1.00  0.00     0.267 C 
BRANCH   7   8
HETATM    8  N   LIG     1      18.857  39.535  19.998  1.00  0.00     0.078 N 
HETATM    9  H   LIG     1      18.012  40.148  19.950  1.00  0.00     0.312 HD
HETATM   10  H   LIG     1      19.680  40.172  19.896  1.00  0.00     0.312 HD
ENDBRANCH   7   8
ENDBRANCH   6   7
ENDBRANCH   1   6
TORSDOF 6
ENDMDL
MODEL 18
REMARK VINA RESULT:      -3.9      9.688     10.408
REMARK  6 active torsions:
REMARK  status: ('A' for Active; 'I' for Inactive)
REMARK    1  A    between atoms: C_2  and  C_3 
REMARK    2  A    between atoms: C_3  and  C_4 
REMARK    3  A    between atoms: C_4  and  C_5 
REMARK    4  A    between atoms: C_5  and  C_6 
REMARK    5  A    between atoms: C_6  and  C_7 
REMARK    6  A    between atoms: C_7  and  N_8 
ROOT
HETATM    1  C   LIG     1      14.385  30.077  14.427  1.00  0.00     0.002 C 
ENDROOT
BRANCH   1   2
HETATM    2  C   LIG     1      15.417  30.781  13.536  1.00  0.00     0.000 C 
BRANCH   2   3
HETATM    3  C   LIG     1      16.014  32.005  14.247  1.00  0.00    -0.000 C 
BRANCH   3   4
HETATM    4  C   LIG     1      16.933  32.830  13.333  1.00  0.00    -0.005 C 
HETATM    5  C   LIG     1      17.889  33.731  14.114  1.00  0.00     0.005 C 
ENDBRANCH   3   4
ENDBRANCH   2   3
ENDBRANCH   1   2
BRANCH   1   6
HETATM    6  C   LIG     1      14.226  30.809  15.768  1.00  0.00     0.030 C 
BRANCH   6   7
HETATM    7  C   LIG     1      12.767  30.858  16.235  1.00  0.00     0.267 C 
BRANCH   7   8
HETATM    8  N   LIG     1      12.546  31.980  17.144  1.00  0.00     0.078 N 
HETATM    9  H   LIG     1      13.356  32.034  17.804  1.00  0.00     0.312 HD
HETATM   10  H   LIG     1      12.578  32.859  16.579  1.00  0.00     0.312 HD
ENDBRANCH   7   8
ENDBRANCH   6   7
ENDBRANCH   1   6
TORSDOF 6
ENDMDL
MODEL 19
REMARK VINA RESULT:      -3.9      4.148      5.784
REMARK  6 active torsions:
REMARK  status: ('A' for Active; 'I' for Inactive)
REMARK    1  A    between atoms: C_2  and  C_3 
REMARK    2  A    between atoms: C_3  and  C_4 
REMARK    3  A    between atoms: C_4  and  C_5 
REMARK    4  A    between atoms: C_5  and  C_6 
REMARK    5  A    between atoms: C_6  and  C_7 
REMARK    6  A    between atoms: C_7  and  N_8 
ROOT
HETATM    1  C   LIG     1      14.524  31.863  18.439  1.00  0.00     0.002 C 
ENDROOT
BRANCH   1   2
HETATM    2  C   LIG     1      15.590  32.187  19.494  1.00  0.00     0.000 C 
BRANCH   2   3
HETATM    3  C   LIG     1      15.050  33.178  20.536  1.00  0.00    -0.000 C 
BRANCH   3   4
HETATM    4  C   LIG     1      15.940  34.422  20.684  1.00  0.00    -0.005 C 
HETATM    5  C   LIG     1      15.175  35.637  21.210  1.00  0.00     0.005 C 
ENDBRANCH   3   4
ENDBRANCH   2   3
ENDBRANCH   1   2
BRANCH   1   6
HETATM    6  C   LIG     1      14.943  32.382  17.056  1.00  0.00     0.030 C 
BRANCH   6   7
HETATM    7  C   LIG     1      14.752  33.896  16.920  1.00  0.00     0.267 C 
BRANCH   7   8
HETATM    8  N   LIG     1      16.034  34.571  16.728  1.00  0.00     0.078 N 
HETATM    9  H   LIG     1      15.862  35.602  16.700  1.00  0.00     0.312 HD
HETATM   10  H   LIG     1      16.614  34.399  17.581  1.00  0.00     0.312 HD
ENDBRANCH   7   8
ENDBRANCH   6   7
ENDBRANCH   1   6
TORSDOF 6
ENDMDL
MODEL 20
REMARK VINA RESULT:      -3.9      9.361     10.440
REMARK  6 active torsions:
REMARK  status: ('A' for Active; 'I' for Inactive)
REMARK    1  A    between atoms: C_2  and  C_3 
REMARK    2  A    between atoms: C_3  and  C_4 
REMARK    3  A    between atoms: C_4  and  C_5 
REMARK    4  A    between atoms: C_5  and  C_6 
REMARK    5  A    between atoms: C_6  and  C_7 
REMARK    6  A    between atoms: C_7  and  N_8 
ROOT
HETATM    1  C   LIG     1      15.480  30.979  13.876  1.00  0.00     0.002 C 
ENDROOT
BRANCH   1   2
HETATM    2  C   LIG     1      14.748  29.807  14.542  1.00  0.00     0.000 C 
BRANCH   2   3
HETATM    3  C   LIG     1      13.319  30.207  14.942  1.00  0.00    -0.000 C 
BRANCH   3   4
HETATM    4  C   LIG     1      13.185  30.492  16.445  1.00  0.00    -0.005 C 
HETATM    5  C   LIG     1      12.897  31.963  16.744  1.00  0.00     0.005 C 
ENDBRANCH   3   4
ENDBRANCH   2   3
ENDBRANCH   1   2
BRANCH   1   6
HETATM    6  C   LIG     1      16.165  31.867  14.926  1.00  0.00     0.030 C 
BRANCH   6   7
HETATM    7  C   LIG     1      17.040  32.952  14.289  1.00  0.00     0.267 C 
BRANCH   7   8
HETATM    8  N   LIG     1      16.960  32.902  12.831  1.00  0.00     0.078 N 
HETATM    9  H   LIG     1      16.621  31.953  12.553  1.00  0.00     0.312 HD
HETATM   10  H   LIG     1      16.215  33.572  12.531  1.00  0.00     0.312 HD
ENDBRANCH   7   8
ENDBRANCH   6   7
ENDBRANCH   1   6
TORSDOF 6
ENDMDL
