REMARK  7 active torsions:
REMARK  status: ('A' for Active; 'I' for Inactive)
REMARK    1  A    between atoms: C_2  and  C_3 
REMARK    2  A    between atoms: C_3  and  C_4 
REMARK    3  A    between atoms: C_4  and  C_5 
REMARK    4  A    between atoms: C_5  and  C_6 
REMARK    5  A    between atoms: C_6  and  C_7 
REMARK    6  A    between atoms: C_7  and  C_8 
REMARK    7  A    between atoms: C_8  and  O_9 
ROOT
HETATM    1  C   LIG     1      -0.915  -0.167   1.433  1.00  0.00     0.010 C 
ENDROOT
BRANCH   1   2
HETATM    2  C   LIG     1      -0.150  -1.062   0.436  1.00  0.00     0.000 C 
BRANCH   2   3
HETATM    3  C   LIG     1       0.962  -0.354  -0.360  1.00  0.00     0.000 C 
BRANCH   3   4
HETATM    4  C   LIG     1       2.083   0.195   0.539  1.00  0.00    -0.000 C 
BRANCH   4   5
HETATM    5  C   LIG     1       3.227   0.828  -0.269  1.00  0.00    -0.005 C 
HETATM    6  C   LIG     1       4.108  -0.210  -0.964  1.00  0.00     0.005 C 
ENDBRANCH   4   5
ENDBRANCH   3   4
ENDBRANCH   2   3
ENDBRANCH   1   2
BRANCH   1   7
HETATM    7  C   LIG     1      -1.593   1.058   0.799  1.00  0.00     0.111 C 
BRANCH   7   8
HETATM    8  C   LIG     1      -2.580   0.669  -0.258  1.00  0.00     0.258 C 
HETATM    9  O   LIG     1      -2.413   1.060  -1.446  1.00  0.00    -0.265 OA
BRANCH   8  10
HETATM   10  O   LIG     1      -3.680  -0.122   0.084  1.00  0.00    -0.326 OA
HETATM   11  C   LIG     1      -4.646  -0.545  -0.872  1.00  0.00     0.213 C 
ENDBRANCH   8  10
ENDBRANCH   7   8
ENDBRANCH   1   7
TORSDOF 7
