MODEL 1
REMARK VINA RESULT:      -5.4      0.000      0.000
REMARK  7 active torsions:
REMARK  status: ('A' for Active; 'I' for Inactive)
REMARK    1  A    between atoms: C_2  and  C_3 
REMARK    2  A    between atoms: C_3  and  C_4 
REMARK    3  A    between atoms: C_4  and  C_5 
REMARK    4  A    between atoms: C_5  and  C_6 
REMARK    5  A    between atoms: C_6  and  C_7 
REMARK    6  A    between atoms: C_7  and  C_8 
REMARK    7  A    between atoms: C_8  and  O_9 
ROOT
HETATM    1  C   LIG     1      17.284  38.672  23.043  1.00  0.00     0.000 C 
ENDROOT
BRANCH   1   2
HETATM    2  C   LIG     1      18.185  38.181  24.193  1.00  0.00     0.000 C 
BRANCH   2   3
HETATM    3  C   LIG     1      17.439  37.551  25.387  1.00  0.00    -0.000 C 
BRANCH   3   4
HETATM    4  C   LIG     1      18.316  36.696  26.318  1.00  0.00    -0.005 C 
HETATM    5  C   LIG     1      18.052  35.198  26.173  1.00  0.00     0.005 C 
ENDBRANCH   3   4
ENDBRANCH   2   3
ENDBRANCH   1   2
BRANCH   1   6
HETATM    6  C   LIG     1      17.765  38.292  21.630  1.00  0.00     0.002 C 
BRANCH   6   7
HETATM    7  C   LIG     1      18.991  39.102  21.181  1.00  0.00     0.026 C 
BRANCH   7   8
HETATM    8  C   LIG     1      19.182  39.044  19.661  1.00  0.00     0.164 C 
BRANCH   8   9
HETATM    9  O   LIG     1      20.455  39.507  19.298  1.00  0.00    -0.401 OA
HETATM   10  H   LIG     1      20.940  38.731  18.913  1.00  0.00     0.209 HD
ENDBRANCH   8   9
ENDBRANCH   7   8
ENDBRANCH   6   7
ENDBRANCH   1   6
TORSDOF 7
ENDMDL
MODEL 2
REMARK VINA RESULT:      -5.4      3.222      3.701
REMARK  7 active torsions:
REMARK  status: ('A' for Active; 'I' for Inactive)
REMARK    1  A    between atoms: C_2  and  C_3 
REMARK    2  A    between atoms: C_3  and  C_4 
REMARK    3  A    between atoms: C_4  and  C_5 
REMARK    4  A    between atoms: C_5  and  C_6 
REMARK    5  A    between atoms: C_6  and  C_7 
REMARK    6  A    between atoms: C_7  and  C_8 
REMARK    7  A    between atoms: C_8  and  O_9 
ROOT
HETATM    1  C   LIG     1      17.297  37.538  22.912  1.00  0.00     0.000 C 
ENDROOT
BRANCH   1   2
HETATM    2  C   LIG     1      16.978  36.944  24.298  1.00  0.00     0.000 C 
BRANCH   2   3
HETATM    3  C   LIG     1      17.842  37.482  25.457  1.00  0.00    -0.000 C 
BRANCH   3   4
HETATM    4  C   LIG     1      18.482  36.398  26.342  1.00  0.00    -0.005 C 
HETATM    5  C   LIG     1      17.900  35.008  26.094  1.00  0.00     0.005 C 
ENDBRANCH   3   4
ENDBRANCH   2   3
ENDBRANCH   1   2
BRANCH   1   6
HETATM    6  C   LIG     1      16.925  36.641  21.717  1.00  0.00     0.002 C 
BRANCH   6   7
HETATM    7  C   LIG     1      16.537  35.216  22.140  1.00  0.00     0.026 C 
BRANCH   7   8
HETATM    8  C   LIG     1      15.312  34.711  21.370  1.00  0.00     0.164 C 
BRANCH   8   9
HETATM    9  O   LIG     1      14.309  35.689  21.326  1.00  0.00    -0.401 OA
HETATM   10  H   LIG     1      13.912  35.649  20.417  1.00  0.00     0.209 HD
ENDBRANCH   8   9
ENDBRANCH   7   8
ENDBRANCH   6   7
ENDBRANCH   1   6
TORSDOF 7
ENDMDL
MODEL 3
REMARK VINA RESULT:      -5.2      3.217      5.730
REMARK  7 active torsions:
REMARK  status: ('A' for Active; 'I' for Inactive)
REMARK    1  A    between atoms: C_2  and  C_3 
REMARK    2  A    between atoms: C_3  and  C_4 
REMARK    3  A    between atoms: C_4  and  C_5 
REMARK    4  A    between atoms: C_5  and  C_6 
REMARK    5  A    between atoms: C_6  and  C_7 
REMARK    6  A    between atoms: C_7  and  C_8 
REMARK    7  A    between atoms: C_8  and  O_9 
ROOT
HETATM    1  C   LIG     1      17.970  38.112  24.340  1.00  0.00     0.000 C 
ENDROOT
BRANCH   1   2
HETATM    2  C   LIG     1      16.998  37.902  23.163  1.00  0.00     0.000 C 
BRANCH   2   3
HETATM    3  C   LIG     1      17.634  38.008  21.762  1.00  0.00    -0.000 C 
BRANCH   3   4
HETATM    4  C   LIG     1      18.436  39.297  21.512  1.00  0.00    -0.005 C 
HETATM    5  C   LIG     1      19.341  39.204  20.284  1.00  0.00     0.005 C 
ENDBRANCH   3   4
ENDBRANCH   2   3
ENDBRANCH   1   2
BRANCH   1   6
HETATM    6  C   LIG     1      17.449  37.634  25.708  1.00  0.00     0.002 C 
BRANCH   6   7
HETATM    7  C   LIG     1      18.202  36.403  26.235  1.00  0.00     0.026 C 
BRANCH   7   8
HETATM    8  C   LIG     1      17.659  35.104  25.629  1.00  0.00     0.164 C 
BRANCH   8   9
HETATM    9  O   LIG     1      16.739  34.494  26.493  1.00  0.00    -0.401 OA
HETATM   10  H   LIG     1      16.717  33.531  26.250  1.00  0.00     0.209 HD
ENDBRANCH   8   9
ENDBRANCH   7   8
ENDBRANCH   6   7
ENDBRANCH   1   6
TORSDOF 7
ENDMDL
MODEL 4
REMARK VINA RESULT:      -5.1      3.517      5.039
REMARK  7 active torsions:
REMARK  status: ('A' for Active; 'I' for Inactive)
REMARK    1  A    between atoms: C_2  and  C_3 
REMARK    2  A    between atoms: C_3  and  C_4 
REMARK    3  A    between atoms: C_4  and  C_5 
REMARK    4  A    between atoms: C_5  and  C_6 
REMARK    5  A    between atoms: C_6  and  C_7 
REMARK    6  A    between atoms: C_7  and  C_8 
REMARK    7  A    between atoms: C_8  and  O_9 
ROOT
HETATM    1  C   LIG     1      16.673  38.839  22.379  1.00  0.00     0.000 C 
ENDROOT
BRANCH   1   2
HETATM    2  C   LIG     1      18.168  38.673  22.042  1.00  0.00     0.000 C 
BRANCH   2   3
HETATM    3  C   LIG     1      18.634  39.386  20.757  1.00  0.00    -0.000 C 
BRANCH   3   4
HETATM    4  C   LIG     1      19.665  38.607  19.923  1.00  0.00    -0.005 C 
HETATM    5  C   LIG     1      19.151  37.241  19.468  1.00  0.00     0.005 C 
ENDBRANCH   3   4
ENDBRANCH   2   3
ENDBRANCH   1   2
BRANCH   1   6
HETATM    6  C   LIG     1      15.927  37.529  22.694  1.00  0.00     0.002 C 
BRANCH   6   7
HETATM    7  C   LIG     1      16.585  36.299  22.050  1.00  0.00     0.026 C 
BRANCH   7   8
HETATM    8  C   LIG     1      15.677  35.658  20.994  1.00  0.00     0.164 C 
BRANCH   8   9
HETATM    9  O   LIG     1      14.325  35.869  21.302  1.00  0.00    -0.401 OA
HETATM   10  H   LIG     1      14.103  36.786  20.994  1.00  0.00     0.209 HD
ENDBRANCH   8   9
ENDBRANCH   7   8
ENDBRANCH   6   7
ENDBRANCH   1   6
TORSDOF 7
ENDMDL
MODEL 5
REMARK VINA RESULT:      -5.0      2.133      2.893
REMARK  7 active torsions:
REMARK  status: ('A' for Active; 'I' for Inactive)
REMARK    1  A    between atoms: C_2  and  C_3 
REMARK    2  A    between atoms: C_3  and  C_4 
REMARK    3  A    between atoms: C_4  and  C_5 
REMARK    4  A    between atoms: C_5  and  C_6 
REMARK    5  A    between atoms: C_6  and  C_7 
REMARK    6  A    between atoms: C_7  and  C_8 
REMARK    7  A    between atoms: C_8  and  O_9 
ROOT
HETATM    1  C   LIG     1      17.796  38.814  22.685  1.00  0.00     0.000 C 
ENDROOT
BRANCH   1   2
HETATM    2  C   LIG     1      16.893  37.708  22.104  1.00  0.00     0.000 C 
BRANCH   2   3
HETATM    3  C   LIG     1      16.883  36.386  22.899  1.00  0.00    -0.000 C 
BRANCH   3   4
HETATM    4  C   LIG     1      16.890  35.113  22.035  1.00  0.00    -0.005 C 
HETATM    5  C   LIG     1      16.435  35.367  20.598  1.00  0.00     0.005 C 
ENDBRANCH   3   4
ENDBRANCH   2   3
ENDBRANCH   1   2
BRANCH   1   6
HETATM    6  C   LIG     1      18.993  39.209  21.800  1.00  0.00     0.002 C 
BRANCH   6   7
HETATM    7  C   LIG     1      18.702  39.053  20.300  1.00  0.00     0.026 C 
BRANCH   7   8
HETATM    8  C   LIG     1      19.917  38.506  19.541  1.00  0.00     0.164 C 
BRANCH   8   9
HETATM    9  O   LIG     1      20.681  39.550  19.000  1.00  0.00    -0.401 OA
HETATM   10  H   LIG     1      20.949  40.130  19.760  1.00  0.00     0.209 HD
ENDBRANCH   8   9
ENDBRANCH   7   8
ENDBRANCH   6   7
ENDBRANCH   1   6
TORSDOF 7
ENDMDL
MODEL 6
REMARK VINA RESULT:      -5.0      2.842      5.350
REMARK  7 active torsions:
REMARK  status: ('A' for Active; 'I' for Inactive)
REMARK    1  A    between atoms: C_2  and  C_3 
REMARK    2  A    between atoms: C_3  and  C_4 
REMARK    3  A    between atoms: C_4  and  C_5 
REMARK    4  A    between atoms: C_5  and  C_6 
REMARK    5  A    between atoms: C_6  and  C_7 
REMARK    6  A    between atoms: C_7  and  C_8 
REMARK    7  A    between atoms: C_8  and  O_9 
ROOT
HETATM    1  C   LIG     1      17.103  38.568  22.317  1.00  0.00     0.000 C 
ENDROOT
BRANCH   1   2
HETATM    2  C   LIG     1      18.541  38.978  21.942  1.00  0.00     0.000 C 
BRANCH   2   3
HETATM    3  C   LIG     1      18.751  39.352  20.461  1.00  0.00    -0.000 C 
BRANCH   3   4
HETATM    4  C   LIG     1      19.690  38.413  19.684  1.00  0.00    -0.005 C 
HETATM    5  C   LIG     1      19.125  37.001  19.531  1.00  0.00     0.005 C 
ENDBRANCH   3   4
ENDBRANCH   2   3
ENDBRANCH   1   2
BRANCH   1   6
HETATM    6  C   LIG     1      16.985  37.673  23.564  1.00  0.00     0.002 C 
BRANCH   6   7
HETATM    7  C   LIG     1      17.908  38.121  24.708  1.00  0.00     0.026 C 
BRANCH   7   8
HETATM    8  C   LIG     1      18.184  36.979  25.693  1.00  0.00     0.164 C 
BRANCH   8   9
HETATM    9  O   LIG     1      17.144  36.040  25.676  1.00  0.00    -0.401 OA
HETATM   10  H   LIG     1      16.791  36.024  24.749  1.00  0.00     0.209 HD
ENDBRANCH   8   9
ENDBRANCH   7   8
ENDBRANCH   6   7
ENDBRANCH   1   6
TORSDOF 7
ENDMDL
MODEL 7
REMARK VINA RESULT:      -5.0      4.700      5.121
REMARK  7 active torsions:
REMARK  status: ('A' for Active; 'I' for Inactive)
REMARK    1  A    between atoms: C_2  and  C_3 
REMARK    2  A    between atoms: C_3  and  C_4 
REMARK    3  A    between atoms: C_4  and  C_5 
REMARK    4  A    between atoms: C_5  and  C_6 
REMARK    5  A    between atoms: C_6  and  C_7 
REMARK    6  A    between atoms: C_7  and  C_8 
REMARK    7  A    between atoms: C_8  and  O_9 
ROOT
HETATM    1  C   LIG     1      17.003  35.016  22.250  1.00  0.00     0.000 C 
ENDROOT
BRANCH   1   2
HETATM    2  C   LIG     1      16.951  36.382  22.964  1.00  0.00     0.000 C 
BRANCH   2   3
HETATM    3  C   LIG     1      17.094  36.325  24.498  1.00  0.00    -0.000 C 
BRANCH   3   4
HETATM    4  C   LIG     1      17.361  34.922  25.071  1.00  0.00    -0.005 C 
HETATM    5  C   LIG     1      18.241  34.948  26.320  1.00  0.00     0.005 C 
ENDBRANCH   3   4
ENDBRANCH   2   3
ENDBRANCH   1   2
BRANCH   1   6
HETATM    6  C   LIG     1      16.161  34.921  20.964  1.00  0.00     0.002 C 
BRANCH   6   7
HETATM    7  C   LIG     1      15.134  33.779  21.008  1.00  0.00     0.026 C 
BRANCH   7   8
HETATM    8  C   LIG     1      15.289  32.832  19.812  1.00  0.00     0.164 C 
BRANCH   8   9
HETATM    9  O   LIG     1      14.182  31.978  19.703  1.00  0.00    -0.401 OA
HETATM   10  H   LIG     1      14.291  31.281  20.402  1.00  0.00     0.209 HD
ENDBRANCH   8   9
ENDBRANCH   7   8
ENDBRANCH   6   7
ENDBRANCH   1   6
TORSDOF 7
ENDMDL
MODEL 8
REMARK VINA RESULT:      -4.8      1.504      2.446
REMARK  7 active torsions:
REMARK  status: ('A' for Active; 'I' for Inactive)
REMARK    1  A    between atoms: C_2  and  C_3 
REMARK    2  A    between atoms: C_3  and  C_4 
REMARK    3  A    between atoms: C_4  and  C_5 
REMARK    4  A    between atoms: C_5  and  C_6 
REMARK    5  A    between atoms: C_6  and  C_7 
REMARK    6  A    between atoms: C_7  and  C_8 
REMARK    7  A    between atoms: C_8  and  O_9 
ROOT
HETATM    1  C   LIG     1      17.899  38.757  21.357  1.00  0.00     0.000 C 
ENDROOT
BRANCH   1   2
HETATM    2  C   LIG     1      17.607  37.243  21.346  1.00  0.00     0.000 C 
BRANCH   2   3
HETATM    3  C   LIG     1      16.909  36.701  22.610  1.00  0.00    -0.000 C 
BRANCH   3   4
HETATM    4  C   LIG     1      16.504  37.775  23.635  1.00  0.00    -0.005 C 
HETATM    5  C   LIG     1      17.316  37.698  24.928  1.00  0.00     0.005 C 
ENDBRANCH   3   4
ENDBRANCH   2   3
ENDBRANCH   1   2
BRANCH   1   6
HETATM    6  C   LIG     1      19.285  39.157  20.818  1.00  0.00     0.002 C 
BRANCH   6   7
HETATM    7  C   LIG     1      19.668  38.399  19.538  1.00  0.00     0.026 C 
BRANCH   7   8
HETATM    8  C   LIG     1      19.008  39.013  18.298  1.00  0.00     0.164 C 
BRANCH   8   9
HETATM    9  O   LIG     1      19.928  39.780  17.568  1.00  0.00    -0.401 OA
HETATM   10  H   LIG     1      20.538  40.198  18.231  1.00  0.00     0.209 HD
ENDBRANCH   8   9
ENDBRANCH   7   8
ENDBRANCH   6   7
ENDBRANCH   1   6
TORSDOF 7
ENDMDL
MODEL 9
REMARK VINA RESULT:      -4.6      3.143      4.413
REMARK  7 active torsions:
REMARK  status: ('A' for Active; 'I' for Inactive)
REMARK    1  A    between atoms: C_2  and  C_3 
REMARK    2  A    between atoms: C_3  and  C_4 
REMARK    3  A    between atoms: C_4  and  C_5 
REMARK    4  A    between atoms: C_5  and  C_6 
REMARK    5  A    between atoms: C_6  and  C_7 
REMARK    6  A    between atoms: C_7  and  C_8 
REMARK    7  A    between atoms: C_8  and  O_9 
ROOT
HETATM    1  C   LIG     1      18.053  38.297  20.846  1.00  0.00     0.000 C 
ENDROOT
BRANCH   1   2
HETATM    2  C   LIG     1      18.106  36.759  20.933  1.00  0.00     0.000 C 
BRANCH   2   3
HETATM    3  C   LIG     1      16.838  36.031  20.443  1.00  0.00    -0.000 C 
BRANCH   3   4
HETATM    4  C   LIG     1      16.274  34.986  21.422  1.00  0.00    -0.005 C 
HETATM    5  C   LIG     1      17.017  34.961  22.757  1.00  0.00     0.005 C 
ENDBRANCH   3   4
ENDBRANCH   2   3
ENDBRANCH   1   2
BRANCH   1   6
HETATM    6  C   LIG     1      18.155  39.030  22.196  1.00  0.00     0.002 C 
BRANCH   6   7
HETATM    7  C   LIG     1      17.095  38.567  23.207  1.00  0.00     0.026 C 
BRANCH   7   8
HETATM    8  C   LIG     1      17.731  38.099  24.520  1.00  0.00     0.164 C 
BRANCH   8   9
HETATM    9  O   LIG     1      17.254  38.850  25.604  1.00  0.00    -0.401 OA
HETATM   10  H   LIG     1      17.121  38.213  26.354  1.00  0.00     0.209 HD
ENDBRANCH   8   9
ENDBRANCH   7   8
ENDBRANCH   6   7
ENDBRANCH   1   6
TORSDOF 7
ENDMDL
MODEL 10
REMARK VINA RESULT:      -4.6      4.344      5.298
REMARK  7 active torsions:
REMARK  status: ('A' for Active; 'I' for Inactive)
REMARK    1  A    between atoms: C_2  and  C_3 
REMARK    2  A    between atoms: C_3  and  C_4 
REMARK    3  A    between atoms: C_4  and  C_5 
REMARK    4  A    between atoms: C_5  and  C_6 
REMARK    5  A    between atoms: C_6  and  C_7 
REMARK    6  A    between atoms: C_7  and  C_8 
REMARK    7  A    between atoms: C_8  and  O_9 
ROOT
HETATM    1  C   LIG     1      16.928  35.969  21.815  1.00  0.00     0.000 C 
ENDROOT
BRANCH   1   2
HETATM    2  C   LIG     1      15.472  35.726  21.374  1.00  0.00     0.000 C 
BRANCH   2   3
HETATM    3  C   LIG     1      15.062  34.244  21.253  1.00  0.00    -0.000 C 
BRANCH   3   4
HETATM    4  C   LIG     1      15.556  33.539  19.977  1.00  0.00    -0.005 C 
HETATM    5  C   LIG     1      15.184  32.058  19.936  1.00  0.00     0.005 C 
ENDBRANCH   3   4
ENDBRANCH   2   3
ENDBRANCH   1   2
BRANCH   1   6
HETATM    6  C   LIG     1      17.527  37.316  21.370  1.00  0.00     0.002 C 
BRANCH   6   7
HETATM    7  C   LIG     1      17.170  38.469  22.321  1.00  0.00     0.026 C 
BRANCH   7   8
HETATM    8  C   LIG     1      17.462  38.110  23.782  1.00  0.00     0.164 C 
BRANCH   8   9
HETATM    9  O   LIG     1      16.275  38.032  24.525  1.00  0.00    -0.401 OA
HETATM   10  H   LIG     1      15.822  37.192  24.250  1.00  0.00     0.209 HD
ENDBRANCH   8   9
ENDBRANCH   7   8
ENDBRANCH   6   7
ENDBRANCH   1   6
TORSDOF 7
ENDMDL
MODEL 11
REMARK VINA RESULT:      -4.6      4.505      5.751
REMARK  7 active torsions:
REMARK  status: ('A' for Active; 'I' for Inactive)
REMARK    1  A    between atoms: C_2  and  C_3 
REMARK    2  A    between atoms: C_3  and  C_4 
REMARK    3  A    between atoms: C_4  and  C_5 
REMARK    4  A    between atoms: C_5  and  C_6 
REMARK    5  A    between atoms: C_6  and  C_7 
REMARK    6  A    between atoms: C_7  and  C_8 
REMARK    7  A    between atoms: C_8  and  O_9 
ROOT
HETATM    1  C   LIG     1      16.943  35.172  22.272  1.00  0.00     0.000 C 
ENDROOT
BRANCH   1   2
HETATM    2  C   LIG     1      16.999  36.647  22.715  1.00  0.00     0.000 C 
BRANCH   2   3
HETATM    3  C   LIG     1      17.287  37.660  21.589  1.00  0.00    -0.000 C 
BRANCH   3   4
HETATM    4  C   LIG     1      18.270  38.782  21.964  1.00  0.00    -0.005 C 
HETATM    5  C   LIG     1      18.917  39.438  20.745  1.00  0.00     0.005 C 
ENDBRANCH   3   4
ENDBRANCH   2   3
ENDBRANCH   1   2
BRANCH   1   6
HETATM    6  C   LIG     1      15.591  34.715  21.696  1.00  0.00     0.002 C 
BRANCH   6   7
HETATM    7  C   LIG     1      15.663  34.385  20.197  1.00  0.00     0.026 C 
BRANCH   7   8
HETATM    8  C   LIG     1      15.543  32.879  19.942  1.00  0.00     0.164 C 
BRANCH   8   9
HETATM    9  O   LIG     1      14.316  32.387  20.410  1.00  0.00    -0.401 OA
HETATM   10  H   LIG     1      14.115  32.877  21.250  1.00  0.00     0.209 HD
ENDBRANCH   8   9
ENDBRANCH   7   8
ENDBRANCH   6   7
ENDBRANCH   1   6
TORSDOF 7
ENDMDL
MODEL 12
REMARK VINA RESULT:      -4.5      9.647     10.962
REMARK  7 active torsions:
REMARK  status: ('A' for Active; 'I' for Inactive)
REMARK    1  A    between atoms: C_2  and  C_3 
REMARK    2  A    between atoms: C_3  and  C_4 
REMARK    3  A    between atoms: C_4  and  C_5 
REMARK    4  A    between atoms: C_5  and  C_6 
REMARK    5  A    between atoms: C_6  and  C_7 
REMARK    6  A    between atoms: C_7  and  C_8 
REMARK    7  A    between atoms: C_8  and  O_9 
ROOT
HETATM    1  C   LIG     1      15.375  30.712  13.490  1.00  0.00     0.000 C 
ENDROOT
BRANCH   1   2
HETATM    2  C   LIG     1      14.923  30.273  14.897  1.00  0.00     0.000 C 
BRANCH   2   3
HETATM    3  C   LIG     1      13.397  30.205  15.104  1.00  0.00    -0.000 C 
BRANCH   3   4
HETATM    4  C   LIG     1      12.872  31.001  16.312  1.00  0.00    -0.005 C 
HETATM    5  C   LIG     1      13.993  31.572  17.179  1.00  0.00     0.005 C 
ENDBRANCH   3   4
ENDBRANCH   2   3
ENDBRANCH   1   2
BRANCH   1   6
HETATM    6  C   LIG     1      16.015  32.111  13.418  1.00  0.00     0.002 C 
BRANCH   6   7
HETATM    7  C   LIG     1      16.653  32.543  14.748  1.00  0.00     0.026 C 
BRANCH   7   8
HETATM    8  C   LIG     1      17.851  33.473  14.525  1.00  0.00     0.164 C 
BRANCH   8   9
HETATM    9  O   LIG     1      17.427  34.776  14.231  1.00  0.00    -0.401 OA
HETATM   10  H   LIG     1      16.648  34.961  14.819  1.00  0.00     0.209 HD
ENDBRANCH   8   9
ENDBRANCH   7   8
ENDBRANCH   6   7
ENDBRANCH   1   6
TORSDOF 7
ENDMDL
MODEL 13
REMARK VINA RESULT:      -4.4      9.742     11.122
REMARK  7 active torsions:
REMARK  status: ('A' for Active; 'I' for Inactive)
REMARK    1  A    between atoms: C_2  and  C_3 
REMARK    2  A    between atoms: C_3  and  C_4 
REMARK    3  A    between atoms: C_4  and  C_5 
REMARK    4  A    between atoms: C_5  and  C_6 
REMARK    5  A    between atoms: C_6  and  C_7 
REMARK    6  A    between atoms: C_7  and  C_8 
REMARK    7  A    between atoms: C_8  and  O_9 
ROOT
HETATM    1  C   LIG     1      14.594  31.653  16.127  1.00  0.00     0.000 C 
ENDROOT
BRANCH   1   2
HETATM    2  C   LIG     1      13.335  30.793  15.900  1.00  0.00     0.000 C 
BRANCH   2   3
HETATM    3  C   LIG     1      13.431  29.785  14.737  1.00  0.00    -0.000 C 
BRANCH   3   4
HETATM    4  C   LIG     1      14.805  29.723  14.047  1.00  0.00    -0.005 C 
HETATM    5  C   LIG     1      15.255  28.293  13.747  1.00  0.00     0.005 C 
ENDBRANCH   3   4
ENDBRANCH   2   3
ENDBRANCH   1   2
BRANCH   1   6
HETATM    6  C   LIG     1      14.538  32.579  17.356  1.00  0.00     0.002 C 
BRANCH   6   7
HETATM    7  C   LIG     1      14.632  31.812  18.684  1.00  0.00     0.026 C 
BRANCH   7   8
HETATM    8  C   LIG     1      15.429  32.594  19.734  1.00  0.00     0.164 C 
BRANCH   8   9
HETATM    9  O   LIG     1      15.481  33.957  19.412  1.00  0.00    -0.401 OA
HETATM   10  H   LIG     1      14.918  34.080  18.604  1.00  0.00     0.209 HD
ENDBRANCH   8   9
ENDBRANCH   7   8
ENDBRANCH   6   7
ENDBRANCH   1   6
TORSDOF 7
ENDMDL
MODEL 14
REMARK VINA RESULT:      -4.4      3.039      4.140
REMARK  7 active torsions:
REMARK  status: ('A' for Active; 'I' for Inactive)
REMARK    1  A    between atoms: C_2  and  C_3 
REMARK    2  A    between atoms: C_3  and  C_4 
REMARK    3  A    between atoms: C_4  and  C_5 
REMARK    4  A    between atoms: C_5  and  C_6 
REMARK    5  A    between atoms: C_6  and  C_7 
REMARK    6  A    between atoms: C_7  and  C_8 
REMARK    7  A    between atoms: C_8  and  O_9 
ROOT
HETATM    1  C   LIG     1      19.646  39.324  19.808  1.00  0.00     0.000 C 
ENDROOT
BRANCH   1   2
HETATM    2  C   LIG     1      18.992  38.842  21.118  1.00  0.00     0.000 C 
BRANCH   2   3
HETATM    3  C   LIG     1      18.111  37.583  20.987  1.00  0.00    -0.000 C 
BRANCH   3   4
HETATM    4  C   LIG     1      16.970  37.483  22.014  1.00  0.00    -0.005 C 
HETATM    5  C   LIG     1      16.630  38.826  22.657  1.00  0.00     0.005 C 
ENDBRANCH   3   4
ENDBRANCH   2   3
ENDBRANCH   1   2
BRANCH   1   6
HETATM    6  C   LIG     1      19.024  38.752  18.521  1.00  0.00     0.002 C 
BRANCH   6   7
HETATM    7  C   LIG     1      18.307  39.820  17.680  1.00  0.00     0.026 C 
BRANCH   7   8
HETATM    8  C   LIG     1      18.811  39.834  16.232  1.00  0.00     0.164 C 
BRANCH   8   9
HETATM    9  O   LIG     1      17.948  39.114  15.394  1.00  0.00    -0.401 OA
HETATM   10  H   LIG     1      17.032  39.237  15.757  1.00  0.00     0.209 HD
ENDBRANCH   8   9
ENDBRANCH   7   8
ENDBRANCH   6   7
ENDBRANCH   1   6
TORSDOF 7
ENDMDL
MODEL 15
REMARK VINA RESULT:      -4.4      9.569     10.331
REMARK  7 active torsions:
REMARK  status: ('A' for Active; 'I' for Inactive)
REMARK    1  A    between atoms: C_2  and  C_3 
REMARK    2  A    between atoms: C_3  and  C_4 
REMARK    3  A    between atoms: C_4  and  C_5 
REMARK    4  A    between atoms: C_5  and  C_6 
REMARK    5  A    between atoms: C_6  and  C_7 
REMARK    6  A    between atoms: C_7  and  C_8 
REMARK    7  A    between atoms: C_8  and  O_9 
ROOT
HETATM    1  C   LIG     1      12.939  31.238  16.210  1.00  0.00     0.000 C 
ENDROOT
BRANCH   1   2
HETATM    2  C   LIG     1      13.968  31.128  17.352  1.00  0.00     0.000 C 
BRANCH   2   3
HETATM    3  C   LIG     1      14.731  32.428  17.676  1.00  0.00    -0.000 C 
BRANCH   3   4
HETATM    4  C   LIG     1      15.273  32.520  19.113  1.00  0.00    -0.005 C 
HETATM    5  C   LIG     1      14.853  31.336  19.982  1.00  0.00     0.005 C 
ENDBRANCH   3   4
ENDBRANCH   2   3
ENDBRANCH   1   2
BRANCH   1   6
HETATM    6  C   LIG     1      13.157  30.263  15.039  1.00  0.00     0.002 C 
BRANCH   6   7
HETATM    7  C   LIG     1      14.640  29.933  14.807  1.00  0.00     0.026 C 
BRANCH   7   8
HETATM    8  C   LIG     1      15.303  30.941  13.861  1.00  0.00     0.164 C 
BRANCH   8   9
HETATM    9  O   LIG     1      16.422  31.533  14.464  1.00  0.00    -0.401 OA
HETATM   10  H   LIG     1      17.086  31.685  13.742  1.00  0.00     0.209 HD
ENDBRANCH   8   9
ENDBRANCH   7   8
ENDBRANCH   6   7
ENDBRANCH   1   6
TORSDOF 7
ENDMDL
MODEL 16
REMARK VINA RESULT:      -4.3     10.247     11.085
REMARK  7 active torsions:
REMARK  status: ('A' for Active; 'I' for Inactive)
REMARK    1  A    between atoms: C_2  and  C_3 
REMARK    2  A    between atoms: C_3  and  C_4 
REMARK    3  A    between atoms: C_4  and  C_5 
REMARK    4  A    between atoms: C_5  and  C_6 
REMARK    5  A    between atoms: C_6  and  C_7 
REMARK    6  A    between atoms: C_7  and  C_8 
REMARK    7  A    between atoms: C_8  and  O_9 
ROOT
HETATM    1  C   LIG     1      14.739  31.399  15.691  1.00  0.00     0.000 C 
ENDROOT
BRANCH   1   2
HETATM    2  C   LIG     1      15.387  32.685  16.242  1.00  0.00     0.000 C 
BRANCH   2   3
HETATM    3  C   LIG     1      15.174  32.932  17.749  1.00  0.00    -0.000 C 
BRANCH   3   4
HETATM    4  C   LIG     1      14.473  31.787  18.499  1.00  0.00    -0.005 C 
HETATM    5  C   LIG     1      15.026  31.572  19.907  1.00  0.00     0.005 C 
ENDBRANCH   3   4
ENDBRANCH   2   3
ENDBRANCH   1   2
BRANCH   1   6
HETATM    6  C   LIG     1      15.459  30.773  14.483  1.00  0.00     0.002 C 
BRANCH   6   7
HETATM    7  C   LIG     1      14.760  29.507  13.963  1.00  0.00     0.026 C 
BRANCH   7   8
HETATM    8  C   LIG     1      13.297  29.443  14.415  1.00  0.00     0.164 C 
BRANCH   8   9
HETATM    9  O   LIG     1      12.637  28.355  13.825  1.00  0.00    -0.401 OA
HETATM   10  H   LIG     1      13.233  28.017  13.107  1.00  0.00     0.209 HD
ENDBRANCH   8   9
ENDBRANCH   7   8
ENDBRANCH   6   7
ENDBRANCH   1   6
TORSDOF 7
ENDMDL
MODEL 17
REMARK VINA RESULT:      -4.2      8.535      9.513
REMARK  7 active torsions:
REMARK  status: ('A' for Active; 'I' for Inactive)
REMARK    1  A    between atoms: C_2  and  C_3 
REMARK    2  A    between atoms: C_3  and  C_4 
REMARK    3  A    between atoms: C_4  and  C_5 
REMARK    4  A    between atoms: C_5  and  C_6 
REMARK    5  A    between atoms: C_6  and  C_7 
REMARK    6  A    between atoms: C_7  and  C_8 
REMARK    7  A    between atoms: C_8  and  O_9 
ROOT
HETATM    1  C   LIG     1      15.701  32.627  15.927  1.00  0.00     0.000 C 
ENDROOT
BRANCH   1   2
HETATM    2  C   LIG     1      14.481  31.710  16.139  1.00  0.00     0.000 C 
BRANCH   2   3
HETATM    3  C   LIG     1      13.965  31.632  17.590  1.00  0.00    -0.000 C 
BRANCH   3   4
HETATM    4  C   LIG     1      14.946  32.151  18.655  1.00  0.00    -0.005 C 
HETATM    5  C   LIG     1      14.848  31.389  19.976  1.00  0.00     0.005 C 
ENDBRANCH   3   4
ENDBRANCH   2   3
ENDBRANCH   1   2
BRANCH   1   6
HETATM    6  C   LIG     1      16.404  32.472  14.566  1.00  0.00     0.002 C 
BRANCH   6   7
HETATM    7  C   LIG     1      17.741  33.227  14.496  1.00  0.00     0.026 C 
BRANCH   7   8
HETATM    8  C   LIG     1      18.042  33.716  13.075  1.00  0.00     0.164 C 
BRANCH   8   9
HETATM    9  O   LIG     1      18.161  32.637  12.188  1.00  0.00    -0.401 OA
HETATM   10  H   LIG     1      17.281  32.541  11.738  1.00  0.00     0.209 HD
ENDBRANCH   8   9
ENDBRANCH   7   8
ENDBRANCH   6   7
ENDBRANCH   1   6
TORSDOF 7
ENDMDL
MODEL 18
REMARK VINA RESULT:      -4.2     10.223     10.938
REMARK  7 active torsions:
REMARK  status: ('A' for Active; 'I' for Inactive)
REMARK    1  A    between atoms: C_2  and  C_3 
REMARK    2  A    between atoms: C_3  and  C_4 
REMARK    3  A    between atoms: C_4  and  C_5 
REMARK    4  A    between atoms: C_5  and  C_6 
REMARK    5  A    between atoms: C_6  and  C_7 
REMARK    6  A    between atoms: C_7  and  C_8 
REMARK    7  A    between atoms: C_8  and  O_9 
ROOT
HETATM    1  C   LIG     1      16.299  32.481  15.107  1.00  0.00     0.000 C 
ENDROOT
BRANCH   1   2
HETATM    2  C   LIG     1      15.815  31.436  14.082  1.00  0.00     0.000 C 
BRANCH   2   3
HETATM    3  C   LIG     1      14.623  30.571  14.540  1.00  0.00    -0.000 C 
BRANCH   3   4
HETATM    4  C   LIG     1      14.167  30.815  15.989  1.00  0.00    -0.005 C 
HETATM    5  C   LIG     1      12.647  30.791  16.145  1.00  0.00     0.005 C 
ENDBRANCH   3   4
ENDBRANCH   2   3
ENDBRANCH   1   2
BRANCH   1   6
HETATM    6  C   LIG     1      17.733  32.994  14.886  1.00  0.00     0.002 C 
BRANCH   6   7
HETATM    7  C   LIG     1      17.825  34.042  13.766  1.00  0.00     0.026 C 
BRANCH   7   8
HETATM    8  C   LIG     1      18.872  33.656  12.715  1.00  0.00     0.164 C 
BRANCH   8   9
HETATM    9  O   LIG     1      18.431  32.573  11.941  1.00  0.00    -0.401 OA
HETATM   10  H   LIG     1      17.588  32.861  11.504  1.00  0.00     0.209 HD
ENDBRANCH   8   9
ENDBRANCH   7   8
ENDBRANCH   6   7
ENDBRANCH   1   6
TORSDOF 7
ENDMDL
MODEL 19
REMARK VINA RESULT:      -4.1     10.460     11.793
REMARK  7 active torsions:
REMARK  status: ('A' for Active; 'I' for Inactive)
REMARK    1  A    between atoms: C_2  and  C_3 
REMARK    2  A    between atoms: C_3  and  C_4 
REMARK    3  A    between atoms: C_4  and  C_5 
REMARK    4  A    between atoms: C_5  and  C_6 
REMARK    5  A    between atoms: C_6  and  C_7 
REMARK    6  A    between atoms: C_7  and  C_8 
REMARK    7  A    between atoms: C_8  and  O_9 
ROOT
HETATM    1  C   LIG     1      15.922  31.473  15.189  1.00  0.00     0.000 C 
ENDROOT
BRANCH   1   2
HETATM    2  C   LIG     1      14.453  31.009  15.253  1.00  0.00     0.000 C 
BRANCH   2   3
HETATM    3  C   LIG     1      14.129  29.742  14.437  1.00  0.00    -0.000 C 
BRANCH   3   4
HETATM    4  C   LIG     1      15.337  29.099  13.734  1.00  0.00    -0.005 C 
HETATM    5  C   LIG     1      15.205  27.583  13.592  1.00  0.00     0.005 C 
ENDBRANCH   3   4
ENDBRANCH   2   3
ENDBRANCH   1   2
BRANCH   1   6
HETATM    6  C   LIG     1      16.232  32.502  14.087  1.00  0.00     0.002 C 
BRANCH   6   7
HETATM    7  C   LIG     1      17.502  33.318  14.375  1.00  0.00     0.026 C 
BRANCH   7   8
HETATM    8  C   LIG     1      18.220  33.724  13.083  1.00  0.00     0.164 C 
BRANCH   8   9
HETATM    9  O   LIG     1      18.235  32.665  12.164  1.00  0.00    -0.401 OA
HETATM   10  H   LIG     1      17.438  32.107  12.361  1.00  0.00     0.209 HD
ENDBRANCH   8   9
ENDBRANCH   7   8
ENDBRANCH   6   7
ENDBRANCH   1   6
TORSDOF 7
ENDMDL
MODEL 20
REMARK VINA RESULT:      -4.0      9.804     11.541
REMARK  7 active torsions:
REMARK  status: ('A' for Active; 'I' for Inactive)
REMARK    1  A    between atoms: C_2  and  C_3 
REMARK    2  A    between atoms: C_3  and  C_4 
REMARK    3  A    between atoms: C_4  and  C_5 
REMARK    4  A    between atoms: C_5  and  C_6 
REMARK    5  A    between atoms: C_6  and  C_7 
REMARK    6  A    between atoms: C_7  and  C_8 
REMARK    7  A    between atoms: C_8  and  O_9 
ROOT
HETATM    1  C   LIG     1      15.583  32.084  15.281  1.00  0.00     0.000 C 
ENDROOT
BRANCH   1   2
HETATM    2  C   LIG     1      16.398  32.388  14.009  1.00  0.00     0.000 C 
BRANCH   2   3
HETATM    3  C   LIG     1      17.691  33.197  14.236  1.00  0.00    -0.000 C 
BRANCH   3   4
HETATM    4  C   LIG     1      18.123  34.072  13.046  1.00  0.00    -0.005 C 
HETATM    5  C   LIG     1      18.926  33.298  12.001  1.00  0.00     0.005 C 
ENDBRANCH   3   4
ENDBRANCH   2   3
ENDBRANCH   1   2
BRANCH   1   6
HETATM    6  C   LIG     1      14.600  30.905  15.160  1.00  0.00     0.002 C 
BRANCH   6   7
HETATM    7  C   LIG     1      13.578  30.860  16.307  1.00  0.00     0.026 C 
BRANCH   7   8
HETATM    8  C   LIG     1      13.843  31.958  17.343  1.00  0.00     0.164 C 
BRANCH   8   9
HETATM    9  O   LIG     1      13.915  31.420  18.636  1.00  0.00    -0.401 OA
HETATM   10  H   LIG     1      13.112  31.742  19.123  1.00  0.00     0.209 HD
ENDBRANCH   8   9
ENDBRANCH   7   8
ENDBRANCH   6   7
ENDBRANCH   1   6
TORSDOF 7
ENDMDL
