REMARK  5 active torsions:
REMARK  status: ('A' for Active; 'I' for Inactive)
REMARK    1  A    between atoms: C_2  and  C_3 
REMARK    2  A    between atoms: C_3  and  C_4 
REMARK    3  A    between atoms: C_4  and  C_5 
REMARK    4  A    between atoms: C_5  and  C_6 
REMARK    5  A    between atoms: C_6  and  O_7 
ROOT
HETATM    1  C   LIG     1       0.447   0.262   0.219  1.00  0.00     0.002 C 
ENDROOT
BRANCH   1   2
HETATM    2  C   LIG     1      -0.941  -0.178  -0.262  1.00  0.00    -0.000 C 
BRANCH   2   3
HETATM    3  C   LIG     1      -2.038   0.706   0.342  1.00  0.00    -0.005 C 
HETATM    4  C   LIG     1      -3.421   0.271  -0.136  1.00  0.00     0.005 C 
ENDBRANCH   2   3
ENDBRANCH   1   2
BRANCH   1   5
HETATM    5  C   LIG     1       1.545  -0.621  -0.385  1.00  0.00     0.026 C 
BRANCH   5   6
HETATM    6  C   LIG     1       2.929  -0.185   0.093  1.00  0.00     0.164 C 
BRANCH   6   7
HETATM    7  O   LIG     1       3.902  -1.014  -0.478  1.00  0.00    -0.401 OA
HETATM    8  H   LIG     1       4.775  -0.689  -0.137  1.00  0.00     0.209 HD
ENDBRANCH   6   7
ENDBRANCH   5   6
ENDBRANCH   1   5
TORSDOF 5
