REMARK  4 active torsions:
REMARK  status: ('A' for Active; 'I' for Inactive)
REMARK    1  A    between atoms: C_2  and  C_3 
REMARK    2  A    between atoms: C_3  and  C_4 
REMARK    3  A    between atoms: C_4  and  C_5 
REMARK    4  A    between atoms: C_5  and  C_6 
ROOT
HETATM    1  C   LIG     1       0.359  -0.358   0.746  1.00  0.00     0.001 C 
ENDROOT
BRANCH   1   2
HETATM    2  C   LIG     1       1.882  -0.429   0.558  1.00  0.00     0.011 C 
BRANCH   2   3
HETATM    3  C   LIG     1       2.451   0.820  -0.118  1.00  0.00     0.085 C 
HETATM    4 BR   LIG     1       4.385   0.726  -0.167  1.00  0.00    -0.097 Br
ENDBRANCH   2   3
ENDBRANCH   1   2
BRANCH   1   5
HETATM    5  C   LIG     1      -0.405  -0.450  -0.587  1.00  0.00    -0.000 C 
BRANCH   5   6
HETATM    6  C   LIG     1      -1.918  -0.631  -0.386  1.00  0.00    -0.005 C 
HETATM    7  C   LIG     1      -2.591   0.617   0.185  1.00  0.00     0.005 C 
ENDBRANCH   5   6
ENDBRANCH   1   5
TORSDOF 4
