MODEL 1
REMARK VINA RESULT:      -4.9      0.000      0.000
REMARK  6 active torsions:
REMARK  status: ('A' for Active; 'I' for Inactive)
REMARK    1  A    between atoms: C_2  and  C_3 
REMARK    2  A    between atoms: C_3  and  C_4 
REMARK    3  A    between atoms: C_4  and  O_5 
REMARK    4  A    between atoms: O_5  and  C_6 
REMARK    5  A    between atoms: C_6  and  C_7 
REMARK    6  A    between atoms: C_7  and  O_8 
ROOT
HETATM    1  O   LIG     1      16.391  37.839  24.682  1.00  0.00    -0.389 OA
ENDROOT
BRANCH   1   2
HETATM    2  C   LIG     1      17.314  38.170  25.698  1.00  0.00     0.167 C 
BRANCH   2   3
HETATM    3  C   LIG     1      18.468  37.164  25.664  1.00  0.00     0.026 C 
BRANCH   3   4
HETATM    4  C   LIG     1      18.301  36.031  26.687  1.00  0.00    -0.002 C 
HETATM    5  C   LIG     1      17.604  34.803  26.101  1.00  0.00     0.005 C 
ENDBRANCH   3   4
ENDBRANCH   2   3
ENDBRANCH   1   2
BRANCH   1   6
HETATM    6  C   LIG     1      17.081  37.628  23.467  1.00  0.00     0.193 C 
BRANCH   6   7
HETATM    7  C   LIG     1      16.740  38.746  22.491  1.00  0.00     0.190 C 
BRANCH   7   8
HETATM    8  O   LIG     1      15.421  39.172  22.696  1.00  0.00    -0.399 OA
HETATM    9  H   LIG     1      15.167  38.852  23.600  1.00  0.00     0.209 HD
ENDBRANCH   7   8
ENDBRANCH   6   7
ENDBRANCH   1   6
TORSDOF 6
ENDMDL
MODEL 2
REMARK VINA RESULT:      -4.5      1.648      4.419
REMARK  6 active torsions:
REMARK  status: ('A' for Active; 'I' for Inactive)
REMARK    1  A    between atoms: C_2  and  C_3 
REMARK    2  A    between atoms: C_3  and  C_4 
REMARK    3  A    between atoms: C_4  and  O_5 
REMARK    4  A    between atoms: O_5  and  C_6 
REMARK    5  A    between atoms: C_6  and  C_7 
REMARK    6  A    between atoms: C_7  and  O_8 
ROOT
HETATM    1  O   LIG     1      16.305  37.976  24.542  1.00  0.00    -0.389 OA
ENDROOT
BRANCH   1   2
HETATM    2  C   LIG     1      16.893  37.583  23.320  1.00  0.00     0.167 C 
BRANCH   2   3
HETATM    3  C   LIG     1      17.103  38.824  22.449  1.00  0.00     0.026 C 
BRANCH   3   4
HETATM    4  C   LIG     1      18.574  39.045  22.069  1.00  0.00    -0.002 C 
HETATM    5  C   LIG     1      18.764  39.332  20.580  1.00  0.00     0.005 C 
ENDBRANCH   3   4
ENDBRANCH   2   3
ENDBRANCH   1   2
BRANCH   1   6
HETATM    6  C   LIG     1      17.309  38.113  25.527  1.00  0.00     0.193 C 
BRANCH   6   7
HETATM    7  C   LIG     1      18.022  36.780  25.710  1.00  0.00     0.190 C 
BRANCH   7   8
HETATM    8  O   LIG     1      17.664  36.214  26.941  1.00  0.00    -0.399 OA
HETATM    9  H   LIG     1      16.754  36.551  27.144  1.00  0.00     0.209 HD
ENDBRANCH   7   8
ENDBRANCH   6   7
ENDBRANCH   1   6
TORSDOF 6
ENDMDL
MODEL 3
REMARK VINA RESULT:      -4.4      1.753      1.845
REMARK  6 active torsions:
REMARK  status: ('A' for Active; 'I' for Inactive)
REMARK    1  A    between atoms: C_2  and  C_3 
REMARK    2  A    between atoms: C_3  and  C_4 
REMARK    3  A    between atoms: C_4  and  O_5 
REMARK    4  A    between atoms: O_5  and  C_6 
REMARK    5  A    between atoms: C_6  and  C_7 
REMARK    6  A    between atoms: C_7  and  O_8 
ROOT
HETATM    1  O   LIG     1      17.634  38.248  23.557  1.00  0.00    -0.389 OA
ENDROOT
BRANCH   1   2
HETATM    2  C   LIG     1      17.225  37.165  24.367  1.00  0.00     0.167 C 
BRANCH   2   3
HETATM    3  C   LIG     1      17.614  37.457  25.818  1.00  0.00     0.026 C 
BRANCH   3   4
HETATM    4  C   LIG     1      18.329  36.278  26.493  1.00  0.00    -0.002 C 
HETATM    5  C   LIG     1      17.758  34.923  26.077  1.00  0.00     0.005 C 
ENDBRANCH   3   4
ENDBRANCH   2   3
ENDBRANCH   1   2
BRANCH   1   6
HETATM    6  C   LIG     1      17.358  37.955  22.203  1.00  0.00     0.193 C 
BRANCH   6   7
HETATM    7  C   LIG     1      18.125  38.922  21.310  1.00  0.00     0.190 C 
BRANCH   7   8
HETATM    8  O   LIG     1      19.269  39.378  21.977  1.00  0.00    -0.399 OA
HETATM    9  H   LIG     1      19.008  39.492  22.927  1.00  0.00     0.209 HD
ENDBRANCH   7   8
ENDBRANCH   6   7
ENDBRANCH   1   6
TORSDOF 6
ENDMDL
MODEL 4
REMARK VINA RESULT:      -4.1      3.174      3.861
REMARK  6 active torsions:
REMARK  status: ('A' for Active; 'I' for Inactive)
REMARK    1  A    between atoms: C_2  and  C_3 
REMARK    2  A    between atoms: C_3  and  C_4 
REMARK    3  A    between atoms: C_4  and  O_5 
REMARK    4  A    between atoms: O_5  and  C_6 
REMARK    5  A    between atoms: C_6  and  C_7 
REMARK    6  A    between atoms: C_7  and  O_8 
ROOT
HETATM    1  O   LIG     1      18.252  38.200  21.341  1.00  0.00    -0.389 OA
ENDROOT
BRANCH   1   2
HETATM    2  C   LIG     1      17.420  38.776  22.326  1.00  0.00     0.167 C 
BRANCH   2   3
HETATM    3  C   LIG     1      17.181  37.749  23.435  1.00  0.00     0.026 C 
BRANCH   3   4
HETATM    4  C   LIG     1      17.949  38.074  24.725  1.00  0.00    -0.002 C 
HETATM    5  C   LIG     1      17.961  36.910  25.716  1.00  0.00     0.005 C 
ENDBRANCH   3   4
ENDBRANCH   2   3
ENDBRANCH   1   2
BRANCH   1   6
HETATM    6  C   LIG     1      19.000  39.214  20.703  1.00  0.00     0.193 C 
BRANCH   6   7
HETATM    7  C   LIG     1      19.690  38.636  19.474  1.00  0.00     0.190 C 
BRANCH   7   8
HETATM    8  O   LIG     1      20.687  39.514  19.031  1.00  0.00    -0.399 OA
HETATM    9  H   LIG     1      20.425  39.786  18.114  1.00  0.00     0.209 HD
ENDBRANCH   7   8
ENDBRANCH   6   7
ENDBRANCH   1   6
TORSDOF 6
ENDMDL
MODEL 5
REMARK VINA RESULT:      -4.1      2.342      4.519
REMARK  6 active torsions:
REMARK  status: ('A' for Active; 'I' for Inactive)
REMARK    1  A    between atoms: C_2  and  C_3 
REMARK    2  A    between atoms: C_3  and  C_4 
REMARK    3  A    between atoms: C_4  and  O_5 
REMARK    4  A    between atoms: O_5  and  C_6 
REMARK    5  A    between atoms: C_6  and  C_7 
REMARK    6  A    between atoms: C_7  and  O_8 
ROOT
HETATM    1  O   LIG     1      17.007  36.842  22.917  1.00  0.00    -0.389 OA
ENDROOT
BRANCH   1   2
HETATM    2  C   LIG     1      17.262  37.055  21.544  1.00  0.00     0.167 C 
BRANCH   2   3
HETATM    3  C   LIG     1      18.059  38.352  21.384  1.00  0.00     0.026 C 
BRANCH   3   4
HETATM    4  C   LIG     1      18.981  38.338  20.157  1.00  0.00    -0.002 C 
HETATM    5  C   LIG     1      19.109  36.950  19.529  1.00  0.00     0.005 C 
ENDBRANCH   3   4
ENDBRANCH   2   3
ENDBRANCH   1   2
BRANCH   1   6
HETATM    6  C   LIG     1      17.379  37.991  23.651  1.00  0.00     0.193 C 
BRANCH   6   7
HETATM    7  C   LIG     1      17.274  37.694  25.141  1.00  0.00     0.190 C 
BRANCH   7   8
HETATM    8  O   LIG     1      17.226  38.893  25.863  1.00  0.00    -0.399 OA
HETATM    9  H   LIG     1      17.055  38.639  26.806  1.00  0.00     0.209 HD
ENDBRANCH   7   8
ENDBRANCH   6   7
ENDBRANCH   1   6
TORSDOF 6
ENDMDL
MODEL 6
REMARK VINA RESULT:      -4.0      9.718     10.796
REMARK  6 active torsions:
REMARK  status: ('A' for Active; 'I' for Inactive)
REMARK    1  A    between atoms: C_2  and  C_3 
REMARK    2  A    between atoms: C_3  and  C_4 
REMARK    3  A    between atoms: C_4  and  O_5 
REMARK    4  A    between atoms: O_5  and  C_6 
REMARK    5  A    between atoms: C_6  and  C_7 
REMARK    6  A    between atoms: C_7  and  O_8 
ROOT
HETATM    1  O   LIG     1      13.863  31.116  17.881  1.00  0.00    -0.389 OA
ENDROOT
BRANCH   1   2
HETATM    2  C   LIG     1      13.146  31.580  16.757  1.00  0.00     0.167 C 
BRANCH   2   3
HETATM    3  C   LIG     1      13.302  30.570  15.618  1.00  0.00     0.026 C 
BRANCH   3   4
HETATM    4  C   LIG     1      14.660  30.674  14.910  1.00  0.00    -0.002 C 
HETATM    5  C   LIG     1      15.015  29.413  14.123  1.00  0.00     0.005 C 
ENDBRANCH   3   4
ENDBRANCH   2   3
ENDBRANCH   1   2
BRANCH   1   6
HETATM    6  C   LIG     1      14.720  32.137  18.349  1.00  0.00     0.193 C 
BRANCH   6   7
HETATM    7  C   LIG     1      15.041  31.893  19.818  1.00  0.00     0.190 C 
BRANCH   7   8
HETATM    8  O   LIG     1      14.536  32.943  20.596  1.00  0.00    -0.399 OA
HETATM    9  H   LIG     1      13.569  33.002  20.384  1.00  0.00     0.209 HD
ENDBRANCH   7   8
ENDBRANCH   6   7
ENDBRANCH   1   6
TORSDOF 6
ENDMDL
MODEL 7
REMARK VINA RESULT:      -4.0      5.600      6.486
REMARK  6 active torsions:
REMARK  status: ('A' for Active; 'I' for Inactive)
REMARK    1  A    between atoms: C_2  and  C_3 
REMARK    2  A    between atoms: C_3  and  C_4 
REMARK    3  A    between atoms: C_4  and  O_5 
REMARK    4  A    between atoms: O_5  and  C_6 
REMARK    5  A    between atoms: C_6  and  C_7 
REMARK    6  A    between atoms: C_7  and  O_8 
ROOT
HETATM    1  O   LIG     1      16.044  33.832  20.070  1.00  0.00    -0.389 OA
ENDROOT
BRANCH   1   2
HETATM    2  C   LIG     1      15.654  34.539  21.229  1.00  0.00     0.167 C 
BRANCH   2   3
HETATM    3  C   LIG     1      16.902  35.115  21.901  1.00  0.00     0.026 C 
BRANCH   3   4
HETATM    4  C   LIG     1      17.201  36.558  21.469  1.00  0.00    -0.002 C 
HETATM    5  C   LIG     1      18.163  36.633  20.283  1.00  0.00     0.005 C 
ENDBRANCH   3   4
ENDBRANCH   2   3
ENDBRANCH   1   2
BRANCH   1   6
HETATM    6  C   LIG     1      15.269  32.656  19.952  1.00  0.00     0.193 C 
BRANCH   6   7
HETATM    7  C   LIG     1      15.031  32.355  18.478  1.00  0.00     0.190 C 
BRANCH   7   8
HETATM    8  O   LIG     1      13.740  31.841  18.299  1.00  0.00    -0.399 OA
HETATM    9  H   LIG     1      13.856  30.887  18.053  1.00  0.00     0.209 HD
ENDBRANCH   7   8
ENDBRANCH   6   7
ENDBRANCH   1   6
TORSDOF 6
ENDMDL
MODEL 8
REMARK VINA RESULT:      -4.0      2.990      5.229
REMARK  6 active torsions:
REMARK  status: ('A' for Active; 'I' for Inactive)
REMARK    1  A    between atoms: C_2  and  C_3 
REMARK    2  A    between atoms: C_3  and  C_4 
REMARK    3  A    between atoms: C_4  and  O_5 
REMARK    4  A    between atoms: O_5  and  C_6 
REMARK    5  A    between atoms: C_6  and  C_7 
REMARK    6  A    between atoms: C_7  and  O_8 
ROOT
HETATM    1  O   LIG     1      18.531  38.780  22.671  1.00  0.00    -0.389 OA
ENDROOT
BRANCH   1   2
HETATM    2  C   LIG     1      18.247  38.472  21.322  1.00  0.00     0.167 C 
BRANCH   2   3
HETATM    3  C   LIG     1      18.993  39.458  20.421  1.00  0.00     0.026 C 
BRANCH   3   4
HETATM    4  C   LIG     1      19.627  38.784  19.195  1.00  0.00    -0.002 C 
HETATM    5  C   LIG     1      18.869  39.079  17.901  1.00  0.00     0.005 C 
ENDBRANCH   3   4
ENDBRANCH   2   3
ENDBRANCH   1   2
BRANCH   1   6
HETATM    6  C   LIG     1      17.545  38.205  23.504  1.00  0.00     0.193 C 
BRANCH   6   7
HETATM    7  C   LIG     1      16.220  38.150  22.755  1.00  0.00     0.190 C 
BRANCH   7   8
HETATM    8  O   LIG     1      15.162  38.047  23.667  1.00  0.00    -0.399 OA
HETATM    9  H   LIG     1      14.346  38.320  23.174  1.00  0.00     0.209 HD
ENDBRANCH   7   8
ENDBRANCH   6   7
ENDBRANCH   1   6
TORSDOF 6
ENDMDL
MODEL 9
REMARK VINA RESULT:      -3.9      9.467     10.561
REMARK  6 active torsions:
REMARK  status: ('A' for Active; 'I' for Inactive)
REMARK    1  A    between atoms: C_2  and  C_3 
REMARK    2  A    between atoms: C_3  and  C_4 
REMARK    3  A    between atoms: C_4  and  O_5 
REMARK    4  A    between atoms: O_5  and  C_6 
REMARK    5  A    between atoms: C_6  and  C_7 
REMARK    6  A    between atoms: C_7  and  O_8 
ROOT
HETATM    1  O   LIG     1      14.016  31.407  18.045  1.00  0.00    -0.389 OA
ENDROOT
BRANCH   1   2
HETATM    2  C   LIG     1      13.508  31.791  16.785  1.00  0.00     0.167 C 
BRANCH   2   3
HETATM    3  C   LIG     1      12.946  30.555  16.079  1.00  0.00     0.026 C 
BRANCH   3   4
HETATM    4  C   LIG     1      13.791  30.121  14.873  1.00  0.00    -0.002 C 
HETATM    5  C   LIG     1      15.075  30.937  14.725  1.00  0.00     0.005 C 
ENDBRANCH   3   4
ENDBRANCH   2   3
ENDBRANCH   1   2
BRANCH   1   6
HETATM    6  C   LIG     1      14.928  32.384  18.505  1.00  0.00     0.193 C 
BRANCH   6   7
HETATM    7  C   LIG     1      15.103  33.454  17.435  1.00  0.00     0.190 C 
BRANCH   7   8
HETATM    8  O   LIG     1      15.411  34.681  18.035  1.00  0.00    -0.399 OA
HETATM    9  H   LIG     1      16.359  34.867  17.809  1.00  0.00     0.209 HD
ENDBRANCH   7   8
ENDBRANCH   6   7
ENDBRANCH   1   6
TORSDOF 6
ENDMDL
MODEL 10
REMARK VINA RESULT:      -3.8      2.870      4.483
REMARK  6 active torsions:
REMARK  status: ('A' for Active; 'I' for Inactive)
REMARK    1  A    between atoms: C_2  and  C_3 
REMARK    2  A    between atoms: C_3  and  C_4 
REMARK    3  A    between atoms: C_4  and  O_5 
REMARK    4  A    between atoms: O_5  and  C_6 
REMARK    5  A    between atoms: C_6  and  C_7 
REMARK    6  A    between atoms: C_7  and  O_8 
ROOT
HETATM    1  O   LIG     1      16.254  36.682  22.172  1.00  0.00    -0.389 OA
ENDROOT
BRANCH   1   2
HETATM    2  C   LIG     1      16.791  37.369  23.282  1.00  0.00     0.167 C 
BRANCH   2   3
HETATM    3  C   LIG     1      17.736  38.463  22.778  1.00  0.00     0.026 C 
BRANCH   3   4
HETATM    4  C   LIG     1      17.888  38.463  21.250  1.00  0.00    -0.002 C 
HETATM    5  C   LIG     1      19.104  39.259  20.776  1.00  0.00     0.005 C 
ENDBRANCH   3   4
ENDBRANCH   2   3
ENDBRANCH   1   2
BRANCH   1   6
HETATM    6  C   LIG     1      16.536  35.302  22.289  1.00  0.00     0.193 C 
BRANCH   6   7
HETATM    7  C   LIG     1      15.703  34.529  21.274  1.00  0.00     0.190 C 
BRANCH   7   8
HETATM    8  O   LIG     1      14.340  34.733  21.523  1.00  0.00    -0.399 OA
HETATM    9  H   LIG     1      14.255  34.858  22.504  1.00  0.00     0.209 HD
ENDBRANCH   7   8
ENDBRANCH   6   7
ENDBRANCH   1   6
TORSDOF 6
ENDMDL
MODEL 11
REMARK VINA RESULT:      -3.7      9.917     10.909
REMARK  6 active torsions:
REMARK  status: ('A' for Active; 'I' for Inactive)
REMARK    1  A    between atoms: C_2  and  C_3 
REMARK    2  A    between atoms: C_3  and  C_4 
REMARK    3  A    between atoms: C_4  and  O_5 
REMARK    4  A    between atoms: O_5  and  C_6 
REMARK    5  A    between atoms: C_6  and  C_7 
REMARK    6  A    between atoms: C_7  and  O_8 
ROOT
HETATM    1  O   LIG     1      16.472  32.639  16.435  1.00  0.00    -0.389 OA
ENDROOT
BRANCH   1   2
HETATM    2  C   LIG     1      15.130  33.079  16.477  1.00  0.00     0.167 C 
BRANCH   2   3
HETATM    3  C   LIG     1      14.333  32.150  17.396  1.00  0.00     0.026 C 
BRANCH   3   4
HETATM    4  C   LIG     1      12.968  31.759  16.811  1.00  0.00    -0.002 C 
HETATM    5  C   LIG     1      13.059  30.595  15.825  1.00  0.00     0.005 C 
ENDBRANCH   3   4
ENDBRANCH   2   3
ENDBRANCH   1   2
BRANCH   1   6
HETATM    6  C   LIG     1      17.001  32.862  15.144  1.00  0.00     0.193 C 
BRANCH   6   7
HETATM    7  C   LIG     1      16.104  32.195  14.108  1.00  0.00     0.190 C 
BRANCH   7   8
HETATM    8  O   LIG     1      16.225  32.855  12.879  1.00  0.00    -0.399 OA
HETATM    9  H   LIG     1      17.147  33.221  12.852  1.00  0.00     0.209 HD
ENDBRANCH   7   8
ENDBRANCH   6   7
ENDBRANCH   1   6
TORSDOF 6
ENDMDL
MODEL 12
REMARK VINA RESULT:      -3.7     10.582     11.280
REMARK  6 active torsions:
REMARK  status: ('A' for Active; 'I' for Inactive)
REMARK    1  A    between atoms: C_2  and  C_3 
REMARK    2  A    between atoms: C_3  and  C_4 
REMARK    3  A    between atoms: C_4  and  O_5 
REMARK    4  A    between atoms: O_5  and  C_6 
REMARK    5  A    between atoms: C_6  and  C_7 
REMARK    6  A    between atoms: C_7  and  O_8 
ROOT
HETATM    1  O   LIG     1      16.059  33.360  15.275  1.00  0.00    -0.389 OA
ENDROOT
BRANCH   1   2
HETATM    2  C   LIG     1      15.373  32.275  15.863  1.00  0.00     0.167 C 
BRANCH   2   3
HETATM    3  C   LIG     1      15.252  31.148  14.835  1.00  0.00     0.026 C 
BRANCH   3   4
HETATM    4  C   LIG     1      13.953  30.343  14.982  1.00  0.00    -0.002 C 
HETATM    5  C   LIG     1      13.119  30.780  16.186  1.00  0.00     0.005 C 
ENDBRANCH   3   4
ENDBRANCH   2   3
ENDBRANCH   1   2
BRANCH   1   6
HETATM    6  C   LIG     1      17.362  32.952  14.910  1.00  0.00     0.193 C 
BRANCH   6   7
HETATM    7  C   LIG     1      17.919  33.914  13.867  1.00  0.00     0.190 C 
BRANCH   7   8
HETATM    8  O   LIG     1      17.482  35.216  14.140  1.00  0.00    -0.399 OA
HETATM    9  H   LIG     1      18.259  35.690  14.535  1.00  0.00     0.209 HD
ENDBRANCH   7   8
ENDBRANCH   6   7
ENDBRANCH   1   6
TORSDOF 6
ENDMDL
MODEL 13
REMARK VINA RESULT:      -3.6     12.131     12.772
REMARK  6 active torsions:
REMARK  status: ('A' for Active; 'I' for Inactive)
REMARK    1  A    between atoms: C_2  and  C_3 
REMARK    2  A    between atoms: C_3  and  C_4 
REMARK    3  A    between atoms: C_4  and  O_5 
REMARK    4  A    between atoms: O_5  and  C_6 
REMARK    5  A    between atoms: C_6  and  C_7 
REMARK    6  A    between atoms: C_7  and  O_8 
ROOT
HETATM    1  O   LIG     1      16.907  32.162  13.110  1.00  0.00    -0.389 OA
ENDROOT
BRANCH   1   2
HETATM    2  C   LIG     1      15.884  31.830  14.025  1.00  0.00     0.167 C 
BRANCH   2   3
HETATM    3  C   LIG     1      15.199  30.544  13.557  1.00  0.00     0.026 C 
BRANCH   3   4
HETATM    4  C   LIG     1      14.487  29.799  14.695  1.00  0.00    -0.002 C 
HETATM    5  C   LIG     1      13.783  30.742  15.671  1.00  0.00     0.005 C 
ENDBRANCH   3   4
ENDBRANCH   2   3
ENDBRANCH   1   2
BRANCH   1   6
HETATM    6  C   LIG     1      17.552  33.347  13.532  1.00  0.00     0.193 C 
BRANCH   6   7
HETATM    7  C   LIG     1      18.636  33.717  12.528  1.00  0.00     0.190 C 
BRANCH   7   8
HETATM    8  O   LIG     1      18.820  32.668  11.619  1.00  0.00    -0.399 OA
HETATM    9  H   LIG     1      18.133  32.791  10.914  1.00  0.00     0.209 HD
ENDBRANCH   7   8
ENDBRANCH   6   7
ENDBRANCH   1   6
TORSDOF 6
ENDMDL
MODEL 14
REMARK VINA RESULT:      -3.5     11.262     12.364
REMARK  6 active torsions:
REMARK  status: ('A' for Active; 'I' for Inactive)
REMARK    1  A    between atoms: C_2  and  C_3 
REMARK    2  A    between atoms: C_3  and  C_4 
REMARK    3  A    between atoms: C_4  and  O_5 
REMARK    4  A    between atoms: O_5  and  C_6 
REMARK    5  A    between atoms: C_6  and  C_7 
REMARK    6  A    between atoms: C_7  and  O_8 
ROOT
HETATM    1  O   LIG     1      16.924  32.338  13.112  1.00  0.00    -0.389 OA
ENDROOT
BRANCH   1   2
HETATM    2  C   LIG     1      15.924  31.878  13.997  1.00  0.00     0.167 C 
BRANCH   2   3
HETATM    3  C   LIG     1      15.258  30.640  13.392  1.00  0.00     0.026 C 
BRANCH   3   4
HETATM    4  C   LIG     1      15.202  29.456  14.368  1.00  0.00    -0.002 C 
HETATM    5  C   LIG     1      15.281  28.103  13.662  1.00  0.00     0.005 C 
ENDBRANCH   3   4
ENDBRANCH   2   3
ENDBRANCH   1   2
BRANCH   1   6
HETATM    6  C   LIG     1      17.595  33.439  13.690  1.00  0.00     0.193 C 
BRANCH   6   7
HETATM    7  C   LIG     1      17.211  33.551  15.159  1.00  0.00     0.190 C 
BRANCH   7   8
HETATM    8  O   LIG     1      16.973  34.892  15.488  1.00  0.00    -0.399 OA
HETATM    9  H   LIG     1      16.325  34.880  16.239  1.00  0.00     0.209 HD
ENDBRANCH   7   8
ENDBRANCH   6   7
ENDBRANCH   1   6
TORSDOF 6
ENDMDL
MODEL 15
REMARK VINA RESULT:      -3.5     12.134     12.983
REMARK  6 active torsions:
REMARK  status: ('A' for Active; 'I' for Inactive)
REMARK    1  A    between atoms: C_2  and  C_3 
REMARK    2  A    between atoms: C_3  and  C_4 
REMARK    3  A    between atoms: C_4  and  O_5 
REMARK    4  A    between atoms: O_5  and  C_6 
REMARK    5  A    between atoms: C_6  and  C_7 
REMARK    6  A    between atoms: C_7  and  O_8 
ROOT
HETATM    1  O   LIG     1      19.721  34.501  12.395  1.00  0.00    -0.389 OA
ENDROOT
BRANCH   1   2
HETATM    2  C   LIG     1      21.012  34.001  12.117  1.00  0.00     0.167 C 
BRANCH   2   3
HETATM    3  C   LIG     1      22.013  35.157  12.170  1.00  0.00     0.026 C 
BRANCH   3   4
HETATM    4  C   LIG     1      22.878  35.139  13.439  1.00  0.00    -0.002 C 
HETATM    5  C   LIG     1      23.976  36.202  13.421  1.00  0.00     0.005 C 
ENDBRANCH   3   4
ENDBRANCH   2   3
ENDBRANCH   1   2
BRANCH   1   6
HETATM    6  C   LIG     1      19.047  33.614  13.264  1.00  0.00     0.193 C 
BRANCH   6   7
HETATM    7  C   LIG     1      17.619  34.100  13.475  1.00  0.00     0.190 C 
BRANCH   7   8
HETATM    8  O   LIG     1      17.092  34.568  12.265  1.00  0.00    -0.399 OA
HETATM    9  H   LIG     1      17.515  35.450  12.103  1.00  0.00     0.209 HD
ENDBRANCH   7   8
ENDBRANCH   6   7
ENDBRANCH   1   6
TORSDOF 6
ENDMDL
MODEL 16
REMARK VINA RESULT:      -3.4     10.899     11.741
REMARK  6 active torsions:
REMARK  status: ('A' for Active; 'I' for Inactive)
REMARK    1  A    between atoms: C_2  and  C_3 
REMARK    2  A    between atoms: C_3  and  C_4 
REMARK    3  A    between atoms: C_4  and  O_5 
REMARK    4  A    between atoms: O_5  and  C_6 
REMARK    5  A    between atoms: C_6  and  C_7 
REMARK    6  A    between atoms: C_7  and  O_8 
ROOT
HETATM    1  O   LIG     1      14.930  31.267  15.235  1.00  0.00    -0.389 OA
ENDROOT
BRANCH   1   2
HETATM    2  C   LIG     1      13.795  30.888  15.984  1.00  0.00     0.167 C 
BRANCH   2   3
HETATM    3  C   LIG     1      13.534  31.946  17.059  1.00  0.00     0.026 C 
BRANCH   3   4
HETATM    4  C   LIG     1      14.814  32.391  17.781  1.00  0.00    -0.002 C 
HETATM    5  C   LIG     1      14.887  31.883  19.221  1.00  0.00     0.005 C 
ENDBRANCH   3   4
ENDBRANCH   2   3
ENDBRANCH   1   2
BRANCH   1   6
HETATM    6  C   LIG     1      15.085  30.393  14.136  1.00  0.00     0.193 C 
BRANCH   6   7
HETATM    7  C   LIG     1      14.013  29.313  14.196  1.00  0.00     0.190 C 
BRANCH   7   8
HETATM    8  O   LIG     1      14.450  28.171  13.512  1.00  0.00    -0.399 OA
HETATM    9  H   LIG     1      14.907  28.498  12.694  1.00  0.00     0.209 HD
ENDBRANCH   7   8
ENDBRANCH   6   7
ENDBRANCH   1   6
TORSDOF 6
ENDMDL
MODEL 17
REMARK VINA RESULT:      -3.3     11.430     12.531
REMARK  6 active torsions:
REMARK  status: ('A' for Active; 'I' for Inactive)
REMARK    1  A    between atoms: C_2  and  C_3 
REMARK    2  A    between atoms: C_3  and  C_4 
REMARK    3  A    between atoms: C_4  and  O_5 
REMARK    4  A    between atoms: O_5  and  C_6 
REMARK    5  A    between atoms: C_6  and  C_7 
REMARK    6  A    between atoms: C_7  and  O_8 
ROOT
HETATM    1  O   LIG     1      15.863  30.534  14.373  1.00  0.00    -0.389 OA
ENDROOT
BRANCH   1   2
HETATM    2  C   LIG     1      15.097  31.363  15.223  1.00  0.00     0.167 C 
BRANCH   2   3
HETATM    3  C   LIG     1      15.879  32.650  15.495  1.00  0.00     0.026 C 
BRANCH   3   4
HETATM    4  C   LIG     1      17.370  32.528  15.147  1.00  0.00    -0.002 C 
HETATM    5  C   LIG     1      17.836  33.597  14.159  1.00  0.00     0.005 C 
ENDBRANCH   3   4
ENDBRANCH   2   3
ENDBRANCH   1   2
BRANCH   1   6
HETATM    6  C   LIG     1      15.080  29.433  13.957  1.00  0.00     0.193 C 
BRANCH   6   7
HETATM    7  C   LIG     1      13.654  29.609  14.461  1.00  0.00     0.190 C 
BRANCH   7   8
HETATM    8  O   LIG     1      12.834  28.607  13.925  1.00  0.00    -0.399 OA
HETATM    9  H   LIG     1      13.112  28.500  12.979  1.00  0.00     0.209 HD
ENDBRANCH   7   8
ENDBRANCH   6   7
ENDBRANCH   1   6
TORSDOF 6
ENDMDL
MODEL 18
REMARK VINA RESULT:      -3.3     10.407     11.992
REMARK  6 active torsions:
REMARK  status: ('A' for Active; 'I' for Inactive)
REMARK    1  A    between atoms: C_2  and  C_3 
REMARK    2  A    between atoms: C_3  and  C_4 
REMARK    3  A    between atoms: C_4  and  O_5 
REMARK    4  A    between atoms: O_5  and  C_6 
REMARK    5  A    between atoms: C_6  and  C_7 
REMARK    6  A    between atoms: C_7  and  O_8 
ROOT
HETATM    1  O   LIG     1      17.281  34.248  14.003  1.00  0.00    -0.389 OA
ENDROOT
BRANCH   1   2
HETATM    2  C   LIG     1      17.963  34.167  12.768  1.00  0.00     0.167 C 
BRANCH   2   3
HETATM    3  C   LIG     1      19.386  33.666  13.020  1.00  0.00     0.026 C 
BRANCH   3   4
HETATM    4  C   LIG     1      20.413  34.276  12.055  1.00  0.00    -0.002 C 
HETATM    5  C   LIG     1      21.714  34.677  12.751  1.00  0.00     0.005 C 
ENDBRANCH   3   4
ENDBRANCH   2   3
ENDBRANCH   1   2
BRANCH   1   6
HETATM    6  C   LIG     1      17.248  32.971  14.608  1.00  0.00     0.193 C 
BRANCH   6   7
HETATM    7  C   LIG     1      16.116  32.924  15.625  1.00  0.00     0.190 C 
BRANCH   7   8
HETATM    8  O   LIG     1      15.887  34.205  16.142  1.00  0.00    -0.399 OA
HETATM    9  H   LIG     1      16.330  34.227  17.030  1.00  0.00     0.209 HD
ENDBRANCH   7   8
ENDBRANCH   6   7
ENDBRANCH   1   6
TORSDOF 6
ENDMDL
MODEL 19
REMARK VINA RESULT:      -3.3     10.755     11.600
REMARK  6 active torsions:
REMARK  status: ('A' for Active; 'I' for Inactive)
REMARK    1  A    between atoms: C_2  and  C_3 
REMARK    2  A    between atoms: C_3  and  C_4 
REMARK    3  A    between atoms: C_4  and  O_5 
REMARK    4  A    between atoms: O_5  and  C_6 
REMARK    5  A    between atoms: C_6  and  C_7 
REMARK    6  A    between atoms: C_7  and  O_8 
ROOT
HETATM    1  O   LIG     1      16.477  31.349  14.240  1.00  0.00    -0.389 OA
ENDROOT
BRANCH   1   2
HETATM    2  C   LIG     1      15.255  31.125  14.912  1.00  0.00     0.167 C 
BRANCH   2   3
HETATM    3  C   LIG     1      15.109  32.156  16.033  1.00  0.00     0.026 C 
BRANCH   3   4
HETATM    4  C   LIG     1      14.163  31.693  17.150  1.00  0.00    -0.002 C 
HETATM    5  C   LIG     1      12.689  31.817  16.766  1.00  0.00     0.005 C 
ENDBRANCH   3   4
ENDBRANCH   2   3
ENDBRANCH   1   2
BRANCH   1   6
HETATM    6  C   LIG     1      16.297  32.343  13.252  1.00  0.00     0.193 C 
BRANCH   6   7
HETATM    7  C   LIG     1      17.470  33.313  13.292  1.00  0.00     0.190 C 
BRANCH   7   8
HETATM    8  O   LIG     1      17.223  34.394  12.436  1.00  0.00    -0.399 OA
HETATM    9  H   LIG     1      18.056  34.934  12.427  1.00  0.00     0.209 HD
ENDBRANCH   7   8
ENDBRANCH   6   7
ENDBRANCH   1   6
TORSDOF 6
ENDMDL
MODEL 20
REMARK VINA RESULT:      -3.2     10.547     11.535
REMARK  6 active torsions:
REMARK  status: ('A' for Active; 'I' for Inactive)
REMARK    1  A    between atoms: C_2  and  C_3 
REMARK    2  A    between atoms: C_3  and  C_4 
REMARK    3  A    between atoms: C_4  and  O_5 
REMARK    4  A    between atoms: O_5  and  C_6 
REMARK    5  A    between atoms: C_6  and  C_7 
REMARK    6  A    between atoms: C_7  and  O_8 
ROOT
HETATM    1  O   LIG     1      13.769  30.537  16.585  1.00  0.00    -0.389 OA
ENDROOT
BRANCH   1   2
HETATM    2  C   LIG     1      13.659  31.905  16.918  1.00  0.00     0.167 C 
BRANCH   2   3
HETATM    3  C   LIG     1      15.055  32.454  17.222  1.00  0.00     0.026 C 
BRANCH   3   4
HETATM    4  C   LIG     1      15.690  33.169  16.020  1.00  0.00    -0.002 C 
HETATM    5  C   LIG     1      16.818  32.361  15.379  1.00  0.00     0.005 C 
ENDBRANCH   3   4
ENDBRANCH   2   3
ENDBRANCH   1   2
BRANCH   1   6
HETATM    6  C   LIG     1      13.351  30.341  15.250  1.00  0.00     0.193 C 
BRANCH   6   7
HETATM    7  C   LIG     1      14.438  29.596  14.485  1.00  0.00     0.190 C 
BRANCH   7   8
HETATM    8  O   LIG     1      14.808  30.327  13.350  1.00  0.00    -0.399 OA
HETATM    9  H   LIG     1      13.990  30.401  12.792  1.00  0.00     0.209 HD
ENDBRANCH   7   8
ENDBRANCH   6   7
ENDBRANCH   1   6
TORSDOF 6
ENDMDL
