REMARK  11 active torsions:
REMARK  status: ('A' for Active; 'I' for Inactive)
REMARK    1  A    between atoms: C_2  and  C_3 
REMARK    2  A    between atoms: C_3  and  C_4 
REMARK    3  A    between atoms: C_4  and  C_5 
REMARK    4  A    between atoms: C_5  and  C_6 
REMARK    5  A    between atoms: C_6  and  C_7 
REMARK    6  A    between atoms: C_7  and  C_8 
REMARK    7  A    between atoms: C_8  and  C_9 
REMARK    8  A    between atoms: C_9  and  C_10 
REMARK    9  A    between atoms: C_10  and  C_11 
REMARK   10  A    between atoms: C_11  and  C_12 
REMARK   11  A    between atoms: C_12  and  O_13 
ROOT
HETATM    1  C   LIG     1       0.761   0.657  -0.814  1.00  0.00     0.000 C 
ENDROOT
BRANCH   1   2
HETATM    2  C   LIG     1       0.377  -0.513   0.107  1.00  0.00     0.000 C 
BRANCH   2   3
HETATM    3  C   LIG     1      -0.840  -0.195   0.991  1.00  0.00     0.000 C 
BRANCH   3   4
HETATM    4  C   LIG     1      -2.160  -0.194   0.205  1.00  0.00     0.000 C 
BRANCH   4   5
HETATM    5  C   LIG     1      -3.357  -0.006   1.145  1.00  0.00     0.000 C 
BRANCH   5   6
HETATM    6  C   LIG     1      -4.676   0.006   0.362  1.00  0.00    -0.000 C 
BRANCH   6   7
HETATM    7  C   LIG     1      -5.872   0.193   1.303  1.00  0.00    -0.005 C 
HETATM    8  C   LIG     1      -7.186   0.205   0.527  1.00  0.00     0.005 C 
ENDBRANCH   6   7
ENDBRANCH   5   6
ENDBRANCH   4   5
ENDBRANCH   3   4
ENDBRANCH   2   3
ENDBRANCH   1   2
BRANCH   1   9
HETATM    9  C   LIG     1       1.977   0.338  -1.699  1.00  0.00     0.000 C 
BRANCH   9  10
HETATM   10  C   LIG     1       3.297   0.331  -0.914  1.00  0.00     0.010 C 
BRANCH  10  11
HETATM   11  C   LIG     1       4.495   0.146  -1.856  1.00  0.00     0.111 C 
BRANCH  11  12
HETATM   12  C   LIG     1       5.806   0.125  -1.124  1.00  0.00     0.258 C 
HETATM   13  O   LIG     1       6.871  -0.024  -1.783  1.00  0.00    -0.265 OA
BRANCH  12  14
HETATM   14  O   LIG     1       5.850   0.268   0.268  1.00  0.00    -0.326 OA
HETATM   15  C   LIG     1       7.069   0.254   1.002  1.00  0.00     0.213 C 
ENDBRANCH  12  14
ENDBRANCH  11  12
ENDBRANCH  10  11
ENDBRANCH   9  10
ENDBRANCH   1   9
TORSDOF 11
