MODEL 1
REMARK VINA RESULT:      -5.0      0.000      0.000
REMARK  6 active torsions:
REMARK  status: ('A' for Active; 'I' for Inactive)
REMARK    1  A    between atoms: C_2  and  C_3 
REMARK    2  A    between atoms: C_3  and  C_4 
REMARK    3  A    between atoms: C_4  and  C_5 
REMARK    4  A    between atoms: C_5  and  C_6 
REMARK    5  A    between atoms: C_6  and  C_7 
REMARK    6  A    between atoms: C_7  and  O_8 
ROOT
HETATM    1  C   LIG     1      18.038  38.224  24.530  1.00  0.00     0.002 C 
ENDROOT
BRANCH   1   2
HETATM    2  C   LIG     1      17.496  37.428  25.723  1.00  0.00     0.000 C 
BRANCH   2   3
HETATM    3  C   LIG     1      18.617  36.651  26.422  1.00  0.00    -0.000 C 
BRANCH   3   4
HETATM    4  C   LIG     1      18.328  35.145  26.419  1.00  0.00    -0.005 C 
HETATM    5  C   LIG     1      17.292  34.784  25.359  1.00  0.00     0.005 C 
ENDBRANCH   3   4
ENDBRANCH   2   3
ENDBRANCH   1   2
BRANCH   1   6
HETATM    6  C   LIG     1      17.372  37.778  23.222  1.00  0.00     0.026 C 
BRANCH   6   7
HETATM    7  C   LIG     1      16.690  38.952  22.522  1.00  0.00     0.164 C 
BRANCH   7   8
HETATM    8  O   LIG     1      15.317  38.924  22.796  1.00  0.00    -0.401 OA
HETATM    9  H   LIG     1      14.947  38.167  22.272  1.00  0.00     0.209 HD
ENDBRANCH   7   8
ENDBRANCH   6   7
ENDBRANCH   1   6
TORSDOF 6
ENDMDL
MODEL 2
REMARK VINA RESULT:      -5.0      2.275      2.750
REMARK  6 active torsions:
REMARK  status: ('A' for Active; 'I' for Inactive)
REMARK    1  A    between atoms: C_2  and  C_3 
REMARK    2  A    between atoms: C_3  and  C_4 
REMARK    3  A    between atoms: C_4  and  C_5 
REMARK    4  A    between atoms: C_5  and  C_6 
REMARK    5  A    between atoms: C_6  and  C_7 
REMARK    6  A    between atoms: C_7  and  O_8 
ROOT
HETATM    1  C   LIG     1      16.809  36.595  22.920  1.00  0.00     0.002 C 
ENDROOT
BRANCH   1   2
HETATM    2  C   LIG     1      17.248  36.474  24.384  1.00  0.00     0.000 C 
BRANCH   2   3
HETATM    3  C   LIG     1      17.316  35.006  24.818  1.00  0.00    -0.000 C 
BRANCH   3   4
HETATM    4  C   LIG     1      18.030  34.864  26.168  1.00  0.00    -0.005 C 
HETATM    5  C   LIG     1      18.333  36.229  26.778  1.00  0.00     0.005 C 
ENDBRANCH   3   4
ENDBRANCH   2   3
ENDBRANCH   1   2
BRANCH   1   6
HETATM    6  C   LIG     1      16.515  35.216  22.317  1.00  0.00     0.026 C 
BRANCH   6   7
HETATM    7  C   LIG     1      15.731  35.340  21.012  1.00  0.00     0.164 C 
BRANCH   7   8
HETATM    8  O   LIG     1      14.383  35.591  21.299  1.00  0.00    -0.401 OA
HETATM    9  H   LIG     1      14.071  34.826  21.847  1.00  0.00     0.209 HD
ENDBRANCH   7   8
ENDBRANCH   6   7
ENDBRANCH   1   6
TORSDOF 6
ENDMDL
MODEL 3
REMARK VINA RESULT:      -4.9      1.646      1.837
REMARK  6 active torsions:
REMARK  status: ('A' for Active; 'I' for Inactive)
REMARK    1  A    between atoms: C_2  and  C_3 
REMARK    2  A    between atoms: C_3  and  C_4 
REMARK    3  A    between atoms: C_4  and  C_5 
REMARK    4  A    between atoms: C_5  and  C_6 
REMARK    5  A    between atoms: C_6  and  C_7 
REMARK    6  A    between atoms: C_7  and  O_8 
ROOT
HETATM    1  C   LIG     1      17.046  37.439  23.486  1.00  0.00     0.002 C 
ENDROOT
BRANCH   1   2
HETATM    2  C   LIG     1      17.147  37.728  24.988  1.00  0.00     0.000 C 
BRANCH   2   3
HETATM    3  C   LIG     1      18.487  37.245  25.553  1.00  0.00    -0.000 C 
BRANCH   3   4
HETATM    4  C   LIG     1      18.274  36.243  26.694  1.00  0.00    -0.005 C 
HETATM    5  C   LIG     1      17.918  34.861  26.155  1.00  0.00     0.005 C 
ENDBRANCH   3   4
ENDBRANCH   2   3
ENDBRANCH   1   2
BRANCH   1   6
HETATM    6  C   LIG     1      16.981  38.742  22.678  1.00  0.00     0.026 C 
BRANCH   6   7
HETATM    7  C   LIG     1      18.057  38.772  21.594  1.00  0.00     0.164 C 
BRANCH   7   8
HETATM    8  O   LIG     1      19.241  39.297  22.127  1.00  0.00    -0.401 OA
HETATM    9  H   LIG     1      19.832  39.486  21.353  1.00  0.00     0.209 HD
ENDBRANCH   7   8
ENDBRANCH   6   7
ENDBRANCH   1   6
TORSDOF 6
ENDMDL
MODEL 4
REMARK VINA RESULT:      -4.8      3.055      3.848
REMARK  6 active torsions:
REMARK  status: ('A' for Active; 'I' for Inactive)
REMARK    1  A    between atoms: C_2  and  C_3 
REMARK    2  A    between atoms: C_3  and  C_4 
REMARK    3  A    between atoms: C_4  and  C_5 
REMARK    4  A    between atoms: C_5  and  C_6 
REMARK    5  A    between atoms: C_6  and  C_7 
REMARK    6  A    between atoms: C_7  and  O_8 
ROOT
HETATM    1  C   LIG     1      17.954  38.391  21.381  1.00  0.00     0.002 C 
ENDROOT
BRANCH   1   2
HETATM    2  C   LIG     1      17.533  38.812  22.794  1.00  0.00     0.000 C 
BRANCH   2   3
HETATM    3  C   LIG     1      17.215  37.588  23.660  1.00  0.00    -0.000 C 
BRANCH   3   4
HETATM    4  C   LIG     1      17.370  37.914  25.151  1.00  0.00    -0.005 C 
HETATM    5  C   LIG     1      18.336  36.947  25.829  1.00  0.00     0.005 C 
ENDBRANCH   3   4
ENDBRANCH   2   3
ENDBRANCH   1   2
BRANCH   1   6
HETATM    6  C   LIG     1      19.116  39.255  20.873  1.00  0.00     0.026 C 
BRANCH   6   7
HETATM    7  C   LIG     1      19.843  38.574  19.714  1.00  0.00     0.164 C 
BRANCH   7   8
HETATM    8  O   LIG     1      20.617  39.520  19.030  1.00  0.00    -0.401 OA
HETATM    9  H   LIG     1      19.980  40.068  18.503  1.00  0.00     0.209 HD
ENDBRANCH   7   8
ENDBRANCH   6   7
ENDBRANCH   1   6
TORSDOF 6
ENDMDL
MODEL 5
REMARK VINA RESULT:      -4.8      2.705      4.812
REMARK  6 active torsions:
REMARK  status: ('A' for Active; 'I' for Inactive)
REMARK    1  A    between atoms: C_2  and  C_3 
REMARK    2  A    between atoms: C_3  and  C_4 
REMARK    3  A    between atoms: C_4  and  C_5 
REMARK    4  A    between atoms: C_5  and  C_6 
REMARK    5  A    between atoms: C_6  and  C_7 
REMARK    6  A    between atoms: C_7  and  O_8 
ROOT
HETATM    1  C   LIG     1      17.272  38.899  22.221  1.00  0.00     0.002 C 
ENDROOT
BRANCH   1   2
HETATM    2  C   LIG     1      18.729  39.088  21.784  1.00  0.00     0.000 C 
BRANCH   2   3
HETATM    3  C   LIG     1      18.821  39.370  20.281  1.00  0.00    -0.000 C 
BRANCH   3   4
HETATM    4  C   LIG     1      19.792  38.399  19.597  1.00  0.00    -0.005 C 
HETATM    5  C   LIG     1      19.195  36.997  19.503  1.00  0.00     0.005 C 
ENDBRANCH   3   4
ENDBRANCH   2   3
ENDBRANCH   1   2
BRANCH   1   6
HETATM    6  C   LIG     1      16.947  37.414  22.428  1.00  0.00     0.026 C 
BRANCH   6   7
HETATM    7  C   LIG     1      16.975  37.044  23.910  1.00  0.00     0.164 C 
BRANCH   7   8
HETATM    8  O   LIG     1      16.363  38.060  24.655  1.00  0.00    -0.401 OA
HETATM    9  H   LIG     1      15.712  38.496  24.046  1.00  0.00     0.209 HD
ENDBRANCH   7   8
ENDBRANCH   6   7
ENDBRANCH   1   6
TORSDOF 6
ENDMDL
MODEL 6
REMARK VINA RESULT:      -4.8      3.699      4.439
REMARK  6 active torsions:
REMARK  status: ('A' for Active; 'I' for Inactive)
REMARK    1  A    between atoms: C_2  and  C_3 
REMARK    2  A    between atoms: C_3  and  C_4 
REMARK    3  A    between atoms: C_4  and  C_5 
REMARK    4  A    between atoms: C_5  and  C_6 
REMARK    5  A    between atoms: C_6  and  C_7 
REMARK    6  A    between atoms: C_7  and  O_8 
ROOT
HETATM    1  C   LIG     1      18.700  39.015  21.787  1.00  0.00     0.002 C 
ENDROOT
BRANCH   1   2
HETATM    2  C   LIG     1      17.224  39.032  22.201  1.00  0.00     0.000 C 
BRANCH   2   3
HETATM    3  C   LIG     1      16.779  37.656  22.709  1.00  0.00    -0.000 C 
BRANCH   3   4
HETATM    4  C   LIG     1      16.898  36.597  21.607  1.00  0.00    -0.005 C 
HETATM    5  C   LIG     1      16.976  35.192  22.198  1.00  0.00     0.005 C 
ENDBRANCH   3   4
ENDBRANCH   2   3
ENDBRANCH   1   2
BRANCH   1   6
HETATM    6  C   LIG     1      18.863  39.402  20.311  1.00  0.00     0.026 C 
BRANCH   6   7
HETATM    7  C   LIG     1      20.050  38.678  19.679  1.00  0.00     0.164 C 
BRANCH   7   8
HETATM    8  O   LIG     1      20.775  39.576  18.885  1.00  0.00    -0.401 OA
HETATM    9  H   LIG     1      20.304  40.447  18.954  1.00  0.00     0.209 HD
ENDBRANCH   7   8
ENDBRANCH   6   7
ENDBRANCH   1   6
TORSDOF 6
ENDMDL
MODEL 7
REMARK VINA RESULT:      -4.6      1.254      2.188
REMARK  6 active torsions:
REMARK  status: ('A' for Active; 'I' for Inactive)
REMARK    1  A    between atoms: C_2  and  C_3 
REMARK    2  A    between atoms: C_3  and  C_4 
REMARK    3  A    between atoms: C_4  and  C_5 
REMARK    4  A    between atoms: C_5  and  C_6 
REMARK    5  A    between atoms: C_6  and  C_7 
REMARK    6  A    between atoms: C_7  and  O_8 
ROOT
HETATM    1  C   LIG     1      17.165  35.172  23.301  1.00  0.00     0.002 C 
ENDROOT
BRANCH   1   2
HETATM    2  C   LIG     1      16.827  35.229  24.795  1.00  0.00     0.000 C 
BRANCH   2   3
HETATM    3  C   LIG     1      18.019  34.779  25.647  1.00  0.00    -0.000 C 
BRANCH   3   4
HETATM    4  C   LIG     1      18.356  35.824  26.718  1.00  0.00    -0.005 C 
HETATM    5  C   LIG     1      18.633  37.187  26.090  1.00  0.00     0.005 C 
ENDBRANCH   3   4
ENDBRANCH   2   3
ENDBRANCH   1   2
BRANCH   1   6
HETATM    6  C   LIG     1      16.407  36.255  22.523  1.00  0.00     0.026 C 
BRANCH   6   7
HETATM    7  C   LIG     1      16.437  37.590  23.265  1.00  0.00     0.164 C 
BRANCH   7   8
HETATM    8  O   LIG     1      15.126  38.047  23.454  1.00  0.00    -0.401 OA
HETATM    9  H   LIG     1      14.867  38.498  22.609  1.00  0.00     0.209 HD
ENDBRANCH   7   8
ENDBRANCH   6   7
ENDBRANCH   1   6
TORSDOF 6
ENDMDL
MODEL 8
REMARK VINA RESULT:      -4.5      3.953      5.175
REMARK  6 active torsions:
REMARK  status: ('A' for Active; 'I' for Inactive)
REMARK    1  A    between atoms: C_2  and  C_3 
REMARK    2  A    between atoms: C_3  and  C_4 
REMARK    3  A    between atoms: C_4  and  C_5 
REMARK    4  A    between atoms: C_5  and  C_6 
REMARK    5  A    between atoms: C_6  and  C_7 
REMARK    6  A    between atoms: C_7  and  O_8 
ROOT
HETATM    1  C   LIG     1      18.914  36.677  19.762  1.00  0.00     0.002 C 
ENDROOT
BRANCH   1   2
HETATM    2  C   LIG     1      17.484  36.344  20.202  1.00  0.00     0.000 C 
BRANCH   2   3
HETATM    3  C   LIG     1      17.379  36.277  21.729  1.00  0.00    -0.000 C 
BRANCH   3   4
HETATM    4  C   LIG     1      16.538  37.438  22.275  1.00  0.00    -0.005 C 
HETATM    5  C   LIG     1      17.399  38.673  22.524  1.00  0.00     0.005 C 
ENDBRANCH   3   4
ENDBRANCH   2   3
ENDBRANCH   1   2
BRANCH   1   6
HETATM    6  C   LIG     1      18.979  38.058  19.098  1.00  0.00     0.026 C 
BRANCH   6   7
HETATM    7  C   LIG     1      19.982  38.966  19.808  1.00  0.00     0.164 C 
BRANCH   7   8
HETATM    8  O   LIG     1      20.839  39.543  18.862  1.00  0.00    -0.401 OA
HETATM    9  H   LIG     1      20.319  39.605  18.020  1.00  0.00     0.209 HD
ENDBRANCH   7   8
ENDBRANCH   6   7
ENDBRANCH   1   6
TORSDOF 6
ENDMDL
MODEL 9
REMARK VINA RESULT:      -4.4      3.764      5.227
REMARK  6 active torsions:
REMARK  status: ('A' for Active; 'I' for Inactive)
REMARK    1  A    between atoms: C_2  and  C_3 
REMARK    2  A    between atoms: C_3  and  C_4 
REMARK    3  A    between atoms: C_4  and  C_5 
REMARK    4  A    between atoms: C_5  and  C_6 
REMARK    5  A    between atoms: C_6  and  C_7 
REMARK    6  A    between atoms: C_7  and  O_8 
ROOT
HETATM    1  C   LIG     1      16.584  37.168  22.188  1.00  0.00     0.002 C 
ENDROOT
BRANCH   1   2
HETATM    2  C   LIG     1      17.775  37.762  21.428  1.00  0.00     0.000 C 
BRANCH   2   3
HETATM    3  C   LIG     1      18.259  36.808  20.330  1.00  0.00    -0.000 C 
BRANCH   3   4
HETATM    4  C   LIG     1      19.234  37.513  19.379  1.00  0.00    -0.005 C 
HETATM    5  C   LIG     1      19.740  38.822  19.978  1.00  0.00     0.005 C 
ENDBRANCH   3   4
ENDBRANCH   2   3
ENDBRANCH   1   2
BRANCH   1   6
HETATM    6  C   LIG     1      16.251  35.760  21.676  1.00  0.00     0.026 C 
BRANCH   6   7
HETATM    7  C   LIG     1      14.795  35.667  21.225  1.00  0.00     0.164 C 
BRANCH   7   8
HETATM    8  O   LIG     1      14.276  34.415  21.579  1.00  0.00    -0.401 OA
HETATM    9  H   LIG     1      14.791  34.117  22.372  1.00  0.00     0.209 HD
ENDBRANCH   7   8
ENDBRANCH   6   7
ENDBRANCH   1   6
TORSDOF 6
ENDMDL
MODEL 10
REMARK VINA RESULT:      -4.4      2.631      3.503
REMARK  6 active torsions:
REMARK  status: ('A' for Active; 'I' for Inactive)
REMARK    1  A    between atoms: C_2  and  C_3 
REMARK    2  A    between atoms: C_3  and  C_4 
REMARK    3  A    between atoms: C_4  and  C_5 
REMARK    4  A    between atoms: C_5  and  C_6 
REMARK    5  A    between atoms: C_6  and  C_7 
REMARK    6  A    between atoms: C_7  and  O_8 
ROOT
HETATM    1  C   LIG     1      17.143  36.751  21.882  1.00  0.00     0.002 C 
ENDROOT
BRANCH   1   2
HETATM    2  C   LIG     1      16.628  37.726  22.948  1.00  0.00     0.000 C 
BRANCH   2   3
HETATM    3  C   LIG     1      17.747  38.122  23.918  1.00  0.00    -0.000 C 
BRANCH   3   4
HETATM    4  C   LIG     1      17.365  37.789  25.365  1.00  0.00    -0.005 C 
HETATM    5  C   LIG     1      18.375  36.837  25.998  1.00  0.00     0.005 C 
ENDBRANCH   3   4
ENDBRANCH   2   3
ENDBRANCH   1   2
BRANCH   1   6
HETATM    6  C   LIG     1      16.870  35.297  22.287  1.00  0.00     0.026 C 
BRANCH   6   7
HETATM    7  C   LIG     1      15.702  34.714  21.494  1.00  0.00     0.164 C 
BRANCH   7   8
HETATM    8  O   LIG     1      16.146  34.337  20.220  1.00  0.00    -0.401 OA
HETATM    9  H   LIG     1      15.963  33.365  20.140  1.00  0.00     0.209 HD
ENDBRANCH   7   8
ENDBRANCH   6   7
ENDBRANCH   1   6
TORSDOF 6
ENDMDL
MODEL 11
REMARK VINA RESULT:      -4.3      2.468      4.755
REMARK  6 active torsions:
REMARK  status: ('A' for Active; 'I' for Inactive)
REMARK    1  A    between atoms: C_2  and  C_3 
REMARK    2  A    between atoms: C_3  and  C_4 
REMARK    3  A    between atoms: C_4  and  C_5 
REMARK    4  A    between atoms: C_5  and  C_6 
REMARK    5  A    between atoms: C_6  and  C_7 
REMARK    6  A    between atoms: C_7  and  O_8 
ROOT
HETATM    1  C   LIG     1      16.791  37.577  23.436  1.00  0.00     0.002 C 
ENDROOT
BRANCH   1   2
HETATM    2  C   LIG     1      17.307  37.863  22.021  1.00  0.00     0.000 C 
BRANCH   2   3
HETATM    3  C   LIG     1      18.410  38.928  22.042  1.00  0.00    -0.000 C 
BRANCH   3   4
HETATM    4  C   LIG     1      18.668  39.480  20.635  1.00  0.00    -0.005 C 
HETATM    5  C   LIG     1      19.918  38.859  20.019  1.00  0.00     0.005 C 
ENDBRANCH   3   4
ENDBRANCH   2   3
ENDBRANCH   1   2
BRANCH   1   6
HETATM    6  C   LIG     1      17.718  38.187  24.494  1.00  0.00     0.026 C 
BRANCH   6   7
HETATM    7  C   LIG     1      18.065  37.168  25.578  1.00  0.00     0.164 C 
BRANCH   7   8
HETATM    8  O   LIG     1      17.120  36.134  25.564  1.00  0.00    -0.401 OA
HETATM    9  H   LIG     1      16.236  36.566  25.687  1.00  0.00     0.209 HD
ENDBRANCH   7   8
ENDBRANCH   6   7
ENDBRANCH   1   6
TORSDOF 6
ENDMDL
MODEL 12
REMARK VINA RESULT:      -4.2      9.183     10.258
REMARK  6 active torsions:
REMARK  status: ('A' for Active; 'I' for Inactive)
REMARK    1  A    between atoms: C_2  and  C_3 
REMARK    2  A    between atoms: C_3  and  C_4 
REMARK    3  A    between atoms: C_4  and  C_5 
REMARK    4  A    between atoms: C_5  and  C_6 
REMARK    5  A    between atoms: C_6  and  C_7 
REMARK    6  A    between atoms: C_7  and  O_8 
ROOT
HETATM    1  C   LIG     1      14.704  32.321  17.626  1.00  0.00     0.002 C 
ENDROOT
BRANCH   1   2
HETATM    2  C   LIG     1      13.341  31.981  17.013  1.00  0.00     0.000 C 
BRANCH   2   3
HETATM    3  C   LIG     1      13.430  30.729  16.132  1.00  0.00    -0.000 C 
BRANCH   3   4
HETATM    4  C   LIG     1      14.579  30.846  15.124  1.00  0.00    -0.005 C 
HETATM    5  C   LIG     1      14.637  29.626  14.210  1.00  0.00     0.005 C 
ENDBRANCH   3   4
ENDBRANCH   2   3
ENDBRANCH   1   2
BRANCH   1   6
HETATM    6  C   LIG     1      14.792  31.834  19.078  1.00  0.00     0.026 C 
BRANCH   6   7
HETATM    7  C   LIG     1      15.408  32.901  19.981  1.00  0.00     0.164 C 
BRANCH   7   8
HETATM    8  O   LIG     1      15.480  34.115  19.286  1.00  0.00    -0.401 OA
HETATM    9  H   LIG     1      16.412  34.437  19.389  1.00  0.00     0.209 HD
ENDBRANCH   7   8
ENDBRANCH   6   7
ENDBRANCH   1   6
TORSDOF 6
ENDMDL
MODEL 13
REMARK VINA RESULT:      -4.2     10.417     11.242
REMARK  6 active torsions:
REMARK  status: ('A' for Active; 'I' for Inactive)
REMARK    1  A    between atoms: C_2  and  C_3 
REMARK    2  A    between atoms: C_3  and  C_4 
REMARK    3  A    between atoms: C_4  and  C_5 
REMARK    4  A    between atoms: C_5  and  C_6 
REMARK    5  A    between atoms: C_6  and  C_7 
REMARK    6  A    between atoms: C_7  and  O_8 
ROOT
HETATM    1  C   LIG     1      13.028  30.739  15.907  1.00  0.00     0.002 C 
ENDROOT
BRANCH   1   2
HETATM    2  C   LIG     1      13.277  31.816  16.969  1.00  0.00     0.000 C 
BRANCH   2   3
HETATM    3  C   LIG     1      14.778  32.017  17.207  1.00  0.00    -0.000 C 
BRANCH   3   4
HETATM    4  C   LIG     1      15.041  32.595  18.603  1.00  0.00    -0.005 C 
HETATM    5  C   LIG     1      14.877  31.528  19.681  1.00  0.00     0.005 C 
ENDBRANCH   3   4
ENDBRANCH   2   3
ENDBRANCH   1   2
BRANCH   1   6
HETATM    6  C   LIG     1      14.290  30.485  15.073  1.00  0.00     0.026 C 
BRANCH   6   7
HETATM    7  C   LIG     1      14.111  29.278  14.154  1.00  0.00     0.164 C 
BRANCH   7   8
HETATM    8  O   LIG     1      12.751  28.955  14.070  1.00  0.00    -0.401 OA
HETATM    9  H   LIG     1      12.693  27.971  14.187  1.00  0.00     0.209 HD
ENDBRANCH   7   8
ENDBRANCH   6   7
ENDBRANCH   1   6
TORSDOF 6
ENDMDL
MODEL 14
REMARK VINA RESULT:      -4.2      3.039      4.862
REMARK  6 active torsions:
REMARK  status: ('A' for Active; 'I' for Inactive)
REMARK    1  A    between atoms: C_2  and  C_3 
REMARK    2  A    between atoms: C_3  and  C_4 
REMARK    3  A    between atoms: C_4  and  C_5 
REMARK    4  A    between atoms: C_5  and  C_6 
REMARK    5  A    between atoms: C_6  and  C_7 
REMARK    6  A    between atoms: C_7  and  O_8 
ROOT
HETATM    1  C   LIG     1      16.862  37.537  23.111  1.00  0.00     0.002 C 
ENDROOT
BRANCH   1   2
HETATM    2  C   LIG     1      17.800  38.661  22.654  1.00  0.00     0.000 C 
BRANCH   2   3
HETATM    3  C   LIG     1      18.069  38.574  21.148  1.00  0.00    -0.000 C 
BRANCH   3   4
HETATM    4  C   LIG     1      19.414  39.218  20.791  1.00  0.00    -0.005 C 
HETATM    5  C   LIG     1      20.032  38.560  19.562  1.00  0.00     0.005 C 
ENDBRANCH   3   4
ENDBRANCH   2   3
ENDBRANCH   1   2
BRANCH   1   6
HETATM    6  C   LIG     1      16.593  36.546  21.972  1.00  0.00     0.026 C 
BRANCH   6   7
HETATM    7  C   LIG     1      16.958  35.121  22.384  1.00  0.00     0.164 C 
BRANCH   7   8
HETATM    8  O   LIG     1      17.150  35.071  23.770  1.00  0.00    -0.401 OA
HETATM    9  H   LIG     1      17.605  34.209  23.955  1.00  0.00     0.209 HD
ENDBRANCH   7   8
ENDBRANCH   6   7
ENDBRANCH   1   6
TORSDOF 6
ENDMDL
MODEL 15
REMARK VINA RESULT:      -4.2      4.942      6.255
REMARK  6 active torsions:
REMARK  status: ('A' for Active; 'I' for Inactive)
REMARK    1  A    between atoms: C_2  and  C_3 
REMARK    2  A    between atoms: C_3  and  C_4 
REMARK    3  A    between atoms: C_4  and  C_5 
REMARK    4  A    between atoms: C_5  and  C_6 
REMARK    5  A    between atoms: C_6  and  C_7 
REMARK    6  A    between atoms: C_7  and  O_8 
ROOT
HETATM    1  C   LIG     1      15.770  34.764  20.011  1.00  0.00     0.002 C 
ENDROOT
BRANCH   1   2
HETATM    2  C   LIG     1      16.309  35.432  21.281  1.00  0.00     0.000 C 
BRANCH   2   3
HETATM    3  C   LIG     1      17.459  36.390  20.953  1.00  0.00    -0.000 C 
BRANCH   3   4
HETATM    4  C   LIG     1      17.400  37.643  21.835  1.00  0.00    -0.005 C 
HETATM    5  C   LIG     1      18.174  38.798  21.206  1.00  0.00     0.005 C 
ENDBRANCH   3   4
ENDBRANCH   2   3
ENDBRANCH   1   2
BRANCH   1   6
HETATM    6  C   LIG     1      15.435  33.288  20.264  1.00  0.00     0.026 C 
BRANCH   6   7
HETATM    7  C   LIG     1      15.186  32.546  18.953  1.00  0.00     0.164 C 
BRANCH   7   8
HETATM    8  O   LIG     1      14.139  31.632  19.126  1.00  0.00    -0.401 OA
HETATM    9  H   LIG     1      13.801  31.770  20.048  1.00  0.00     0.209 HD
ENDBRANCH   7   8
ENDBRANCH   6   7
ENDBRANCH   1   6
TORSDOF 6
ENDMDL
MODEL 16
REMARK VINA RESULT:      -4.1      9.887     10.732
REMARK  6 active torsions:
REMARK  status: ('A' for Active; 'I' for Inactive)
REMARK    1  A    between atoms: C_2  and  C_3 
REMARK    2  A    between atoms: C_3  and  C_4 
REMARK    3  A    between atoms: C_4  and  C_5 
REMARK    4  A    between atoms: C_5  and  C_6 
REMARK    5  A    between atoms: C_6  and  C_7 
REMARK    6  A    between atoms: C_7  and  O_8 
ROOT
HETATM    1  C   LIG     1      14.453  30.721  15.275  1.00  0.00     0.002 C 
ENDROOT
BRANCH   1   2
HETATM    2  C   LIG     1      14.526  31.933  16.212  1.00  0.00     0.000 C 
BRANCH   2   3
HETATM    3  C   LIG     1      14.008  31.579  17.611  1.00  0.00    -0.000 C 
BRANCH   3   4
HETATM    4  C   LIG     1      14.906  32.181  18.698  1.00  0.00    -0.005 C 
HETATM    5  C   LIG     1      14.858  31.349  19.976  1.00  0.00     0.005 C 
ENDBRANCH   3   4
ENDBRANCH   2   3
ENDBRANCH   1   2
BRANCH   1   6
HETATM    6  C   LIG     1      15.317  30.938  14.027  1.00  0.00     0.026 C 
BRANCH   6   7
HETATM    7  C   LIG     1      16.198  32.177  14.173  1.00  0.00     0.164 C 
BRANCH   7   8
HETATM    8  O   LIG     1      16.239  32.867  12.955  1.00  0.00    -0.401 OA
HETATM    9  H   LIG     1      15.467  33.490  12.964  1.00  0.00     0.209 HD
ENDBRANCH   7   8
ENDBRANCH   6   7
ENDBRANCH   1   6
TORSDOF 6
ENDMDL
MODEL 17
REMARK VINA RESULT:      -4.1     10.785     11.786
REMARK  6 active torsions:
REMARK  status: ('A' for Active; 'I' for Inactive)
REMARK    1  A    between atoms: C_2  and  C_3 
REMARK    2  A    between atoms: C_3  and  C_4 
REMARK    3  A    between atoms: C_4  and  C_5 
REMARK    4  A    between atoms: C_5  and  C_6 
REMARK    5  A    between atoms: C_6  and  C_7 
REMARK    6  A    between atoms: C_7  and  O_8 
ROOT
HETATM    1  C   LIG     1      15.599  31.350  13.386  1.00  0.00     0.002 C 
ENDROOT
BRANCH   1   2
HETATM    2  C   LIG     1      15.293  30.602  14.689  1.00  0.00     0.000 C 
BRANCH   2   3
HETATM    3  C   LIG     1      13.902  29.960  14.641  1.00  0.00    -0.000 C 
BRANCH   3   4
HETATM    4  C   LIG     1      12.986  30.553  15.718  1.00  0.00    -0.005 C 
HETATM    5  C   LIG     1      13.783  31.362  16.737  1.00  0.00     0.005 C 
ENDBRANCH   3   4
ENDBRANCH   2   3
ENDBRANCH   1   2
BRANCH   1   6
HETATM    6  C   LIG     1      16.518  32.552  13.644  1.00  0.00     0.026 C 
BRANCH   6   7
HETATM    7  C   LIG     1      16.899  32.648  15.120  1.00  0.00     0.164 C 
BRANCH   7   8
HETATM    8  O   LIG     1      16.424  33.855  15.647  1.00  0.00    -0.401 OA
HETATM    9  H   LIG     1      15.739  33.611  16.322  1.00  0.00     0.209 HD
ENDBRANCH   7   8
ENDBRANCH   6   7
ENDBRANCH   1   6
TORSDOF 6
ENDMDL
MODEL 18
REMARK VINA RESULT:      -4.0      4.363      5.323
REMARK  6 active torsions:
REMARK  status: ('A' for Active; 'I' for Inactive)
REMARK    1  A    between atoms: C_2  and  C_3 
REMARK    2  A    between atoms: C_3  and  C_4 
REMARK    3  A    between atoms: C_4  and  C_5 
REMARK    4  A    between atoms: C_5  and  C_6 
REMARK    5  A    between atoms: C_6  and  C_7 
REMARK    6  A    between atoms: C_7  and  O_8 
ROOT
HETATM    1  C   LIG     1      15.111  36.153  21.633  1.00  0.00     0.002 C 
ENDROOT
BRANCH   1   2
HETATM    2  C   LIG     1      14.994  34.634  21.458  1.00  0.00     0.000 C 
BRANCH   2   3
HETATM    3  C   LIG     1      15.748  34.164  20.209  1.00  0.00    -0.000 C 
BRANCH   3   4
HETATM    4  C   LIG     1      15.544  32.662  19.976  1.00  0.00    -0.005 C 
HETATM    5  C   LIG     1      15.023  32.388  18.568  1.00  0.00     0.005 C 
ENDBRANCH   3   4
ENDBRANCH   2   3
ENDBRANCH   1   2
BRANCH   1   6
HETATM    6  C   LIG     1      16.492  36.540  22.178  1.00  0.00     0.026 C 
BRANCH   6   7
HETATM    7  C   LIG     1      16.368  37.476  23.378  1.00  0.00     0.164 C 
BRANCH   7   8
HETATM    8  O   LIG     1      15.077  38.016  23.418  1.00  0.00    -0.401 OA
HETATM    9  H   LIG     1      14.747  38.012  22.482  1.00  0.00     0.209 HD
ENDBRANCH   7   8
ENDBRANCH   6   7
ENDBRANCH   1   6
TORSDOF 6
ENDMDL
MODEL 19
REMARK VINA RESULT:      -4.0     10.341     11.460
REMARK  6 active torsions:
REMARK  status: ('A' for Active; 'I' for Inactive)
REMARK    1  A    between atoms: C_2  and  C_3 
REMARK    2  A    between atoms: C_3  and  C_4 
REMARK    3  A    between atoms: C_4  and  C_5 
REMARK    4  A    between atoms: C_5  and  C_6 
REMARK    5  A    between atoms: C_6  and  C_7 
REMARK    6  A    between atoms: C_7  and  O_8 
ROOT
HETATM    1  C   LIG     1      13.130  31.254  16.437  1.00  0.00     0.002 C 
ENDROOT
BRANCH   1   2
HETATM    2  C   LIG     1      13.361  30.333  15.233  1.00  0.00     0.000 C 
BRANCH   2   3
HETATM    3  C   LIG     1      14.858  30.165  14.949  1.00  0.00    -0.000 C 
BRANCH   3   4
HETATM    4  C   LIG     1      15.201  30.611  13.522  1.00  0.00    -0.005 C 
HETATM    5  C   LIG     1      15.989  31.918  13.527  1.00  0.00     0.005 C 
ENDBRANCH   3   4
ENDBRANCH   2   3
ENDBRANCH   1   2
BRANCH   1   6
HETATM    6  C   LIG     1      14.460  31.762  17.006  1.00  0.00     0.026 C 
BRANCH   6   7
HETATM    7  C   LIG     1      14.564  33.282  16.894  1.00  0.00     0.164 C 
BRANCH   7   8
HETATM    8  O   LIG     1      15.192  33.792  18.037  1.00  0.00    -0.401 OA
HETATM    9  H   LIG     1      14.663  34.586  18.312  1.00  0.00     0.209 HD
ENDBRANCH   7   8
ENDBRANCH   6   7
ENDBRANCH   1   6
TORSDOF 6
ENDMDL
MODEL 20
REMARK VINA RESULT:      -4.0     11.047     11.790
REMARK  6 active torsions:
REMARK  status: ('A' for Active; 'I' for Inactive)
REMARK    1  A    between atoms: C_2  and  C_3 
REMARK    2  A    between atoms: C_3  and  C_4 
REMARK    3  A    between atoms: C_4  and  C_5 
REMARK    4  A    between atoms: C_5  and  C_6 
REMARK    5  A    between atoms: C_6  and  C_7 
REMARK    6  A    between atoms: C_7  and  O_8 
ROOT
HETATM    1  C   LIG     1      16.374  32.623  14.907  1.00  0.00     0.002 C 
ENDROOT
BRANCH   1   2
HETATM    2  C   LIG     1      15.918  31.757  13.727  1.00  0.00     0.000 C 
BRANCH   2   3
HETATM    3  C   LIG     1      14.997  30.626  14.198  1.00  0.00    -0.000 C 
BRANCH   3   4
HETATM    4  C   LIG     1      14.393  30.945  15.572  1.00  0.00    -0.005 C 
HETATM    5  C   LIG     1      12.947  30.467  15.662  1.00  0.00     0.005 C 
ENDBRANCH   3   4
ENDBRANCH   2   3
ENDBRANCH   1   2
BRANCH   1   6
HETATM    6  C   LIG     1      17.784  33.179  14.669  1.00  0.00     0.026 C 
BRANCH   6   7
HETATM    7  C   LIG     1      17.958  33.641  13.224  1.00  0.00     0.164 C 
BRANCH   7   8
HETATM    8  O   LIG     1      17.454  34.940  13.085  1.00  0.00    -0.401 OA
HETATM    9  H   LIG     1      18.014  35.517  13.666  1.00  0.00     0.209 HD
ENDBRANCH   7   8
ENDBRANCH   6   7
ENDBRANCH   1   6
TORSDOF 6
ENDMDL
