MODEL 1
REMARK VINA RESULT:      -4.7      0.000      0.000
REMARK  4 active torsions:
REMARK  status: ('A' for Active; 'I' for Inactive)
REMARK    1  A    between atoms: C_2  and  C_3 
REMARK    2  A    between atoms: C_3  and  C_4 
REMARK    3  A    between atoms: C_4  and  C_5 
REMARK    4  A    between atoms: C_5  and  C_6 
ROOT
HETATM    1  C   LIG     1      17.075  37.088  24.624  1.00  0.00     0.001 C 
ENDROOT
BRANCH   1   2
HETATM    2  C   LIG     1      17.332  37.975  23.396  1.00  0.00     0.011 C 
BRANCH   2   3
HETATM    3  C   LIG     1      17.008  37.267  22.079  1.00  0.00     0.085 C 
HETATM    4 BR   LIG     1      16.855  35.358  22.372  1.00  0.00    -0.097 Br
ENDBRANCH   2   3
ENDBRANCH   1   2
BRANCH   1   5
HETATM    5  C   LIG     1      18.098  37.328  25.749  1.00  0.00    -0.000 C 
BRANCH   5   6
HETATM    6  C   LIG     1      18.345  36.070  26.597  1.00  0.00    -0.005 C 
HETATM    7  C   LIG     1      17.589  34.848  26.073  1.00  0.00     0.005 C 
ENDBRANCH   5   6
ENDBRANCH   1   5
TORSDOF 4
ENDMDL
MODEL 2
REMARK VINA RESULT:      -4.5      1.808      3.526
REMARK  4 active torsions:
REMARK  status: ('A' for Active; 'I' for Inactive)
REMARK    1  A    between atoms: C_2  and  C_3 
REMARK    2  A    between atoms: C_3  and  C_4 
REMARK    3  A    between atoms: C_4  and  C_5 
REMARK    4  A    between atoms: C_5  and  C_6 
ROOT
HETATM    1  C   LIG     1      17.609  38.207  23.888  1.00  0.00     0.001 C 
ENDROOT
BRANCH   1   2
HETATM    2  C   LIG     1      17.305  37.732  25.317  1.00  0.00     0.011 C 
BRANCH   2   3
HETATM    3  C   LIG     1      18.422  36.865  25.900  1.00  0.00     0.085 C 
HETATM    4 BR   LIG     1      17.807  35.040  26.109  1.00  0.00    -0.097 Br
ENDBRANCH   2   3
ENDBRANCH   1   2
BRANCH   1   5
HETATM    5  C   LIG     1      16.532  37.768  22.880  1.00  0.00    -0.000 C 
BRANCH   5   6
HETATM    6  C   LIG     1      17.054  36.726  21.878  1.00  0.00    -0.005 C 
HETATM    7  C   LIG     1      16.911  35.293  22.389  1.00  0.00     0.005 C 
ENDBRANCH   5   6
ENDBRANCH   1   5
TORSDOF 4
ENDMDL
MODEL 3
REMARK VINA RESULT:      -4.4      1.670      2.102
REMARK  4 active torsions:
REMARK  status: ('A' for Active; 'I' for Inactive)
REMARK    1  A    between atoms: C_2  and  C_3 
REMARK    2  A    between atoms: C_3  and  C_4 
REMARK    3  A    between atoms: C_4  and  C_5 
REMARK    4  A    between atoms: C_5  and  C_6 
ROOT
HETATM    1  C   LIG     1      17.227  35.174  23.875  1.00  0.00     0.001 C 
ENDROOT
BRANCH   1   2
HETATM    2  C   LIG     1      16.903  36.633  23.517  1.00  0.00     0.011 C 
BRANCH   2   3
HETATM    3  C   LIG     1      17.011  36.909  22.016  1.00  0.00     0.085 C 
HETATM    4 BR   LIG     1      17.825  38.640  21.716  1.00  0.00    -0.097 Br
ENDBRANCH   2   3
ENDBRANCH   1   2
BRANCH   1   5
HETATM    5  C   LIG     1      17.014  34.872  25.369  1.00  0.00    -0.000 C 
BRANCH   5   6
HETATM    6  C   LIG     1      18.320  34.946  26.175  1.00  0.00    -0.005 C 
HETATM    7  C   LIG     1      18.530  36.308  26.835  1.00  0.00     0.005 C 
ENDBRANCH   5   6
ENDBRANCH   1   5
TORSDOF 4
ENDMDL
MODEL 4
REMARK VINA RESULT:      -4.3      2.046      4.127
REMARK  4 active torsions:
REMARK  status: ('A' for Active; 'I' for Inactive)
REMARK    1  A    between atoms: C_2  and  C_3 
REMARK    2  A    between atoms: C_3  and  C_4 
REMARK    3  A    between atoms: C_4  and  C_5 
REMARK    4  A    between atoms: C_5  and  C_6 
ROOT
HETATM    1  C   LIG     1      18.009  38.420  23.984  1.00  0.00     0.001 C 
ENDROOT
BRANCH   1   2
HETATM    2  C   LIG     1      17.600  37.612  25.225  1.00  0.00     0.011 C 
BRANCH   2   3
HETATM    3  C   LIG     1      17.301  36.147  24.902  1.00  0.00     0.085 C 
HETATM    4 BR   LIG     1      18.097  34.996  26.242  1.00  0.00    -0.097 Br
ENDBRANCH   2   3
ENDBRANCH   1   2
BRANCH   1   5
HETATM    5  C   LIG     1      17.068  38.183  22.789  1.00  0.00    -0.000 C 
BRANCH   5   6
HETATM    6  C   LIG     1      17.826  38.080  21.455  1.00  0.00    -0.005 C 
HETATM    7  C   LIG     1      18.661  39.325  21.154  1.00  0.00     0.005 C 
ENDBRANCH   5   6
ENDBRANCH   1   5
TORSDOF 4
ENDMDL
MODEL 5
REMARK VINA RESULT:      -4.2      2.200      3.023
REMARK  4 active torsions:
REMARK  status: ('A' for Active; 'I' for Inactive)
REMARK    1  A    between atoms: C_2  and  C_3 
REMARK    2  A    between atoms: C_3  and  C_4 
REMARK    3  A    between atoms: C_4  and  C_5 
REMARK    4  A    between atoms: C_5  and  C_6 
ROOT
HETATM    1  C   LIG     1      17.345  37.984  21.837  1.00  0.00     0.001 C 
ENDROOT
BRANCH   1   2
HETATM    2  C   LIG     1      18.480  39.020  21.854  1.00  0.00     0.011 C 
BRANCH   2   3
HETATM    3  C   LIG     1      19.343  38.970  20.592  1.00  0.00     0.085 C 
HETATM    4 BR   LIG     1      19.005  37.328  19.621  1.00  0.00    -0.097 Br
ENDBRANCH   2   3
ENDBRANCH   1   2
BRANCH   1   5
HETATM    5  C   LIG     1      17.074  37.384  23.227  1.00  0.00    -0.000 C 
BRANCH   5   6
HETATM    6  C   LIG     1      17.809  38.137  24.347  1.00  0.00    -0.005 C 
HETATM    7  C   LIG     1      17.699  37.437  25.701  1.00  0.00     0.005 C 
ENDBRANCH   5   6
ENDBRANCH   1   5
TORSDOF 4
ENDMDL
MODEL 6
REMARK VINA RESULT:      -4.1      2.641      4.633
REMARK  4 active torsions:
REMARK  status: ('A' for Active; 'I' for Inactive)
REMARK    1  A    between atoms: C_2  and  C_3 
REMARK    2  A    between atoms: C_3  and  C_4 
REMARK    3  A    between atoms: C_4  and  C_5 
REMARK    4  A    between atoms: C_5  and  C_6 
ROOT
HETATM    1  C   LIG     1      17.447  37.304  21.536  1.00  0.00     0.001 C 
ENDROOT
BRANCH   1   2
HETATM    2  C   LIG     1      16.858  36.619  22.779  1.00  0.00     0.011 C 
BRANCH   2   3
HETATM    3  C   LIG     1      16.533  37.609  23.899  1.00  0.00     0.085 C 
HETATM    4 BR   LIG     1      17.757  37.361  25.380  1.00  0.00    -0.097 Br
ENDBRANCH   2   3
ENDBRANCH   1   2
BRANCH   1   5
HETATM    5  C   LIG     1      17.664  38.814  21.742  1.00  0.00    -0.000 C 
BRANCH   5   6
HETATM    6  C   LIG     1      18.971  39.312  21.106  1.00  0.00    -0.005 C 
HETATM    7  C   LIG     1      19.060  38.994  19.614  1.00  0.00     0.005 C 
ENDBRANCH   5   6
ENDBRANCH   1   5
TORSDOF 4
ENDMDL
MODEL 7
REMARK VINA RESULT:      -3.9      3.834      4.380
REMARK  4 active torsions:
REMARK  status: ('A' for Active; 'I' for Inactive)
REMARK    1  A    between atoms: C_2  and  C_3 
REMARK    2  A    between atoms: C_3  and  C_4 
REMARK    3  A    between atoms: C_4  and  C_5 
REMARK    4  A    between atoms: C_5  and  C_6 
ROOT
HETATM    1  C   LIG     1      17.093  37.294  21.939  1.00  0.00     0.001 C 
ENDROOT
BRANCH   1   2
HETATM    2  C   LIG     1      18.061  38.271  21.255  1.00  0.00     0.011 C 
BRANCH   2   3
HETATM    3  C   LIG     1      18.774  37.649  20.053  1.00  0.00     0.085 C 
HETATM    4 BR   LIG     1      20.211  38.805  19.461  1.00  0.00    -0.097 Br
ENDBRANCH   2   3
ENDBRANCH   1   2
BRANCH   1   5
HETATM    5  C   LIG     1      17.301  35.839  21.482  1.00  0.00    -0.000 C 
BRANCH   5   6
HETATM    6  C   LIG     1      16.069  34.959  21.742  1.00  0.00    -0.005 C 
HETATM    7  C   LIG     1      14.772  35.597  21.245  1.00  0.00     0.005 C 
ENDBRANCH   5   6
ENDBRANCH   1   5
TORSDOF 4
ENDMDL
MODEL 8
REMARK VINA RESULT:      -3.8      8.878     10.824
REMARK  4 active torsions:
REMARK  status: ('A' for Active; 'I' for Inactive)
REMARK    1  A    between atoms: C_2  and  C_3 
REMARK    2  A    between atoms: C_3  and  C_4 
REMARK    3  A    between atoms: C_4  and  C_5 
REMARK    4  A    between atoms: C_5  and  C_6 
ROOT
HETATM    1  C   LIG     1      13.923  30.937  15.906  1.00  0.00     0.001 C 
ENDROOT
BRANCH   1   2
HETATM    2  C   LIG     1      13.759  31.531  17.313  1.00  0.00     0.011 C 
BRANCH   2   3
HETATM    3  C   LIG     1      14.920  32.446  17.706  1.00  0.00     0.085 C 
HETATM    4 BR   LIG     1      15.339  32.219  19.583  1.00  0.00    -0.097 Br
ENDBRANCH   2   3
ENDBRANCH   1   2
BRANCH   1   5
HETATM    5  C   LIG     1      15.168  31.478  15.179  1.00  0.00    -0.000 C 
BRANCH   5   6
HETATM    6  C   LIG     1      15.438  30.748  13.853  1.00  0.00    -0.005 C 
HETATM    7  C   LIG     1      15.148  29.250  13.935  1.00  0.00     0.005 C 
ENDBRANCH   5   6
ENDBRANCH   1   5
TORSDOF 4
ENDMDL
MODEL 9
REMARK VINA RESULT:      -3.8      3.063      4.809
REMARK  4 active torsions:
REMARK  status: ('A' for Active; 'I' for Inactive)
REMARK    1  A    between atoms: C_2  and  C_3 
REMARK    2  A    between atoms: C_3  and  C_4 
REMARK    3  A    between atoms: C_4  and  C_5 
REMARK    4  A    between atoms: C_5  and  C_6 
ROOT
HETATM    1  C   LIG     1      17.189  35.870  21.281  1.00  0.00     0.001 C 
ENDROOT
BRANCH   1   2
HETATM    2  C   LIG     1      16.788  35.631  22.745  1.00  0.00     0.011 C 
BRANCH   2   3
HETATM    3  C   LIG     1      17.049  36.849  23.633  1.00  0.00     0.085 C 
HETATM    4 BR   LIG     1      16.873  38.477  22.597  1.00  0.00    -0.097 Br
ENDBRANCH   2   3
ENDBRANCH   1   2
BRANCH   1   5
HETATM    5  C   LIG     1      16.177  35.272  20.287  1.00  0.00    -0.000 C 
BRANCH   5   6
HETATM    6  C   LIG     1      15.477  34.021  20.842  1.00  0.00    -0.005 C 
HETATM    7  C   LIG     1      15.449  32.867  19.840  1.00  0.00     0.005 C 
ENDBRANCH   5   6
ENDBRANCH   1   5
TORSDOF 4
ENDMDL
MODEL 10
REMARK VINA RESULT:      -3.8      2.814      4.106
REMARK  4 active torsions:
REMARK  status: ('A' for Active; 'I' for Inactive)
REMARK    1  A    between atoms: C_2  and  C_3 
REMARK    2  A    between atoms: C_3  and  C_4 
REMARK    3  A    between atoms: C_4  and  C_5 
REMARK    4  A    between atoms: C_5  and  C_6 
ROOT
HETATM    1  C   LIG     1      17.174  36.775  21.784  1.00  0.00     0.001 C 
ENDROOT
BRANCH   1   2
HETATM    2  C   LIG     1      16.384  37.612  22.801  1.00  0.00     0.011 C 
BRANCH   2   3
HETATM    3  C   LIG     1      17.292  38.429  23.723  1.00  0.00     0.085 C 
HETATM    4 BR   LIG     1      17.637  37.445  25.356  1.00  0.00    -0.097 Br
ENDBRANCH   2   3
ENDBRANCH   1   2
BRANCH   1   5
HETATM    5  C   LIG     1      16.966  35.262  21.977  1.00  0.00    -0.000 C 
BRANCH   5   6
HETATM    6  C   LIG     1      16.128  34.636  20.851  1.00  0.00    -0.005 C 
HETATM    7  C   LIG     1      14.799  34.069  21.350  1.00  0.00     0.005 C 
ENDBRANCH   5   6
ENDBRANCH   1   5
TORSDOF 4
ENDMDL
MODEL 11
REMARK VINA RESULT:      -3.7      3.227      4.296
REMARK  4 active torsions:
REMARK  status: ('A' for Active; 'I' for Inactive)
REMARK    1  A    between atoms: C_2  and  C_3 
REMARK    2  A    between atoms: C_3  and  C_4 
REMARK    3  A    between atoms: C_4  and  C_5 
REMARK    4  A    between atoms: C_5  and  C_6 
ROOT
HETATM    1  C   LIG     1      16.493  35.178  21.072  1.00  0.00     0.001 C 
ENDROOT
BRANCH   1   2
HETATM    2  C   LIG     1      15.402  34.102  20.953  1.00  0.00     0.011 C 
BRANCH   2   3
HETATM    3  C   LIG     1      15.491  33.316  19.643  1.00  0.00     0.085 C 
HETATM    4 BR   LIG     1      14.897  31.493  19.921  1.00  0.00    -0.097 Br
ENDBRANCH   2   3
ENDBRANCH   1   2
BRANCH   1   5
HETATM    5  C   LIG     1      16.951  35.394  22.525  1.00  0.00    -0.000 C 
BRANCH   5   6
HETATM    6  C   LIG     1      16.815  36.858  22.973  1.00  0.00    -0.005 C 
HETATM    7  C   LIG     1      17.141  37.056  24.453  1.00  0.00     0.005 C 
ENDBRANCH   5   6
ENDBRANCH   1   5
TORSDOF 4
ENDMDL
MODEL 12
REMARK VINA RESULT:      -3.7      8.126      9.372
REMARK  4 active torsions:
REMARK  status: ('A' for Active; 'I' for Inactive)
REMARK    1  A    between atoms: C_2  and  C_3 
REMARK    2  A    between atoms: C_3  and  C_4 
REMARK    3  A    between atoms: C_4  and  C_5 
REMARK    4  A    between atoms: C_5  and  C_6 
ROOT
HETATM    1  C   LIG     1      15.333  33.079  16.423  1.00  0.00     0.001 C 
ENDROOT
BRANCH   1   2
HETATM    2  C   LIG     1      16.381  32.313  15.602  1.00  0.00     0.011 C 
BRANCH   2   3
HETATM    3  C   LIG     1      15.911  32.016  14.177  1.00  0.00     0.085 C 
HETATM    4 BR   LIG     1      15.097  30.260  14.098  1.00  0.00    -0.097 Br
ENDBRANCH   2   3
ENDBRANCH   1   2
BRANCH   1   5
HETATM    5  C   LIG     1      14.663  32.200  17.494  1.00  0.00    -0.000 C 
BRANCH   5   6
HETATM    6  C   LIG     1      15.214  32.467  18.903  1.00  0.00    -0.005 C 
HETATM    7  C   LIG     1      14.852  31.364  19.898  1.00  0.00     0.005 C 
ENDBRANCH   5   6
ENDBRANCH   1   5
TORSDOF 4
ENDMDL
MODEL 13
REMARK VINA RESULT:      -3.6     10.255     11.509
REMARK  4 active torsions:
REMARK  status: ('A' for Active; 'I' for Inactive)
REMARK    1  A    between atoms: C_2  and  C_3 
REMARK    2  A    between atoms: C_3  and  C_4 
REMARK    3  A    between atoms: C_4  and  C_5 
REMARK    4  A    between atoms: C_5  and  C_6 
ROOT
HETATM    1  C   LIG     1      14.391  29.818  14.217  1.00  0.00     0.001 C 
ENDROOT
BRANCH   1   2
HETATM    2  C   LIG     1      15.648  30.587  14.649  1.00  0.00     0.011 C 
BRANCH   2   3
HETATM    3  C   LIG     1      15.905  31.826  13.789  1.00  0.00     0.085 C 
HETATM    4 BR   LIG     1      17.073  33.054  14.726  1.00  0.00    -0.097 Br
ENDBRANCH   2   3
ENDBRANCH   1   2
BRANCH   1   5
HETATM    5  C   LIG     1      13.152  30.197  15.048  1.00  0.00    -0.000 C 
BRANCH   5   6
HETATM    6  C   LIG     1      13.519  30.721  16.446  1.00  0.00    -0.005 C 
HETATM    7  C   LIG     1      12.844  32.052  16.773  1.00  0.00     0.005 C 
ENDBRANCH   5   6
ENDBRANCH   1   5
TORSDOF 4
ENDMDL
MODEL 14
REMARK VINA RESULT:      -3.6      2.738      3.951
REMARK  4 active torsions:
REMARK  status: ('A' for Active; 'I' for Inactive)
REMARK    1  A    between atoms: C_2  and  C_3 
REMARK    2  A    between atoms: C_3  and  C_4 
REMARK    3  A    between atoms: C_4  and  C_5 
REMARK    4  A    between atoms: C_5  and  C_6 
ROOT
HETATM    1  C   LIG     1      16.630  36.587  22.838  1.00  0.00     0.001 C 
ENDROOT
BRANCH   1   2
HETATM    2  C   LIG     1      17.191  35.553  21.850  1.00  0.00     0.011 C 
BRANCH   2   3
HETATM    3  C   LIG     1      16.390  35.487  20.548  1.00  0.00     0.085 C 
HETATM    4 BR   LIG     1      15.569  33.743  20.361  1.00  0.00    -0.097 Br
ENDBRANCH   2   3
ENDBRANCH   1   2
BRANCH   1   5
HETATM    5  C   LIG     1      17.543  37.817  22.987  1.00  0.00    -0.000 C 
BRANCH   5   6
HETATM    6  C   LIG     1      17.387  38.810  21.824  1.00  0.00    -0.005 C 
HETATM    7  C   LIG     1      18.656  38.936  20.981  1.00  0.00     0.005 C 
ENDBRANCH   5   6
ENDBRANCH   1   5
TORSDOF 4
ENDMDL
MODEL 15
REMARK VINA RESULT:      -3.6      8.477     10.171
REMARK  4 active torsions:
REMARK  status: ('A' for Active; 'I' for Inactive)
REMARK    1  A    between atoms: C_2  and  C_3 
REMARK    2  A    between atoms: C_3  and  C_4 
REMARK    3  A    between atoms: C_4  and  C_5 
REMARK    4  A    between atoms: C_5  and  C_6 
ROOT
HETATM    1  C   LIG     1      14.066  31.604  17.905  1.00  0.00     0.001 C 
ENDROOT
BRANCH   1   2
HETATM    2  C   LIG     1      15.234  32.599  17.835  1.00  0.00     0.011 C 
BRANCH   2   3
HETATM    3  C   LIG     1      15.218  33.437  16.555  1.00  0.00     0.085 C 
HETATM    4 BR   LIG     1      16.594  32.819  15.339  1.00  0.00    -0.097 Br
ENDBRANCH   2   3
ENDBRANCH   1   2
BRANCH   1   5
HETATM    5  C   LIG     1      13.088  31.757  16.726  1.00  0.00    -0.000 C 
BRANCH   5   6
HETATM    6  C   LIG     1      12.929  30.457  15.922  1.00  0.00    -0.005 C 
HETATM    7  C   LIG     1      14.032  30.267  14.881  1.00  0.00     0.005 C 
ENDBRANCH   5   6
ENDBRANCH   1   5
TORSDOF 4
ENDMDL
MODEL 16
REMARK VINA RESULT:      -3.6      6.031      7.930
REMARK  4 active torsions:
REMARK  status: ('A' for Active; 'I' for Inactive)
REMARK    1  A    between atoms: C_2  and  C_3 
REMARK    2  A    between atoms: C_3  and  C_4 
REMARK    3  A    between atoms: C_4  and  C_5 
REMARK    4  A    between atoms: C_5  and  C_6 
ROOT
HETATM    1  C   LIG     1      15.445  32.138  19.456  1.00  0.00     0.001 C 
ENDROOT
BRANCH   1   2
HETATM    2  C   LIG     1      15.114  33.215  20.500  1.00  0.00     0.011 C 
BRANCH   2   3
HETATM    3  C   LIG     1      15.813  34.546  20.217  1.00  0.00     0.085 C 
HETATM    4 BR   LIG     1      16.686  35.192  21.820  1.00  0.00    -0.097 Br
ENDBRANCH   2   3
ENDBRANCH   1   2
BRANCH   1   5
HETATM    5  C   LIG     1      15.093  32.578  18.023  1.00  0.00    -0.000 C 
BRANCH   5   6
HETATM    6  C   LIG     1      13.892  31.810  17.450  1.00  0.00    -0.005 C 
HETATM    7  C   LIG     1      14.184  31.192  16.083  1.00  0.00     0.005 C 
ENDBRANCH   5   6
ENDBRANCH   1   5
TORSDOF 4
ENDMDL
MODEL 17
REMARK VINA RESULT:      -3.3     11.984     12.619
REMARK  4 active torsions:
REMARK  status: ('A' for Active; 'I' for Inactive)
REMARK    1  A    between atoms: C_2  and  C_3 
REMARK    2  A    between atoms: C_3  and  C_4 
REMARK    3  A    between atoms: C_4  and  C_5 
REMARK    4  A    between atoms: C_5  and  C_6 
ROOT
HETATM    1  C   LIG     1      28.050  39.492  19.620  1.00  0.00     0.001 C 
ENDROOT
BRANCH   1   2
HETATM    2  C   LIG     1      29.467  40.074  19.731  1.00  0.00     0.011 C 
BRANCH   2   3
HETATM    3  C   LIG     1      30.425  39.152  20.488  1.00  0.00     0.085 C 
HETATM    4 BR   LIG     1      30.177  39.358  22.397  1.00  0.00    -0.097 Br
ENDBRANCH   2   3
ENDBRANCH   1   2
BRANCH   1   5
HETATM    5  C   LIG     1      28.051  37.959  19.474  1.00  0.00    -0.000 C 
BRANCH   5   6
HETATM    6  C   LIG     1      26.678  37.407  19.060  1.00  0.00    -0.005 C 
HETATM    7  C   LIG     1      26.129  38.073  17.799  1.00  0.00     0.005 C 
ENDBRANCH   5   6
ENDBRANCH   1   5
TORSDOF 4
ENDMDL
MODEL 18
REMARK VINA RESULT:      -3.1     12.710     13.226
REMARK  4 active torsions:
REMARK  status: ('A' for Active; 'I' for Inactive)
REMARK    1  A    between atoms: C_2  and  C_3 
REMARK    2  A    between atoms: C_3  and  C_4 
REMARK    3  A    between atoms: C_4  and  C_5 
REMARK    4  A    between atoms: C_5  and  C_6 
ROOT
HETATM    1  C   LIG     1      28.459  40.107  19.240  1.00  0.00     0.001 C 
ENDROOT
BRANCH   1   2
HETATM    2  C   LIG     1      29.913  40.532  18.983  1.00  0.00     0.011 C 
BRANCH   2   3
HETATM    3  C   LIG     1      30.264  40.559  17.494  1.00  0.00     0.085 C 
HETATM    4 BR   LIG     1      30.398  38.752  16.810  1.00  0.00    -0.097 Br
ENDBRANCH   2   3
ENDBRANCH   1   2
BRANCH   1   5
HETATM    5  C   LIG     1      28.359  38.863  20.141  1.00  0.00    -0.000 C 
BRANCH   5   6
HETATM    6  C   LIG     1      27.699  37.672  19.428  1.00  0.00    -0.005 C 
HETATM    7  C   LIG     1      26.872  38.096  18.214  1.00  0.00     0.005 C 
ENDBRANCH   5   6
ENDBRANCH   1   5
TORSDOF 4
ENDMDL
MODEL 19
REMARK VINA RESULT:      -2.9     15.385     16.119
REMARK  4 active torsions:
REMARK  status: ('A' for Active; 'I' for Inactive)
REMARK    1  A    between atoms: C_2  and  C_3 
REMARK    2  A    between atoms: C_3  and  C_4 
REMARK    3  A    between atoms: C_4  and  C_5 
REMARK    4  A    between atoms: C_5  and  C_6 
ROOT
HETATM    1  C   LIG     1      26.053  30.891  35.714  1.00  0.00     0.001 C 
ENDROOT
BRANCH   1   2
HETATM    2  C   LIG     1      26.203  29.643  34.831  1.00  0.00     0.011 C 
BRANCH   2   3
HETATM    3  C   LIG     1      27.604  29.509  34.232  1.00  0.00     0.085 C 
HETATM    4 BR   LIG     1      28.335  31.263  33.855  1.00  0.00    -0.097 Br
ENDBRANCH   2   3
ENDBRANCH   1   2
BRANCH   1   5
HETATM    5  C   LIG     1      25.852  30.543  37.199  1.00  0.00    -0.000 C 
BRANCH   5   6
HETATM    6  C   LIG     1      26.184  31.721  38.129  1.00  0.00    -0.005 C 
HETATM    7  C   LIG     1      27.593  32.271  37.905  1.00  0.00     0.005 C 
ENDBRANCH   5   6
ENDBRANCH   1   5
TORSDOF 4
ENDMDL
MODEL 20
REMARK VINA RESULT:      -2.9     12.515     13.148
REMARK  4 active torsions:
REMARK  status: ('A' for Active; 'I' for Inactive)
REMARK    1  A    between atoms: C_2  and  C_3 
REMARK    2  A    between atoms: C_3  and  C_4 
REMARK    3  A    between atoms: C_4  and  C_5 
REMARK    4  A    between atoms: C_5  and  C_6 
ROOT
HETATM    1  C   LIG     1      29.094  38.145  20.180  1.00  0.00     0.001 C 
ENDROOT
BRANCH   1   2
HETATM    2  C   LIG     1      29.915  38.979  19.184  1.00  0.00     0.011 C 
BRANCH   2   3
HETATM    3  C   LIG     1      30.408  40.297  19.785  1.00  0.00     0.085 C 
HETATM    4 BR   LIG     1      30.163  41.739  18.516  1.00  0.00    -0.097 Br
ENDBRANCH   2   3
ENDBRANCH   1   2
BRANCH   1   5
HETATM    5  C   LIG     1      27.771  37.641  19.577  1.00  0.00    -0.000 C 
BRANCH   5   6
HETATM    6  C   LIG     1      27.484  38.251  18.197  1.00  0.00    -0.005 C 
HETATM    7  C   LIG     1      26.022  38.098  17.776  1.00  0.00     0.005 C 
ENDBRANCH   5   6
ENDBRANCH   1   5
TORSDOF 4
ENDMDL
