MODEL 1
REMARK VINA RESULT:      -5.3      0.000      0.000
REMARK  5 active torsions:
REMARK  status: ('A' for Active; 'I' for Inactive)
REMARK    1  A    between atoms: C_2  and  C_3 
REMARK    2  A    between atoms: C_3  and  C_4 
REMARK    3  A    between atoms: C_4  and  C_5 
REMARK    4  A    between atoms: C_5  and  C_6 
REMARK    5  A    between atoms: C_6  and  C_7 
ROOT
HETATM    1  C   LIG     1      17.487  38.221  24.065  1.00  0.00     0.000 C 
ENDROOT
BRANCH   1   2
HETATM    2  C   LIG     1      16.439  37.487  23.215  1.00  0.00    -0.000 C 
BRANCH   2   3
HETATM    3  C   LIG     1      17.061  36.748  22.020  1.00  0.00    -0.005 C 
HETATM    4  C   LIG     1      16.954  35.228  22.145  1.00  0.00     0.005 C 
ENDBRANCH   2   3
ENDBRANCH   1   2
BRANCH   1   5
HETATM    5  C   LIG     1      17.373  37.820  25.544  1.00  0.00     0.004 C 
BRANCH   5   6
HETATM    6  C   LIG     1      18.597  37.031  26.023  1.00  0.00     0.026 C 
BRANCH   6   7
HETATM    7  C   LIG     1      18.208  35.664  26.523  1.00  0.00    -0.037 C 
HETATM    8  C   LIG     1      17.453  34.834  25.798  1.00  0.00     0.007 C 
ENDBRANCH   6   7
ENDBRANCH   5   6
ENDBRANCH   1   5
TORSDOF 5
ENDMDL
MODEL 2
REMARK VINA RESULT:      -5.2      0.176      3.613
REMARK  5 active torsions:
REMARK  status: ('A' for Active; 'I' for Inactive)
REMARK    1  A    between atoms: C_2  and  C_3 
REMARK    2  A    between atoms: C_3  and  C_4 
REMARK    3  A    between atoms: C_4  and  C_5 
REMARK    4  A    between atoms: C_5  and  C_6 
REMARK    5  A    between atoms: C_6  and  C_7 
ROOT
HETATM    1  C   LIG     1      17.374  37.854  25.356  1.00  0.00     0.000 C 
ENDROOT
BRANCH   1   2
HETATM    2  C   LIG     1      18.614  37.088  25.839  1.00  0.00    -0.000 C 
BRANCH   2   3
HETATM    3  C   LIG     1      18.254  35.826  26.639  1.00  0.00    -0.005 C 
HETATM    4  C   LIG     1      17.430  34.827  25.826  1.00  0.00     0.005 C 
ENDBRANCH   2   3
ENDBRANCH   1   2
BRANCH   1   5
HETATM    5  C   LIG     1      17.478  38.180  23.857  1.00  0.00     0.004 C 
BRANCH   5   6
HETATM    6  C   LIG     1      16.393  37.473  23.037  1.00  0.00     0.026 C 
BRANCH   6   7
HETATM    7  C   LIG     1      16.994  36.568  21.993  1.00  0.00    -0.037 C 
HETATM    8  C   LIG     1      17.065  35.245  22.160  1.00  0.00     0.007 C 
ENDBRANCH   6   7
ENDBRANCH   5   6
ENDBRANCH   1   5
TORSDOF 5
ENDMDL
MODEL 3
REMARK VINA RESULT:      -5.2      1.102      1.599
REMARK  5 active torsions:
REMARK  status: ('A' for Active; 'I' for Inactive)
REMARK    1  A    between atoms: C_2  and  C_3 
REMARK    2  A    between atoms: C_3  and  C_4 
REMARK    3  A    between atoms: C_4  and  C_5 
REMARK    4  A    between atoms: C_5  and  C_6 
REMARK    5  A    between atoms: C_6  and  C_7 
ROOT
HETATM    1  C   LIG     1      17.780  38.265  24.232  1.00  0.00     0.000 C 
ENDROOT
BRANCH   1   2
HETATM    2  C   LIG     1      17.084  37.500  23.096  1.00  0.00    -0.000 C 
BRANCH   2   3
HETATM    3  C   LIG     1      17.552  37.954  21.705  1.00  0.00    -0.005 C 
HETATM    4  C   LIG     1      18.498  39.154  21.763  1.00  0.00     0.005 C 
ENDBRANCH   2   3
ENDBRANCH   1   2
BRANCH   1   5
HETATM    5  C   LIG     1      17.435  37.653  25.598  1.00  0.00     0.004 C 
BRANCH   5   6
HETATM    6  C   LIG     1      18.621  36.894  26.206  1.00  0.00     0.026 C 
BRANCH   6   7
HETATM    7  C   LIG     1      18.289  35.442  26.428  1.00  0.00    -0.037 C 
HETATM    8  C   LIG     1      17.371  34.806  25.695  1.00  0.00     0.007 C 
ENDBRANCH   6   7
ENDBRANCH   5   6
ENDBRANCH   1   5
TORSDOF 5
ENDMDL
MODEL 4
REMARK VINA RESULT:      -5.0      1.634      4.324
REMARK  5 active torsions:
REMARK  status: ('A' for Active; 'I' for Inactive)
REMARK    1  A    between atoms: C_2  and  C_3 
REMARK    2  A    between atoms: C_3  and  C_4 
REMARK    3  A    between atoms: C_4  and  C_5 
REMARK    4  A    between atoms: C_5  and  C_6 
REMARK    5  A    between atoms: C_6  and  C_7 
ROOT
HETATM    1  C   LIG     1      16.902  37.472  24.697  1.00  0.00     0.000 C 
ENDROOT
BRANCH   1   2
HETATM    2  C   LIG     1      18.255  37.357  25.415  1.00  0.00    -0.000 C 
BRANCH   2   3
HETATM    3  C   LIG     1      18.262  36.258  26.488  1.00  0.00    -0.005 C 
HETATM    4  C   LIG     1      17.629  34.954  26.002  1.00  0.00     0.005 C 
ENDBRANCH   2   3
ENDBRANCH   1   2
BRANCH   1   5
HETATM    5  C   LIG     1      17.080  37.386  23.173  1.00  0.00     0.004 C 
BRANCH   5   6
HETATM    6  C   LIG     1      17.017  38.766  22.506  1.00  0.00     0.026 C 
BRANCH   6   7
HETATM    7  C   LIG     1      18.375  39.208  22.029  1.00  0.00    -0.037 C 
HETATM    8  C   LIG     1      18.699  39.226  20.733  1.00  0.00     0.007 C 
ENDBRANCH   6   7
ENDBRANCH   5   6
ENDBRANCH   1   5
TORSDOF 5
ENDMDL
MODEL 5
REMARK VINA RESULT:      -4.9      2.601      3.837
REMARK  5 active torsions:
REMARK  status: ('A' for Active; 'I' for Inactive)
REMARK    1  A    between atoms: C_2  and  C_3 
REMARK    2  A    between atoms: C_3  and  C_4 
REMARK    3  A    between atoms: C_4  and  C_5 
REMARK    4  A    between atoms: C_5  and  C_6 
REMARK    5  A    between atoms: C_6  and  C_7 
ROOT
HETATM    1  C   LIG     1      18.677  39.007  21.838  1.00  0.00     0.000 C 
ENDROOT
BRANCH   1   2
HETATM    2  C   LIG     1      18.830  39.345  20.347  1.00  0.00    -0.000 C 
BRANCH   2   3
HETATM    3  C   LIG     1      19.769  38.375  19.614  1.00  0.00    -0.005 C 
HETATM    4  C   LIG     1      19.187  36.966  19.498  1.00  0.00     0.005 C 
ENDBRANCH   2   3
ENDBRANCH   1   2
BRANCH   1   5
HETATM    5  C   LIG     1      17.196  38.873  22.222  1.00  0.00     0.004 C 
BRANCH   5   6
HETATM    6  C   LIG     1      16.907  37.558  22.956  1.00  0.00     0.026 C 
BRANCH   6   7
HETATM    7  C   LIG     1      16.533  36.462  21.993  1.00  0.00    -0.037 C 
HETATM    8  C   LIG     1      17.014  35.222  22.112  1.00  0.00     0.007 C 
ENDBRANCH   6   7
ENDBRANCH   5   6
ENDBRANCH   1   5
TORSDOF 5
ENDMDL
MODEL 6
REMARK VINA RESULT:      -4.8      2.599      4.541
REMARK  5 active torsions:
REMARK  status: ('A' for Active; 'I' for Inactive)
REMARK    1  A    between atoms: C_2  and  C_3 
REMARK    2  A    between atoms: C_3  and  C_4 
REMARK    3  A    between atoms: C_4  and  C_5 
REMARK    4  A    between atoms: C_5  and  C_6 
REMARK    5  A    between atoms: C_6  and  C_7 
ROOT
HETATM    1  C   LIG     1      17.282  38.943  22.226  1.00  0.00     0.000 C 
ENDROOT
BRANCH   1   2
HETATM    2  C   LIG     1      17.111  37.567  22.886  1.00  0.00    -0.000 C 
BRANCH   2   3
HETATM    3  C   LIG     1      16.447  36.542  21.952  1.00  0.00    -0.005 C 
HETATM    4  C   LIG     1      16.972  35.122  22.166  1.00  0.00     0.005 C 
ENDBRANCH   2   3
ENDBRANCH   1   2
BRANCH   1   5
HETATM    5  C   LIG     1      18.728  39.146  21.747  1.00  0.00     0.004 C 
BRANCH   5   6
HETATM    6  C   LIG     1      18.814  39.293  20.223  1.00  0.00     0.026 C 
BRANCH   6   7
HETATM    7  C   LIG     1      19.633  38.189  19.609  1.00  0.00    -0.037 C 
HETATM    8  C   LIG     1      19.171  36.940  19.504  1.00  0.00     0.007 C 
ENDBRANCH   6   7
ENDBRANCH   5   6
ENDBRANCH   1   5
TORSDOF 5
ENDMDL
MODEL 7
REMARK VINA RESULT:      -4.6      2.415      4.019
REMARK  5 active torsions:
REMARK  status: ('A' for Active; 'I' for Inactive)
REMARK    1  A    between atoms: C_2  and  C_3 
REMARK    2  A    between atoms: C_3  and  C_4 
REMARK    3  A    between atoms: C_4  and  C_5 
REMARK    4  A    between atoms: C_5  and  C_6 
REMARK    5  A    between atoms: C_6  and  C_7 
ROOT
HETATM    1  C   LIG     1      15.966  37.644  22.829  1.00  0.00     0.000 C 
ENDROOT
BRANCH   1   2
HETATM    2  C   LIG     1      16.988  36.563  23.210  1.00  0.00    -0.000 C 
BRANCH   2   3
HETATM    3  C   LIG     1      16.837  35.285  22.370  1.00  0.00    -0.005 C 
HETATM    4  C   LIG     1      16.835  35.563  20.867  1.00  0.00     0.005 C 
ENDBRANCH   2   3
ENDBRANCH   1   2
BRANCH   1   5
HETATM    5  C   LIG     1      16.665  38.975  22.515  1.00  0.00     0.004 C 
BRANCH   5   6
HETATM    6  C   LIG     1      18.184  38.812  22.385  1.00  0.00     0.026 C 
BRANCH   6   7
HETATM    7  C   LIG     1      18.681  39.326  21.060  1.00  0.00    -0.037 C 
HETATM    8  C   LIG     1      19.023  38.502  20.065  1.00  0.00     0.007 C 
ENDBRANCH   6   7
ENDBRANCH   5   6
ENDBRANCH   1   5
TORSDOF 5
ENDMDL
MODEL 8
REMARK VINA RESULT:      -4.6      0.989      3.894
REMARK  5 active torsions:
REMARK  status: ('A' for Active; 'I' for Inactive)
REMARK    1  A    between atoms: C_2  and  C_3 
REMARK    2  A    between atoms: C_3  and  C_4 
REMARK    3  A    between atoms: C_4  and  C_5 
REMARK    4  A    between atoms: C_5  and  C_6 
REMARK    5  A    between atoms: C_6  and  C_7 
ROOT
HETATM    1  C   LIG     1      16.413  37.610  23.401  1.00  0.00     0.000 C 
ENDROOT
BRANCH   1   2
HETATM    2  C   LIG     1      17.081  37.714  24.780  1.00  0.00    -0.000 C 
BRANCH   2   3
HETATM    3  C   LIG     1      17.494  36.344  25.341  1.00  0.00    -0.005 C 
HETATM    4  C   LIG     1      18.462  36.457  26.519  1.00  0.00     0.005 C 
ENDBRANCH   2   3
ENDBRANCH   1   2
BRANCH   1   5
HETATM    5  C   LIG     1      17.427  37.875  22.278  1.00  0.00     0.004 C 
BRANCH   5   6
HETATM    6  C   LIG     1      17.418  36.766  21.218  1.00  0.00     0.026 C 
BRANCH   6   7
HETATM    7  C   LIG     1      16.994  35.447  21.807  1.00  0.00    -0.037 C 
HETATM    8  C   LIG     1      16.153  34.626  21.172  1.00  0.00     0.007 C 
ENDBRANCH   6   7
ENDBRANCH   5   6
ENDBRANCH   1   5
TORSDOF 5
ENDMDL
MODEL 9
REMARK VINA RESULT:      -4.6      1.865      2.711
REMARK  5 active torsions:
REMARK  status: ('A' for Active; 'I' for Inactive)
REMARK    1  A    between atoms: C_2  and  C_3 
REMARK    2  A    between atoms: C_3  and  C_4 
REMARK    3  A    between atoms: C_4  and  C_5 
REMARK    4  A    between atoms: C_5  and  C_6 
REMARK    5  A    between atoms: C_6  and  C_7 
ROOT
HETATM    1  C   LIG     1      17.273  37.358  21.971  1.00  0.00     0.000 C 
ENDROOT
BRANCH   1   2
HETATM    2  C   LIG     1      17.977  38.717  22.103  1.00  0.00    -0.000 C 
BRANCH   2   3
HETATM    3  C   LIG     1      18.909  39.017  20.919  1.00  0.00    -0.005 C 
HETATM    4  C   LIG     1      19.009  37.850  19.936  1.00  0.00     0.005 C 
ENDBRANCH   2   3
ENDBRANCH   1   2
BRANCH   1   5
HETATM    5  C   LIG     1      16.845  36.826  23.347  1.00  0.00     0.004 C 
BRANCH   5   6
HETATM    6  C   LIG     1      17.076  35.316  23.479  1.00  0.00     0.026 C 
BRANCH   6   7
HETATM    7  C   LIG     1      17.365  34.926  24.904  1.00  0.00    -0.037 C 
HETATM    8  C   LIG     1      17.812  35.807  25.802  1.00  0.00     0.007 C 
ENDBRANCH   6   7
ENDBRANCH   5   6
ENDBRANCH   1   5
TORSDOF 5
ENDMDL
MODEL 10
REMARK VINA RESULT:      -4.4      2.420      4.962
REMARK  5 active torsions:
REMARK  status: ('A' for Active; 'I' for Inactive)
REMARK    1  A    between atoms: C_2  and  C_3 
REMARK    2  A    between atoms: C_3  and  C_4 
REMARK    3  A    between atoms: C_4  and  C_5 
REMARK    4  A    between atoms: C_5  and  C_6 
REMARK    5  A    between atoms: C_6  and  C_7 
ROOT
HETATM    1  C   LIG     1      17.472  38.532  21.915  1.00  0.00     0.000 C 
ENDROOT
BRANCH   1   2
HETATM    2  C   LIG     1      17.799  38.467  23.414  1.00  0.00    -0.000 C 
BRANCH   2   3
HETATM    3  C   LIG     1      16.779  37.634  24.205  1.00  0.00    -0.005 C 
HETATM    4  C   LIG     1      17.440  36.676  25.197  1.00  0.00     0.005 C 
ENDBRANCH   2   3
ENDBRANCH   1   2
BRANCH   1   5
HETATM    5  C   LIG     1      17.585  37.144  21.267  1.00  0.00     0.004 C 
BRANCH   5   6
HETATM    6  C   LIG     1      18.579  37.132  20.099  1.00  0.00     0.026 C 
BRANCH   6   7
HETATM    7  C   LIG     1      19.059  38.521  19.771  1.00  0.00    -0.037 C 
HETATM    8  C   LIG     1      20.338  38.778  19.484  1.00  0.00     0.007 C 
ENDBRANCH   6   7
ENDBRANCH   5   6
ENDBRANCH   1   5
TORSDOF 5
ENDMDL
MODEL 11
REMARK VINA RESULT:      -4.3      2.211      3.750
REMARK  5 active torsions:
REMARK  status: ('A' for Active; 'I' for Inactive)
REMARK    1  A    between atoms: C_2  and  C_3 
REMARK    2  A    between atoms: C_3  and  C_4 
REMARK    3  A    between atoms: C_4  and  C_5 
REMARK    4  A    between atoms: C_5  and  C_6 
REMARK    5  A    between atoms: C_6  and  C_7 
ROOT
HETATM    1  C   LIG     1      17.364  36.204  20.801  1.00  0.00     0.000 C 
ENDROOT
BRANCH   1   2
HETATM    2  C   LIG     1      18.177  37.504  20.718  1.00  0.00    -0.000 C 
BRANCH   2   3
HETATM    3  C   LIG     1      19.215  37.481  19.586  1.00  0.00    -0.005 C 
HETATM    4  C   LIG     1      20.110  38.720  19.580  1.00  0.00     0.005 C 
ENDBRANCH   2   3
ENDBRANCH   1   2
BRANCH   1   5
HETATM    5  C   LIG     1      16.374  36.248  21.975  1.00  0.00     0.004 C 
BRANCH   5   6
HETATM    6  C   LIG     1      17.089  36.348  23.328  1.00  0.00     0.026 C 
BRANCH   6   7
HETATM    7  C   LIG     1      16.642  37.563  24.098  1.00  0.00    -0.037 C 
HETATM    8  C   LIG     1      17.315  38.016  25.159  1.00  0.00     0.007 C 
ENDBRANCH   6   7
ENDBRANCH   5   6
ENDBRANCH   1   5
TORSDOF 5
ENDMDL
MODEL 12
REMARK VINA RESULT:      -4.3      2.529      4.868
REMARK  5 active torsions:
REMARK  status: ('A' for Active; 'I' for Inactive)
REMARK    1  A    between atoms: C_2  and  C_3 
REMARK    2  A    between atoms: C_3  and  C_4 
REMARK    3  A    between atoms: C_4  and  C_5 
REMARK    4  A    between atoms: C_5  and  C_6 
REMARK    5  A    between atoms: C_6  and  C_7 
ROOT
HETATM    1  C   LIG     1      18.675  39.305  20.323  1.00  0.00     0.000 C 
ENDROOT
BRANCH   1   2
HETATM    2  C   LIG     1      18.678  39.389  21.857  1.00  0.00    -0.000 C 
BRANCH   2   3
HETATM    3  C   LIG     1      17.291  39.128  22.465  1.00  0.00    -0.005 C 
HETATM    4  C   LIG     1      17.331  38.124  23.617  1.00  0.00     0.005 C 
ENDBRANCH   2   3
ENDBRANCH   1   2
BRANCH   1   5
HETATM    5  C   LIG     1      19.477  38.088  19.838  1.00  0.00     0.004 C 
BRANCH   5   6
HETATM    6  C   LIG     1      18.566  36.944  19.377  1.00  0.00     0.026 C 
BRANCH   6   7
HETATM    7  C   LIG     1      18.010  36.177  20.548  1.00  0.00    -0.037 C 
HETATM    8  C   LIG     1      16.753  35.726  20.565  1.00  0.00     0.007 C 
ENDBRANCH   6   7
ENDBRANCH   5   6
ENDBRANCH   1   5
TORSDOF 5
ENDMDL
MODEL 13
REMARK VINA RESULT:      -4.3      2.934      4.455
REMARK  5 active torsions:
REMARK  status: ('A' for Active; 'I' for Inactive)
REMARK    1  A    between atoms: C_2  and  C_3 
REMARK    2  A    between atoms: C_3  and  C_4 
REMARK    3  A    between atoms: C_4  and  C_5 
REMARK    4  A    between atoms: C_5  and  C_6 
REMARK    5  A    between atoms: C_6  and  C_7 
ROOT
HETATM    1  C   LIG     1      17.424  37.577  22.315  1.00  0.00     0.000 C 
ENDROOT
BRANCH   1   2
HETATM    2  C   LIG     1      17.686  38.908  21.595  1.00  0.00    -0.000 C 
BRANCH   2   3
HETATM    3  C   LIG     1      19.158  39.078  21.186  1.00  0.00    -0.005 C 
HETATM    4  C   LIG     1      19.361  39.011  19.672  1.00  0.00     0.005 C 
ENDBRANCH   2   3
ENDBRANCH   1   2
BRANCH   1   5
HETATM    5  C   LIG     1      17.213  36.438  21.305  1.00  0.00     0.004 C 
BRANCH   5   6
HETATM    6  C   LIG     1      16.799  35.130  21.990  1.00  0.00     0.026 C 
BRANCH   6   7
HETATM    7  C   LIG     1      15.565  34.545  21.356  1.00  0.00    -0.037 C 
HETATM    8  C   LIG     1      15.632  33.682  20.339  1.00  0.00     0.007 C 
ENDBRANCH   6   7
ENDBRANCH   5   6
ENDBRANCH   1   5
TORSDOF 5
ENDMDL
MODEL 14
REMARK VINA RESULT:      -4.2      3.191      4.564
REMARK  5 active torsions:
REMARK  status: ('A' for Active; 'I' for Inactive)
REMARK    1  A    between atoms: C_2  and  C_3 
REMARK    2  A    between atoms: C_3  and  C_4 
REMARK    3  A    between atoms: C_4  and  C_5 
REMARK    4  A    between atoms: C_5  and  C_6 
REMARK    5  A    between atoms: C_6  and  C_7 
ROOT
HETATM    1  C   LIG     1      16.802  35.905  21.973  1.00  0.00     0.000 C 
ENDROOT
BRANCH   1   2
HETATM    2  C   LIG     1      15.464  35.693  21.250  1.00  0.00    -0.000 C 
BRANCH   2   3
HETATM    3  C   LIG     1      15.613  34.871  19.961  1.00  0.00    -0.005 C 
HETATM    4  C   LIG     1      15.571  33.364  20.214  1.00  0.00     0.005 C 
ENDBRANCH   2   3
ENDBRANCH   1   2
BRANCH   1   5
HETATM    5  C   LIG     1      17.631  37.001  21.286  1.00  0.00     0.004 C 
BRANCH   5   6
HETATM    6  C   LIG     1      17.422  38.374  21.934  1.00  0.00     0.026 C 
BRANCH   6   7
HETATM    7  C   LIG     1      18.536  39.324  21.582  1.00  0.00    -0.037 C 
HETATM    8  C   LIG     1      19.072  39.364  20.359  1.00  0.00     0.007 C 
ENDBRANCH   6   7
ENDBRANCH   5   6
ENDBRANCH   1   5
TORSDOF 5
ENDMDL
MODEL 15
REMARK VINA RESULT:      -4.2      7.668     10.166
REMARK  5 active torsions:
REMARK  status: ('A' for Active; 'I' for Inactive)
REMARK    1  A    between atoms: C_2  and  C_3 
REMARK    2  A    between atoms: C_3  and  C_4 
REMARK    3  A    between atoms: C_4  and  C_5 
REMARK    4  A    between atoms: C_5  and  C_6 
REMARK    5  A    between atoms: C_6  and  C_7 
ROOT
HETATM    1  C   LIG     1      13.630  31.065  16.421  1.00  0.00     0.000 C 
ENDROOT
BRANCH   1   2
HETATM    2  C   LIG     1      13.430  30.203  15.166  1.00  0.00    -0.000 C 
BRANCH   2   3
HETATM    3  C   LIG     1      14.628  30.270  14.206  1.00  0.00    -0.005 C 
HETATM    4  C   LIG     1      15.236  28.896  13.924  1.00  0.00     0.005 C 
ENDBRANCH   2   3
ENDBRANCH   1   2
BRANCH   1   5
HETATM    5  C   LIG     1      14.842  31.996  16.261  1.00  0.00     0.004 C 
BRANCH   5   6
HETATM    6  C   LIG     1      15.021  32.923  17.469  1.00  0.00     0.026 C 
BRANCH   6   7
HETATM    7  C   LIG     1      14.971  32.155  18.764  1.00  0.00    -0.037 C 
HETATM    8  C   LIG     1      15.364  32.693  19.921  1.00  0.00     0.007 C 
ENDBRANCH   6   7
ENDBRANCH   5   6
ENDBRANCH   1   5
TORSDOF 5
ENDMDL
MODEL 16
REMARK VINA RESULT:      -4.1      3.303      5.176
REMARK  5 active torsions:
REMARK  status: ('A' for Active; 'I' for Inactive)
REMARK    1  A    between atoms: C_2  and  C_3 
REMARK    2  A    between atoms: C_3  and  C_4 
REMARK    3  A    between atoms: C_4  and  C_5 
REMARK    4  A    between atoms: C_5  and  C_6 
REMARK    5  A    between atoms: C_6  and  C_7 
ROOT
HETATM    1  C   LIG     1      14.860  34.334  21.304  1.00  0.00     0.000 C 
ENDROOT
BRANCH   1   2
HETATM    2  C   LIG     1      15.841  33.582  20.392  1.00  0.00    -0.000 C 
BRANCH   2   3
HETATM    3  C   LIG     1      15.131  32.621  19.425  1.00  0.00    -0.005 C 
HETATM    4  C   LIG     1      14.910  31.234  20.028  1.00  0.00     0.005 C 
ENDBRANCH   2   3
ENDBRANCH   1   2
BRANCH   1   5
HETATM    5  C   LIG     1      15.190  35.834  21.348  1.00  0.00     0.004 C 
BRANCH   5   6
HETATM    6  C   LIG     1      16.466  36.121  22.148  1.00  0.00     0.026 C 
BRANCH   6   7
HETATM    7  C   LIG     1      17.409  37.009  21.381  1.00  0.00    -0.037 C 
HETATM    8  C   LIG     1      18.093  36.568  20.323  1.00  0.00     0.007 C 
ENDBRANCH   6   7
ENDBRANCH   5   6
ENDBRANCH   1   5
TORSDOF 5
ENDMDL
MODEL 17
REMARK VINA RESULT:      -3.9      8.509     11.500
REMARK  5 active torsions:
REMARK  status: ('A' for Active; 'I' for Inactive)
REMARK    1  A    between atoms: C_2  and  C_3 
REMARK    2  A    between atoms: C_3  and  C_4 
REMARK    3  A    between atoms: C_4  and  C_5 
REMARK    4  A    between atoms: C_5  and  C_6 
REMARK    5  A    between atoms: C_6  and  C_7 
ROOT
HETATM    1  C   LIG     1      14.661  31.613  16.059  1.00  0.00     0.000 C 
ENDROOT
BRANCH   1   2
HETATM    2  C   LIG     1      14.009  31.643  17.449  1.00  0.00    -0.000 C 
BRANCH   2   3
HETATM    3  C   LIG     1      14.950  32.193  18.532  1.00  0.00    -0.005 C 
HETATM    4  C   LIG     1      14.826  31.443  19.858  1.00  0.00     0.005 C 
ENDBRANCH   2   3
ENDBRANCH   1   2
BRANCH   1   5
HETATM    5  C   LIG     1      14.058  30.497  15.192  1.00  0.00     0.004 C 
BRANCH   5   6
HETATM    6  C   LIG     1      15.113  29.818  14.311  1.00  0.00     0.026 C 
BRANCH   6   7
HETATM    7  C   LIG     1      14.686  28.430  13.913  1.00  0.00    -0.037 C 
HETATM    8  C   LIG     1      15.543  27.549  13.389  1.00  0.00     0.007 C 
ENDBRANCH   6   7
ENDBRANCH   5   6
ENDBRANCH   1   5
TORSDOF 5
ENDMDL
MODEL 18
REMARK VINA RESULT:      -3.9      2.376      3.843
REMARK  5 active torsions:
REMARK  status: ('A' for Active; 'I' for Inactive)
REMARK    1  A    between atoms: C_2  and  C_3 
REMARK    2  A    between atoms: C_3  and  C_4 
REMARK    3  A    between atoms: C_4  and  C_5 
REMARK    4  A    between atoms: C_5  and  C_6 
REMARK    5  A    between atoms: C_6  and  C_7 
ROOT
HETATM    1  C   LIG     1      16.602  35.941  21.985  1.00  0.00     0.000 C 
ENDROOT
BRANCH   1   2
HETATM    2  C   LIG     1      17.020  35.921  20.508  1.00  0.00    -0.000 C 
BRANCH   2   3
HETATM    3  C   LIG     1      18.462  36.409  20.296  1.00  0.00    -0.005 C 
HETATM    4  C   LIG     1      18.623  37.236  19.020  1.00  0.00     0.005 C 
ENDBRANCH   2   3
ENDBRANCH   1   2
BRANCH   1   5
HETATM    5  C   LIG     1      16.136  37.343  22.405  1.00  0.00     0.004 C 
BRANCH   5   6
HETATM    6  C   LIG     1      16.911  37.869  23.619  1.00  0.00     0.026 C 
BRANCH   6   7
HETATM    7  C   LIG     1      18.118  38.665  23.199  1.00  0.00    -0.037 C 
HETATM    8  C   LIG     1      18.130  39.392  22.078  1.00  0.00     0.007 C 
ENDBRANCH   6   7
ENDBRANCH   5   6
ENDBRANCH   1   5
TORSDOF 5
ENDMDL
MODEL 19
REMARK VINA RESULT:      -3.9      9.104     11.387
REMARK  5 active torsions:
REMARK  status: ('A' for Active; 'I' for Inactive)
REMARK    1  A    between atoms: C_2  and  C_3 
REMARK    2  A    between atoms: C_3  and  C_4 
REMARK    3  A    between atoms: C_4  and  C_5 
REMARK    4  A    between atoms: C_5  and  C_6 
REMARK    5  A    between atoms: C_6  and  C_7 
ROOT
HETATM    1  C   LIG     1      16.296  32.101  15.475  1.00  0.00     0.000 C 
ENDROOT
BRANCH   1   2
HETATM    2  C   LIG     1      15.314  33.001  16.240  1.00  0.00    -0.000 C 
BRANCH   2   3
HETATM    3  C   LIG     1      14.527  32.235  17.315  1.00  0.00    -0.005 C 
HETATM    4  C   LIG     1      13.241  31.612  16.774  1.00  0.00     0.005 C 
ENDBRANCH   2   3
ENDBRANCH   1   2
BRANCH   1   5
HETATM    5  C   LIG     1      16.139  32.281  13.957  1.00  0.00     0.004 C 
BRANCH   5   6
HETATM    6  C   LIG     1      15.512  31.049  13.293  1.00  0.00     0.026 C 
BRANCH   6   7
HETATM    7  C   LIG     1      15.329  29.926  14.279  1.00  0.00    -0.037 C 
HETATM    8  C   LIG     1      15.229  28.652  13.889  1.00  0.00     0.007 C 
ENDBRANCH   6   7
ENDBRANCH   5   6
ENDBRANCH   1   5
TORSDOF 5
ENDMDL
MODEL 20
REMARK VINA RESULT:      -3.8     10.403     11.495
REMARK  5 active torsions:
REMARK  status: ('A' for Active; 'I' for Inactive)
REMARK    1  A    between atoms: C_2  and  C_3 
REMARK    2  A    between atoms: C_3  and  C_4 
REMARK    3  A    between atoms: C_4  and  C_5 
REMARK    4  A    between atoms: C_5  and  C_6 
REMARK    5  A    between atoms: C_6  and  C_7 
ROOT
HETATM    1  C   LIG     1      15.901  31.401  14.717  1.00  0.00     0.000 C 
ENDROOT
BRANCH   1   2
HETATM    2  C   LIG     1      16.355  32.420  13.661  1.00  0.00    -0.000 C 
BRANCH   2   3
HETATM    3  C   LIG     1      17.477  33.337  14.170  1.00  0.00    -0.005 C 
HETATM    4  C   LIG     1      18.498  33.680  13.084  1.00  0.00     0.005 C 
ENDBRANCH   2   3
ENDBRANCH   1   2
BRANCH   1   5
HETATM    5  C   LIG     1      14.918  30.386  14.114  1.00  0.00     0.004 C 
BRANCH   5   6
HETATM    6  C   LIG     1      13.665  30.211  14.981  1.00  0.00     0.026 C 
BRANCH   6   7
HETATM    7  C   LIG     1      13.802  30.931  16.297  1.00  0.00    -0.037 C 
HETATM    8  C   LIG     1      12.851  31.748  16.758  1.00  0.00     0.007 C 
ENDBRANCH   6   7
ENDBRANCH   5   6
ENDBRANCH   1   5
TORSDOF 5
ENDMDL
