MODEL 1
REMARK VINA RESULT:      -5.2      0.000      0.000
REMARK  5 active torsions:
REMARK  status: ('A' for Active; 'I' for Inactive)
REMARK    1  A    between atoms: C_2  and  C_3 
REMARK    2  A    between atoms: C_3  and  C_4 
REMARK    3  A    between atoms: C_4  and  C_5 
REMARK    4  A    between atoms: C_5  and  C_6 
REMARK    5  A    between atoms: C_6  and  C_7 
ROOT
HETATM    1  C   LIG     1      17.487  38.267  23.741  1.00  0.00     0.000 C 
ENDROOT
BRANCH   1   2
HETATM    2  C   LIG     1      16.448  37.620  22.808  1.00  0.00    -0.000 C 
BRANCH   2   3
HETATM    3  C   LIG     1      17.081  36.698  21.756  1.00  0.00    -0.005 C 
HETATM    4  C   LIG     1      17.021  35.238  22.197  1.00  0.00     0.005 C 
ENDBRANCH   2   3
ENDBRANCH   1   2
BRANCH   1   5
HETATM    5  C   LIG     1      17.373  37.862  25.222  1.00  0.00     0.000 C 
BRANCH   5   6
HETATM    6  C   LIG     1      18.613  37.117  25.738  1.00  0.00    -0.000 C 
BRANCH   6   7
HETATM    7  C   LIG     1      18.214  35.958  26.658  1.00  0.00    -0.005 C 
HETATM    8  C   LIG     1      17.456  34.879  25.890  1.00  0.00     0.005 C 
ENDBRANCH   6   7
ENDBRANCH   5   6
ENDBRANCH   1   5
TORSDOF 5
ENDMDL
MODEL 2
REMARK VINA RESULT:      -5.2      0.166      3.739
REMARK  5 active torsions:
REMARK  status: ('A' for Active; 'I' for Inactive)
REMARK    1  A    between atoms: C_2  and  C_3 
REMARK    2  A    between atoms: C_3  and  C_4 
REMARK    3  A    between atoms: C_4  and  C_5 
REMARK    4  A    between atoms: C_5  and  C_6 
REMARK    5  A    between atoms: C_6  and  C_7 
ROOT
HETATM    1  C   LIG     1      17.256  37.595  25.202  1.00  0.00     0.000 C 
ENDROOT
BRANCH   1   2
HETATM    2  C   LIG     1      18.535  37.121  25.915  1.00  0.00    -0.000 C 
BRANCH   2   3
HETATM    3  C   LIG     1      18.359  35.773  26.629  1.00  0.00    -0.005 C 
HETATM    4  C   LIG     1      17.412  34.861  25.854  1.00  0.00     0.005 C 
ENDBRANCH   2   3
ENDBRANCH   1   2
BRANCH   1   5
HETATM    5  C   LIG     1      17.478  38.208  23.807  1.00  0.00     0.000 C 
BRANCH   5   6
HETATM    6  C   LIG     1      16.470  37.704  22.764  1.00  0.00    -0.000 C 
BRANCH   6   7
HETATM    7  C   LIG     1      17.129  36.713  21.797  1.00  0.00    -0.005 C 
HETATM    8  C   LIG     1      16.905  35.272  22.247  1.00  0.00     0.005 C 
ENDBRANCH   6   7
ENDBRANCH   5   6
ENDBRANCH   1   5
TORSDOF 5
ENDMDL
MODEL 3
REMARK VINA RESULT:      -5.1      1.632      4.415
REMARK  5 active torsions:
REMARK  status: ('A' for Active; 'I' for Inactive)
REMARK    1  A    between atoms: C_2  and  C_3 
REMARK    2  A    between atoms: C_3  and  C_4 
REMARK    3  A    between atoms: C_4  and  C_5 
REMARK    4  A    between atoms: C_5  and  C_6 
REMARK    5  A    between atoms: C_6  and  C_7 
ROOT
HETATM    1  C   LIG     1      17.823  38.100  24.367  1.00  0.00     0.000 C 
ENDROOT
BRANCH   1   2
HETATM    2  C   LIG     1      17.489  37.584  25.778  1.00  0.00    -0.000 C 
BRANCH   2   3
HETATM    3  C   LIG     1      18.513  36.565  26.301  1.00  0.00    -0.005 C 
HETATM    4  C   LIG     1      17.984  35.140  26.172  1.00  0.00     0.005 C 
ENDBRANCH   2   3
ENDBRANCH   1   2
BRANCH   1   5
HETATM    5  C   LIG     1      16.961  37.507  23.237  1.00  0.00     0.000 C 
BRANCH   5   6
HETATM    6  C   LIG     1      17.492  37.846  21.837  1.00  0.00    -0.000 C 
BRANCH   6   7
HETATM    7  C   LIG     1      18.312  39.141  21.860  1.00  0.00    -0.005 C 
HETATM    8  C   LIG     1      18.981  39.394  20.512  1.00  0.00     0.005 C 
ENDBRANCH   6   7
ENDBRANCH   5   6
ENDBRANCH   1   5
TORSDOF 5
ENDMDL
MODEL 4
REMARK VINA RESULT:      -5.1      1.240      4.441
REMARK  5 active torsions:
REMARK  status: ('A' for Active; 'I' for Inactive)
REMARK    1  A    between atoms: C_2  and  C_3 
REMARK    2  A    between atoms: C_3  and  C_4 
REMARK    3  A    between atoms: C_4  and  C_5 
REMARK    4  A    between atoms: C_5  and  C_6 
REMARK    5  A    between atoms: C_6  and  C_7 
ROOT
HETATM    1  C   LIG     1      17.153  35.901  24.148  1.00  0.00     0.000 C 
ENDROOT
BRANCH   1   2
HETATM    2  C   LIG     1      17.331  34.831  25.241  1.00  0.00    -0.000 C 
BRANCH   2   3
HETATM    3  C   LIG     1      18.276  35.276  26.366  1.00  0.00    -0.005 C 
HETATM    4  C   LIG     1      18.505  36.784  26.327  1.00  0.00     0.005 C 
ENDBRANCH   2   3
ENDBRANCH   1   2
BRANCH   1   5
HETATM    5  C   LIG     1      16.957  35.350  22.724  1.00  0.00     0.000 C 
BRANCH   5   6
HETATM    6  C   LIG     1      17.100  36.428  21.640  1.00  0.00    -0.000 C 
BRANCH   6   7
HETATM    7  C   LIG     1      17.247  37.820  22.265  1.00  0.00    -0.005 C 
HETATM    8  C   LIG     1      18.157  38.710  21.424  1.00  0.00     0.005 C 
ENDBRANCH   6   7
ENDBRANCH   5   6
ENDBRANCH   1   5
TORSDOF 5
ENDMDL
MODEL 5
REMARK VINA RESULT:      -5.0      1.609      2.120
REMARK  5 active torsions:
REMARK  status: ('A' for Active; 'I' for Inactive)
REMARK    1  A    between atoms: C_2  and  C_3 
REMARK    2  A    between atoms: C_3  and  C_4 
REMARK    3  A    between atoms: C_4  and  C_5 
REMARK    4  A    between atoms: C_5  and  C_6 
REMARK    5  A    between atoms: C_6  and  C_7 
ROOT
HETATM    1  C   LIG     1      16.903  37.881  23.515  1.00  0.00     0.000 C 
ENDROOT
BRANCH   1   2
HETATM    2  C   LIG     1      17.081  38.852  22.335  1.00  0.00    -0.000 C 
BRANCH   2   3
HETATM    3  C   LIG     1      18.551  39.207  22.068  1.00  0.00    -0.005 C 
HETATM    4  C   LIG     1      18.849  39.228  20.572  1.00  0.00     0.005 C 
ENDBRANCH   2   3
ENDBRANCH   1   2
BRANCH   1   5
HETATM    5  C   LIG     1      18.036  37.908  24.557  1.00  0.00     0.000 C 
BRANCH   5   6
HETATM    6  C   LIG     1      17.575  37.476  25.956  1.00  0.00    -0.000 C 
BRANCH   6   7
HETATM    7  C   LIG     1      18.495  36.391  26.528  1.00  0.00    -0.005 C 
HETATM    8  C   LIG     1      18.025  34.998  26.119  1.00  0.00     0.005 C 
ENDBRANCH   6   7
ENDBRANCH   5   6
ENDBRANCH   1   5
TORSDOF 5
ENDMDL
MODEL 6
REMARK VINA RESULT:      -5.0      1.325      2.158
REMARK  5 active torsions:
REMARK  status: ('A' for Active; 'I' for Inactive)
REMARK    1  A    between atoms: C_2  and  C_3 
REMARK    2  A    between atoms: C_3  and  C_4 
REMARK    3  A    between atoms: C_4  and  C_5 
REMARK    4  A    between atoms: C_5  and  C_6 
REMARK    5  A    between atoms: C_6  and  C_7 
ROOT
HETATM    1  C   LIG     1      16.835  36.398  22.961  1.00  0.00     0.000 C 
ENDROOT
BRANCH   1   2
HETATM    2  C   LIG     1      17.186  35.142  22.144  1.00  0.00    -0.000 C 
BRANCH   2   3
HETATM    3  C   LIG     1      16.118  34.790  21.099  1.00  0.00    -0.005 C 
HETATM    4  C   LIG     1      14.880  35.667  21.262  1.00  0.00     0.005 C 
ENDBRANCH   2   3
ENDBRANCH   1   2
BRANCH   1   5
HETATM    5  C   LIG     1      17.282  36.362  24.434  1.00  0.00     0.000 C 
BRANCH   5   6
HETATM    6  C   LIG     1      17.320  34.941  25.014  1.00  0.00    -0.000 C 
BRANCH   6   7
HETATM    7  C   LIG     1      18.156  34.894  26.298  1.00  0.00    -0.005 C 
HETATM    8  C   LIG     1      18.500  36.299  26.784  1.00  0.00     0.005 C 
ENDBRANCH   6   7
ENDBRANCH   5   6
ENDBRANCH   1   5
TORSDOF 5
ENDMDL
MODEL 7
REMARK VINA RESULT:      -4.8      2.641      4.426
REMARK  5 active torsions:
REMARK  status: ('A' for Active; 'I' for Inactive)
REMARK    1  A    between atoms: C_2  and  C_3 
REMARK    2  A    between atoms: C_3  and  C_4 
REMARK    3  A    between atoms: C_4  and  C_5 
REMARK    4  A    between atoms: C_5  and  C_6 
REMARK    5  A    between atoms: C_6  and  C_7 
ROOT
HETATM    1  C   LIG     1      17.099  38.983  22.309  1.00  0.00     0.000 C 
ENDROOT
BRANCH   1   2
HETATM    2  C   LIG     1      16.454  37.691  22.840  1.00  0.00    -0.000 C 
BRANCH   2   3
HETATM    3  C   LIG     1      16.423  36.564  21.797  1.00  0.00    -0.005 C 
HETATM    4  C   LIG     1      17.012  35.275  22.363  1.00  0.00     0.005 C 
ENDBRANCH   2   3
ENDBRANCH   1   2
BRANCH   1   5
HETATM    5  C   LIG     1      18.552  38.834  21.824  1.00  0.00     0.000 C 
BRANCH   5   6
HETATM    6  C   LIG     1      18.757  39.324  20.384  1.00  0.00    -0.000 C 
BRANCH   6   7
HETATM    7  C   LIG     1      19.739  38.419  19.630  1.00  0.00    -0.005 C 
HETATM    8  C   LIG     1      19.193  37.000  19.501  1.00  0.00     0.005 C 
ENDBRANCH   6   7
ENDBRANCH   5   6
ENDBRANCH   1   5
TORSDOF 5
ENDMDL
MODEL 8
REMARK VINA RESULT:      -4.4      2.661      4.201
REMARK  5 active torsions:
REMARK  status: ('A' for Active; 'I' for Inactive)
REMARK    1  A    between atoms: C_2  and  C_3 
REMARK    2  A    between atoms: C_3  and  C_4 
REMARK    3  A    between atoms: C_4  and  C_5 
REMARK    4  A    between atoms: C_5  and  C_6 
REMARK    5  A    between atoms: C_6  and  C_7 
ROOT
HETATM    1  C   LIG     1      18.164  36.600  20.216  1.00  0.00     0.000 C 
ENDROOT
BRANCH   1   2
HETATM    2  C   LIG     1      19.455  37.127  19.565  1.00  0.00    -0.000 C 
BRANCH   2   3
HETATM    3  C   LIG     1      19.484  38.657  19.446  1.00  0.00    -0.005 C 
HETATM    4  C   LIG     1      18.934  39.114  18.099  1.00  0.00     0.005 C 
ENDBRANCH   2   3
ENDBRANCH   1   2
BRANCH   1   5
HETATM    5  C   LIG     1      17.641  37.440  21.395  1.00  0.00     0.000 C 
BRANCH   5   6
HETATM    6  C   LIG     1      16.521  36.740  22.179  1.00  0.00    -0.000 C 
BRANCH   6   7
HETATM    7  C   LIG     1      16.898  35.290  22.500  1.00  0.00    -0.005 C 
HETATM    8  C   LIG     1      17.165  35.106  23.991  1.00  0.00     0.005 C 
ENDBRANCH   6   7
ENDBRANCH   5   6
ENDBRANCH   1   5
TORSDOF 5
ENDMDL
MODEL 9
REMARK VINA RESULT:      -4.3      7.575     10.566
REMARK  5 active torsions:
REMARK  status: ('A' for Active; 'I' for Inactive)
REMARK    1  A    between atoms: C_2  and  C_3 
REMARK    2  A    between atoms: C_3  and  C_4 
REMARK    3  A    between atoms: C_4  and  C_5 
REMARK    4  A    between atoms: C_5  and  C_6 
REMARK    5  A    between atoms: C_6  and  C_7 
ROOT
HETATM    1  C   LIG     1      14.189  31.578  17.529  1.00  0.00     0.000 C 
ENDROOT
BRANCH   1   2
HETATM    2  C   LIG     1      15.088  32.680  18.118  1.00  0.00    -0.000 C 
BRANCH   2   3
HETATM    3  C   LIG     1      15.440  32.441  19.593  1.00  0.00    -0.005 C 
HETATM    4  C   LIG     1      14.832  31.136  20.098  1.00  0.00     0.005 C 
ENDBRANCH   2   3
ENDBRANCH   1   2
BRANCH   1   5
HETATM    5  C   LIG     1      14.271  31.419  16.000  1.00  0.00     0.000 C 
BRANCH   5   6
HETATM    6  C   LIG     1      13.290  30.372  15.452  1.00  0.00    -0.000 C 
BRANCH   6   7
HETATM    7  C   LIG     1      13.922  29.575  14.305  1.00  0.00    -0.005 C 
HETATM    8  C   LIG     1      15.235  30.205  13.853  1.00  0.00     0.005 C 
ENDBRANCH   6   7
ENDBRANCH   5   6
ENDBRANCH   1   5
TORSDOF 5
ENDMDL
MODEL 10
REMARK VINA RESULT:      -4.2      3.412      4.665
REMARK  5 active torsions:
REMARK  status: ('A' for Active; 'I' for Inactive)
REMARK    1  A    between atoms: C_2  and  C_3 
REMARK    2  A    between atoms: C_3  and  C_4 
REMARK    3  A    between atoms: C_4  and  C_5 
REMARK    4  A    between atoms: C_5  and  C_6 
REMARK    5  A    between atoms: C_6  and  C_7 
ROOT
HETATM    1  C   LIG     1      15.932  36.221  21.934  1.00  0.00     0.000 C 
ENDROOT
BRANCH   1   2
HETATM    2  C   LIG     1      15.113  35.068  21.328  1.00  0.00    -0.000 C 
BRANCH   2   3
HETATM    3  C   LIG     1      15.824  34.381  20.153  1.00  0.00    -0.005 C 
HETATM    4  C   LIG     1      15.415  32.915  20.044  1.00  0.00     0.005 C 
ENDBRANCH   2   3
ENDBRANCH   1   2
BRANCH   1   5
HETATM    5  C   LIG     1      17.315  36.444  21.293  1.00  0.00     0.000 C 
BRANCH   5   6
HETATM    6  C   LIG     1      17.806  37.893  21.417  1.00  0.00    -0.000 C 
BRANCH   6   7
HETATM    7  C   LIG     1      18.813  38.228  20.311  1.00  0.00    -0.005 C 
HETATM    8  C   LIG     1      19.147  36.995  19.477  1.00  0.00     0.005 C 
ENDBRANCH   6   7
ENDBRANCH   5   6
ENDBRANCH   1   5
TORSDOF 5
ENDMDL
MODEL 11
REMARK VINA RESULT:      -4.2      8.696     11.350
REMARK  5 active torsions:
REMARK  status: ('A' for Active; 'I' for Inactive)
REMARK    1  A    between atoms: C_2  and  C_3 
REMARK    2  A    between atoms: C_3  and  C_4 
REMARK    3  A    between atoms: C_4  and  C_5 
REMARK    4  A    between atoms: C_5  and  C_6 
REMARK    5  A    between atoms: C_6  and  C_7 
ROOT
HETATM    1  C   LIG     1      13.596  30.182  14.967  1.00  0.00     0.000 C 
ENDROOT
BRANCH   1   2
HETATM    2  C   LIG     1      13.080  30.576  16.363  1.00  0.00    -0.000 C 
BRANCH   2   3
HETATM    3  C   LIG     1      13.521  31.984  16.789  1.00  0.00    -0.005 C 
HETATM    4  C   LIG     1      14.397  31.931  18.037  1.00  0.00     0.005 C 
ENDBRANCH   2   3
ENDBRANCH   1   2
BRANCH   1   5
HETATM    5  C   LIG     1      15.110  30.363  14.759  1.00  0.00     0.000 C 
BRANCH   5   6
HETATM    6  C   LIG     1      15.453  31.070  13.440  1.00  0.00    -0.000 C 
BRANCH   6   7
HETATM    7  C   LIG     1      16.317  32.312  13.690  1.00  0.00    -0.005 C 
HETATM    8  C   LIG     1      16.769  32.385  15.145  1.00  0.00     0.005 C 
ENDBRANCH   6   7
ENDBRANCH   5   6
ENDBRANCH   1   5
TORSDOF 5
ENDMDL
MODEL 12
REMARK VINA RESULT:      -4.2      7.495      9.816
REMARK  5 active torsions:
REMARK  status: ('A' for Active; 'I' for Inactive)
REMARK    1  A    between atoms: C_2  and  C_3 
REMARK    2  A    between atoms: C_3  and  C_4 
REMARK    3  A    between atoms: C_4  and  C_5 
REMARK    4  A    between atoms: C_5  and  C_6 
REMARK    5  A    between atoms: C_6  and  C_7 
ROOT
HETATM    1  C   LIG     1      13.409  31.005  16.721  1.00  0.00     0.000 C 
ENDROOT
BRANCH   1   2
HETATM    2  C   LIG     1      13.447  30.365  15.321  1.00  0.00    -0.000 C 
BRANCH   2   3
HETATM    3  C   LIG     1      14.781  30.592  14.595  1.00  0.00    -0.005 C 
HETATM    4  C   LIG     1      15.271  29.307  13.934  1.00  0.00     0.005 C 
ENDBRANCH   2   3
ENDBRANCH   1   2
BRANCH   1   5
HETATM    5  C   LIG     1      13.908  32.460  16.785  1.00  0.00     0.000 C 
BRANCH   5   6
HETATM    6  C   LIG     1      15.155  32.627  17.666  1.00  0.00    -0.000 C 
BRANCH   6   7
HETATM    7  C   LIG     1      14.923  32.040  19.063  1.00  0.00    -0.005 C 
HETATM    8  C   LIG     1      15.442  32.978  20.149  1.00  0.00     0.005 C 
ENDBRANCH   6   7
ENDBRANCH   5   6
ENDBRANCH   1   5
TORSDOF 5
ENDMDL
MODEL 13
REMARK VINA RESULT:      -4.1      1.694      3.139
REMARK  5 active torsions:
REMARK  status: ('A' for Active; 'I' for Inactive)
REMARK    1  A    between atoms: C_2  and  C_3 
REMARK    2  A    between atoms: C_3  and  C_4 
REMARK    3  A    between atoms: C_4  and  C_5 
REMARK    4  A    between atoms: C_5  and  C_6 
REMARK    5  A    between atoms: C_6  and  C_7 
ROOT
HETATM    1  C   LIG     1      17.203  35.211  22.973  1.00  0.00     0.000 C 
ENDROOT
BRANCH   1   2
HETATM    2  C   LIG     1      16.006  35.434  22.032  1.00  0.00    -0.000 C 
BRANCH   2   3
HETATM    3  C   LIG     1      16.418  35.547  20.557  1.00  0.00    -0.005 C 
HETATM    4  C   LIG     1      17.745  36.285  20.411  1.00  0.00     0.005 C 
ENDBRANCH   2   3
ENDBRANCH   1   2
BRANCH   1   5
HETATM    5  C   LIG     1      17.100  35.920  24.336  1.00  0.00     0.000 C 
BRANCH   5   6
HETATM    6  C   LIG     1      16.637  37.379  24.218  1.00  0.00    -0.000 C 
BRANCH   6   7
HETATM    7  C   LIG     1      17.747  38.263  23.640  1.00  0.00    -0.005 C 
HETATM    8  C   LIG     1      17.216  39.158  22.524  1.00  0.00     0.005 C 
ENDBRANCH   6   7
ENDBRANCH   5   6
ENDBRANCH   1   5
TORSDOF 5
ENDMDL
MODEL 14
REMARK VINA RESULT:      -4.1      9.784     11.372
REMARK  5 active torsions:
REMARK  status: ('A' for Active; 'I' for Inactive)
REMARK    1  A    between atoms: C_2  and  C_3 
REMARK    2  A    between atoms: C_3  and  C_4 
REMARK    3  A    between atoms: C_4  and  C_5 
REMARK    4  A    between atoms: C_5  and  C_6 
REMARK    5  A    between atoms: C_6  and  C_7 
ROOT
HETATM    1  C   LIG     1      15.348  30.746  13.507  1.00  0.00     0.000 C 
ENDROOT
BRANCH   1   2
HETATM    2  C   LIG     1      16.125  32.072  13.425  1.00  0.00    -0.000 C 
BRANCH   2   3
HETATM    3  C   LIG     1      16.642  32.548  14.791  1.00  0.00    -0.005 C 
HETATM    4  C   LIG     1      17.593  33.731  14.636  1.00  0.00     0.005 C 
ENDBRANCH   2   3
ENDBRANCH   1   2
BRANCH   1   5
HETATM    5  C   LIG     1      14.899  30.341  14.923  1.00  0.00     0.000 C 
BRANCH   5   6
HETATM    6  C   LIG     1      13.381  30.137  15.034  1.00  0.00    -0.000 C 
BRANCH   6   7
HETATM    7  C   LIG     1      12.813  30.887  16.245  1.00  0.00    -0.005 C 
HETATM    8  C   LIG     1      13.928  31.495  17.090  1.00  0.00     0.005 C 
ENDBRANCH   6   7
ENDBRANCH   5   6
ENDBRANCH   1   5
TORSDOF 5
ENDMDL
MODEL 15
REMARK VINA RESULT:      -4.0      8.787     11.126
REMARK  5 active torsions:
REMARK  status: ('A' for Active; 'I' for Inactive)
REMARK    1  A    between atoms: C_2  and  C_3 
REMARK    2  A    between atoms: C_3  and  C_4 
REMARK    3  A    between atoms: C_4  and  C_5 
REMARK    4  A    between atoms: C_5  and  C_6 
REMARK    5  A    between atoms: C_6  and  C_7 
ROOT
HETATM    1  C   LIG     1      16.305  32.204  15.577  1.00  0.00     0.000 C 
ENDROOT
BRANCH   1   2
HETATM    2  C   LIG     1      15.386  33.158  16.360  1.00  0.00    -0.000 C 
BRANCH   2   3
HETATM    3  C   LIG     1      14.590  32.450  17.466  1.00  0.00    -0.005 C 
HETATM    4  C   LIG     1      13.284  31.878  16.922  1.00  0.00     0.005 C 
ENDBRANCH   2   3
ENDBRANCH   1   2
BRANCH   1   5
HETATM    5  C   LIG     1      16.245  32.354  14.046  1.00  0.00     0.000 C 
BRANCH   5   6
HETATM    6  C   LIG     1      15.534  31.180  13.357  1.00  0.00    -0.000 C 
BRANCH   6   7
HETATM    7  C   LIG     1      15.349  30.005  14.324  1.00  0.00    -0.005 C 
HETATM    8  C   LIG     1      13.923  29.466  14.271  1.00  0.00     0.005 C 
ENDBRANCH   6   7
ENDBRANCH   5   6
ENDBRANCH   1   5
TORSDOF 5
ENDMDL
MODEL 16
REMARK VINA RESULT:      -4.0      5.594      8.602
REMARK  5 active torsions:
REMARK  status: ('A' for Active; 'I' for Inactive)
REMARK    1  A    between atoms: C_2  and  C_3 
REMARK    2  A    between atoms: C_3  and  C_4 
REMARK    3  A    between atoms: C_4  and  C_5 
REMARK    4  A    between atoms: C_5  and  C_6 
REMARK    5  A    between atoms: C_6  and  C_7 
ROOT
HETATM    1  C   LIG     1      15.572  32.266  19.441  1.00  0.00     0.000 C 
ENDROOT
BRANCH   1   2
HETATM    2  C   LIG     1      15.197  33.269  20.546  1.00  0.00    -0.000 C 
BRANCH   2   3
HETATM    3  C   LIG     1      15.927  34.613  20.408  1.00  0.00    -0.005 C 
HETATM    4  C   LIG     1      16.645  34.984  21.702  1.00  0.00     0.005 C 
ENDBRANCH   2   3
ENDBRANCH   1   2
BRANCH   1   5
HETATM    5  C   LIG     1      15.048  32.619  18.037  1.00  0.00     0.000 C 
BRANCH   5   6
HETATM    6  C   LIG     1      13.995  31.627  17.522  1.00  0.00    -0.000 C 
BRANCH   6   7
HETATM    7  C   LIG     1      14.297  31.205  16.080  1.00  0.00    -0.005 C 
HETATM    8  C   LIG     1      13.127  30.437  15.473  1.00  0.00     0.005 C 
ENDBRANCH   6   7
ENDBRANCH   5   6
ENDBRANCH   1   5
TORSDOF 5
ENDMDL
MODEL 17
REMARK VINA RESULT:      -4.0      8.637     11.500
REMARK  5 active torsions:
REMARK  status: ('A' for Active; 'I' for Inactive)
REMARK    1  A    between atoms: C_2  and  C_3 
REMARK    2  A    between atoms: C_3  and  C_4 
REMARK    3  A    between atoms: C_4  and  C_5 
REMARK    4  A    between atoms: C_5  and  C_6 
REMARK    5  A    between atoms: C_6  and  C_7 
ROOT
HETATM    1  C   LIG     1      13.473  31.102  16.389  1.00  0.00     0.000 C 
ENDROOT
BRANCH   1   2
HETATM    2  C   LIG     1      14.049  31.725  17.673  1.00  0.00    -0.000 C 
BRANCH   2   3
HETATM    3  C   LIG     1      15.301  32.577  17.416  1.00  0.00    -0.005 C 
HETATM    4  C   LIG     1      14.925  33.972  16.928  1.00  0.00     0.005 C 
ENDBRANCH   2   3
ENDBRANCH   1   2
BRANCH   1   5
HETATM    5  C   LIG     1      14.509  30.802  15.291  1.00  0.00     0.000 C 
BRANCH   5   6
HETATM    6  C   LIG     1      14.112  29.616  14.400  1.00  0.00    -0.000 C 
BRANCH   6   7
HETATM    7  C   LIG     1      15.328  29.064  13.646  1.00  0.00    -0.005 C 
HETATM    8  C   LIG     1      15.294  27.540  13.585  1.00  0.00     0.005 C 
ENDBRANCH   6   7
ENDBRANCH   5   6
ENDBRANCH   1   5
TORSDOF 5
ENDMDL
MODEL 18
REMARK VINA RESULT:      -3.8      8.626     11.097
REMARK  5 active torsions:
REMARK  status: ('A' for Active; 'I' for Inactive)
REMARK    1  A    between atoms: C_2  and  C_3 
REMARK    2  A    between atoms: C_3  and  C_4 
REMARK    3  A    between atoms: C_4  and  C_5 
REMARK    4  A    between atoms: C_5  and  C_6 
REMARK    5  A    between atoms: C_6  and  C_7 
ROOT
HETATM    1  C   LIG     1      14.587  30.582  15.513  1.00  0.00     0.000 C 
ENDROOT
BRANCH   1   2
HETATM    2  C   LIG     1      14.112  29.754  14.305  1.00  0.00    -0.000 C 
BRANCH   2   3
HETATM    3  C   LIG     1      15.272  29.168  13.489  1.00  0.00    -0.005 C 
HETATM    4  C   LIG     1      15.288  27.644  13.572  1.00  0.00     0.005 C 
ENDBRANCH   2   3
ENDBRANCH   1   2
BRANCH   1   5
HETATM    5  C   LIG     1      13.460  31.169  16.383  1.00  0.00     0.000 C 
BRANCH   5   6
HETATM    6  C   LIG     1      13.981  31.873  17.644  1.00  0.00    -0.000 C 
BRANCH   6   7
HETATM    7  C   LIG     1      15.262  32.660  17.344  1.00  0.00    -0.005 C 
HETATM    8  C   LIG     1      14.944  34.082  16.893  1.00  0.00     0.005 C 
ENDBRANCH   6   7
ENDBRANCH   5   6
ENDBRANCH   1   5
TORSDOF 5
ENDMDL
MODEL 19
REMARK VINA RESULT:      -3.7      8.470     10.421
REMARK  5 active torsions:
REMARK  status: ('A' for Active; 'I' for Inactive)
REMARK    1  A    between atoms: C_2  and  C_3 
REMARK    2  A    between atoms: C_3  and  C_4 
REMARK    3  A    between atoms: C_4  and  C_5 
REMARK    4  A    between atoms: C_5  and  C_6 
REMARK    5  A    between atoms: C_6  and  C_7 
ROOT
HETATM    1  C   LIG     1      13.237  31.728  16.652  1.00  0.00     0.000 C 
ENDROOT
BRANCH   1   2
HETATM    2  C   LIG     1      13.021  30.267  16.218  1.00  0.00    -0.000 C 
BRANCH   2   3
HETATM    3  C   LIG     1      13.262  30.047  14.717  1.00  0.00    -0.005 C 
HETATM    4  C   LIG     1      14.724  29.708  14.439  1.00  0.00     0.005 C 
ENDBRANCH   2   3
ENDBRANCH   1   2
BRANCH   1   5
HETATM    5  C   LIG     1      14.159  31.915  17.870  1.00  0.00     0.000 C 
BRANCH   5   6
HETATM    6  C   LIG     1      15.527  32.508  17.501  1.00  0.00    -0.000 C 
BRANCH   6   7
HETATM    7  C   LIG     1      15.533  33.015  16.055  1.00  0.00    -0.005 C 
HETATM    8  C   LIG     1      16.799  32.579  15.323  1.00  0.00     0.005 C 
ENDBRANCH   6   7
ENDBRANCH   5   6
ENDBRANCH   1   5
TORSDOF 5
ENDMDL
MODEL 20
REMARK VINA RESULT:      -3.7      7.441     10.185
REMARK  5 active torsions:
REMARK  status: ('A' for Active; 'I' for Inactive)
REMARK    1  A    between atoms: C_2  and  C_3 
REMARK    2  A    between atoms: C_3  and  C_4 
REMARK    3  A    between atoms: C_4  and  C_5 
REMARK    4  A    between atoms: C_5  and  C_6 
REMARK    5  A    between atoms: C_6  and  C_7 
ROOT
HETATM    1  C   LIG     1      14.788  32.955  16.562  1.00  0.00     0.000 C 
ENDROOT
BRANCH   1   2
HETATM    2  C   LIG     1      14.332  32.109  17.764  1.00  0.00    -0.000 C 
BRANCH   2   3
HETATM    3  C   LIG     1      15.215  32.307  19.005  1.00  0.00    -0.005 C 
HETATM    4  C   LIG     1      14.874  31.291  20.090  1.00  0.00     0.005 C 
ENDBRANCH   2   3
ENDBRANCH   1   2
BRANCH   1   5
HETATM    5  C   LIG     1      16.085  32.477  15.884  1.00  0.00     0.000 C 
BRANCH   5   6
HETATM    6  C   LIG     1      15.829  31.551  14.686  1.00  0.00    -0.000 C 
BRANCH   6   7
HETATM    7  C   LIG     1      16.209  32.239  13.370  1.00  0.00    -0.005 C 
HETATM    8  C   LIG     1      17.352  33.230  13.575  1.00  0.00     0.005 C 
ENDBRANCH   6   7
ENDBRANCH   5   6
ENDBRANCH   1   5
TORSDOF 5
ENDMDL
