REMARK  6 active torsions:
REMARK  status: ('A' for Active; 'I' for Inactive)
REMARK    1  A    between atoms: C_2  and  C_3 
REMARK    2  A    between atoms: C_3  and  C_4 
REMARK    3  A    between atoms: C_4  and  C_5 
REMARK    4  A    between atoms: C_5  and  C_6 
REMARK    5  A    between atoms: C_6  and  C_7 
REMARK    6  A    between atoms: C_7  and  C_8 
ROOT
HETATM    1  C   LIG     1       0.096  -0.835   0.445  1.00  0.00     0.000 C 
ENDROOT
BRANCH   1   2
HETATM    2  C   LIG     1      -0.893   0.030   1.248  1.00  0.00     0.000 C 
BRANCH   2   3
HETATM    3  C   LIG     1      -1.422   1.275   0.508  1.00  0.00    -0.000 C 
BRANCH   3   4
HETATM    4  C   LIG     1      -2.117   0.987  -0.834  1.00  0.00    -0.005 C 
HETATM    5  C   LIG     1      -3.353   0.101  -0.686  1.00  0.00     0.005 C 
ENDBRANCH   3   4
ENDBRANCH   2   3
ENDBRANCH   1   2
BRANCH   1   6
HETATM    6  C   LIG     1       1.371  -0.075   0.052  1.00  0.00     0.001 C 
BRANCH   6   7
HETATM    7  C   LIG     1       2.391  -1.016  -0.600  1.00  0.00     0.011 C 
BRANCH   7   8
HETATM    8  C   LIG     1       3.655  -0.260  -1.006  1.00  0.00     0.085 C 
HETATM    9 BR   LIG     1       4.923  -1.475  -1.824  1.00  0.00    -0.097 Br
ENDBRANCH   7   8
ENDBRANCH   6   7
ENDBRANCH   1   6
TORSDOF 6
