REMARK  7 active torsions:
REMARK  status: ('A' for Active; 'I' for Inactive)
REMARK    1  A    between atoms: C_2  and  C_3 
REMARK    2  A    between atoms: C_3  and  C_4 
REMARK    3  A    between atoms: C_4  and  C_5 
REMARK    4  A    between atoms: C_5  and  C_6 
REMARK    5  A    between atoms: C_6  and  C_7 
REMARK    6  A    between atoms: C_7  and  C_8 
REMARK    7  A    between atoms: C_8  and  O_9 
ROOT
HETATM    1  C   LIG     1       0.011   1.084  -0.458  1.00  0.00     0.000 C 
ENDROOT
BRANCH   1   2
HETATM    2  C   LIG     1       0.771  -0.016  -1.225  1.00  0.00     0.000 C 
BRANCH   2   3
HETATM    3  C   LIG     1       1.413  -1.106  -0.343  1.00  0.00    -0.000 C 
BRANCH   3   4
HETATM    4  C   LIG     1       2.400  -0.583   0.715  1.00  0.00    -0.005 C 
HETATM    5  C   LIG     1       3.611   0.119   0.102  1.00  0.00     0.005 C 
ENDBRANCH   3   4
ENDBRANCH   2   3
ENDBRANCH   1   2
BRANCH   1   6
HETATM    6  C   LIG     1      -1.109   0.577   0.469  1.00  0.00     0.002 C 
BRANCH   6   7
HETATM    7  C   LIG     1      -2.229  -0.149  -0.292  1.00  0.00     0.026 C 
BRANCH   7   8
HETATM    8  C   LIG     1      -3.393  -0.522   0.633  1.00  0.00     0.164 C 
BRANCH   8   9
HETATM    9  O   LIG     1      -4.019   0.626   1.139  1.00  0.00    -0.401 OA
HETATM   10  H   LIG     1      -4.558   1.006   0.397  1.00  0.00     0.209 HD
ENDBRANCH   8   9
ENDBRANCH   7   8
ENDBRANCH   6   7
ENDBRANCH   1   6
TORSDOF 7
