MODEL 1
REMARK VINA RESULT:      -5.5      0.000      0.000
REMARK  6 active torsions:
REMARK  status: ('A' for Active; 'I' for Inactive)
REMARK    1  A    between atoms: C_2  and  C_3 
REMARK    2  A    between atoms: C_3  and  C_4 
REMARK    3  A    between atoms: C_4  and  C_5 
REMARK    4  A    between atoms: C_5  and  C_6 
REMARK    5  A    between atoms: C_6  and  C_7 
REMARK    6  A    between atoms: C_7  and  C_8 
ROOT
HETATM    1  C   LIG     1      16.994  38.275  23.316  1.00  0.00     0.000 C 
ENDROOT
BRANCH   1   2
HETATM    2  C   LIG     1      17.204  37.093  24.280  1.00  0.00     0.000 C 
BRANCH   2   3
HETATM    3  C   LIG     1      17.949  37.438  25.584  1.00  0.00    -0.000 C 
BRANCH   3   4
HETATM    4  C   LIG     1      18.301  36.230  26.471  1.00  0.00    -0.005 C 
HETATM    5  C   LIG     1      17.702  34.921  25.959  1.00  0.00     0.005 C 
ENDBRANCH   3   4
ENDBRANCH   2   3
ENDBRANCH   1   2
BRANCH   1   6
HETATM    6  C   LIG     1      17.650  38.052  21.946  1.00  0.00     0.001 C 
BRANCH   6   7
HETATM    7  C   LIG     1      18.489  39.268  21.536  1.00  0.00     0.011 C 
BRANCH   7   8
HETATM    8  C   LIG     1      19.315  38.970  20.286  1.00  0.00     0.085 C 
HETATM    9 BR   LIG     1      18.939  37.178  19.652  1.00  0.00    -0.097 Br
ENDBRANCH   7   8
ENDBRANCH   6   7
ENDBRANCH   1   6
TORSDOF 6
ENDMDL
MODEL 2
REMARK VINA RESULT:      -5.5      1.796      1.965
REMARK  6 active torsions:
REMARK  status: ('A' for Active; 'I' for Inactive)
REMARK    1  A    between atoms: C_2  and  C_3 
REMARK    2  A    between atoms: C_3  and  C_4 
REMARK    3  A    between atoms: C_4  and  C_5 
REMARK    4  A    between atoms: C_5  and  C_6 
REMARK    5  A    between atoms: C_6  and  C_7 
REMARK    6  A    between atoms: C_7  and  C_8 
ROOT
HETATM    1  C   LIG     1      17.401  38.427  24.043  1.00  0.00     0.000 C 
ENDROOT
BRANCH   1   2
HETATM    2  C   LIG     1      17.365  37.893  25.487  1.00  0.00     0.000 C 
BRANCH   2   3
HETATM    3  C   LIG     1      18.593  37.061  25.907  1.00  0.00    -0.000 C 
BRANCH   3   4
HETATM    4  C   LIG     1      18.267  35.720  26.586  1.00  0.00    -0.005 C 
HETATM    5  C   LIG     1      17.396  34.810  25.722  1.00  0.00     0.005 C 
ENDBRANCH   3   4
ENDBRANCH   2   3
ENDBRANCH   1   2
BRANCH   1   6
HETATM    6  C   LIG     1      16.891  37.406  23.016  1.00  0.00     0.001 C 
BRANCH   6   7
HETATM    7  C   LIG     1      17.541  37.635  21.647  1.00  0.00     0.011 C 
BRANCH   7   8
HETATM    8  C   LIG     1      17.594  36.338  20.840  1.00  0.00     0.085 C 
HETATM    9 BR   LIG     1      16.556  34.962  21.724  1.00  0.00    -0.097 Br
ENDBRANCH   7   8
ENDBRANCH   6   7
ENDBRANCH   1   6
TORSDOF 6
ENDMDL
MODEL 3
REMARK VINA RESULT:      -5.3      2.385      5.403
REMARK  6 active torsions:
REMARK  status: ('A' for Active; 'I' for Inactive)
REMARK    1  A    between atoms: C_2  and  C_3 
REMARK    2  A    between atoms: C_3  and  C_4 
REMARK    3  A    between atoms: C_4  and  C_5 
REMARK    4  A    between atoms: C_5  and  C_6 
REMARK    5  A    between atoms: C_6  and  C_7 
REMARK    6  A    between atoms: C_7  and  C_8 
ROOT
HETATM    1  C   LIG     1      17.175  38.648  23.106  1.00  0.00     0.000 C 
ENDROOT
BRANCH   1   2
HETATM    2  C   LIG     1      17.796  38.297  21.742  1.00  0.00     0.000 C 
BRANCH   2   3
HETATM    3  C   LIG     1      18.705  39.387  21.138  1.00  0.00    -0.000 C 
BRANCH   3   4
HETATM    4  C   LIG     1      19.690  38.891  20.065  1.00  0.00    -0.005 C 
HETATM    5  C   LIG     1      19.100  38.921  18.656  1.00  0.00     0.005 C 
ENDBRANCH   3   4
ENDBRANCH   2   3
ENDBRANCH   1   2
BRANCH   1   6
HETATM    6  C   LIG     1      17.080  37.438  24.047  1.00  0.00     0.001 C 
BRANCH   6   7
HETATM    7  C   LIG     1      17.441  37.832  25.485  1.00  0.00     0.011 C 
BRANCH   7   8
HETATM    8  C   LIG     1      18.375  36.803  26.118  1.00  0.00     0.085 C 
HETATM    9 BR   LIG     1      17.648  35.020  25.898  1.00  0.00    -0.097 Br
ENDBRANCH   7   8
ENDBRANCH   6   7
ENDBRANCH   1   6
TORSDOF 6
ENDMDL
MODEL 4
REMARK VINA RESULT:      -5.1      2.987      4.676
REMARK  6 active torsions:
REMARK  status: ('A' for Active; 'I' for Inactive)
REMARK    1  A    between atoms: C_2  and  C_3 
REMARK    2  A    between atoms: C_3  and  C_4 
REMARK    3  A    between atoms: C_4  and  C_5 
REMARK    4  A    between atoms: C_5  and  C_6 
REMARK    5  A    between atoms: C_6  and  C_7 
REMARK    6  A    between atoms: C_7  and  C_8 
ROOT
HETATM    1  C   LIG     1      17.148  38.200  22.682  1.00  0.00     0.000 C 
ENDROOT
BRANCH   1   2
HETATM    2  C   LIG     1      17.545  37.386  21.437  1.00  0.00     0.000 C 
BRANCH   2   3
HETATM    3  C   LIG     1      17.255  35.874  21.525  1.00  0.00    -0.000 C 
BRANCH   3   4
HETATM    4  C   LIG     1      16.112  35.379  20.621  1.00  0.00    -0.005 C 
HETATM    5  C   LIG     1      15.129  34.465  21.352  1.00  0.00     0.005 C 
ENDBRANCH   3   4
ENDBRANCH   2   3
ENDBRANCH   1   2
BRANCH   1   6
HETATM    6  C   LIG     1      16.823  37.316  23.895  1.00  0.00     0.001 C 
BRANCH   6   7
HETATM    7  C   LIG     1      17.371  37.935  25.186  1.00  0.00     0.011 C 
BRANCH   7   8
HETATM    8  C   LIG     1      18.192  36.918  25.977  1.00  0.00     0.085 C 
HETATM    9 BR   LIG     1      17.558  35.124  25.614  1.00  0.00    -0.097 Br
ENDBRANCH   7   8
ENDBRANCH   6   7
ENDBRANCH   1   6
TORSDOF 6
ENDMDL
MODEL 5
REMARK VINA RESULT:      -5.1      2.155      2.818
REMARK  6 active torsions:
REMARK  status: ('A' for Active; 'I' for Inactive)
REMARK    1  A    between atoms: C_2  and  C_3 
REMARK    2  A    between atoms: C_3  and  C_4 
REMARK    3  A    between atoms: C_4  and  C_5 
REMARK    4  A    between atoms: C_5  and  C_6 
REMARK    5  A    between atoms: C_6  and  C_7 
REMARK    6  A    between atoms: C_7  and  C_8 
ROOT
HETATM    1  C   LIG     1      16.911  38.899  22.409  1.00  0.00     0.000 C 
ENDROOT
BRANCH   1   2
HETATM    2  C   LIG     1      16.075  37.647  22.731  1.00  0.00     0.000 C 
BRANCH   2   3
HETATM    3  C   LIG     1      16.885  36.347  22.906  1.00  0.00    -0.000 C 
BRANCH   3   4
HETATM    4  C   LIG     1      16.498  35.206  21.949  1.00  0.00    -0.005 C 
HETATM    5  C   LIG     1      15.308  35.555  21.056  1.00  0.00     0.005 C 
ENDBRANCH   3   4
ENDBRANCH   2   3
ENDBRANCH   1   2
BRANCH   1   6
HETATM    6  C   LIG     1      18.312  38.561  21.879  1.00  0.00     0.001 C 
BRANCH   6   7
HETATM    7  C   LIG     1      18.752  39.569  20.811  1.00  0.00     0.011 C 
BRANCH   7   8
HETATM    8  C   LIG     1      19.518  38.878  19.685  1.00  0.00     0.085 C 
HETATM    9 BR   LIG     1      18.977  37.022  19.554  1.00  0.00    -0.097 Br
ENDBRANCH   7   8
ENDBRANCH   6   7
ENDBRANCH   1   6
TORSDOF 6
ENDMDL
MODEL 6
REMARK VINA RESULT:      -4.9      2.599      5.187
REMARK  6 active torsions:
REMARK  status: ('A' for Active; 'I' for Inactive)
REMARK    1  A    between atoms: C_2  and  C_3 
REMARK    2  A    between atoms: C_3  and  C_4 
REMARK    3  A    between atoms: C_4  and  C_5 
REMARK    4  A    between atoms: C_5  and  C_6 
REMARK    5  A    between atoms: C_6  and  C_7 
REMARK    6  A    between atoms: C_7  and  C_8 
ROOT
HETATM    1  C   LIG     1      17.164  35.193  22.290  1.00  0.00     0.000 C 
ENDROOT
BRANCH   1   2
HETATM    2  C   LIG     1      16.879  36.146  21.114  1.00  0.00     0.000 C 
BRANCH   2   3
HETATM    3  C   LIG     1      18.117  36.563  20.295  1.00  0.00    -0.000 C 
BRANCH   3   4
HETATM    4  C   LIG     1      18.650  37.974  20.594  1.00  0.00    -0.005 C 
HETATM    5  C   LIG     1      17.734  38.772  21.521  1.00  0.00     0.005 C 
ENDBRANCH   3   4
ENDBRANCH   2   3
ENDBRANCH   1   2
BRANCH   1   6
HETATM    6  C   LIG     1      16.820  35.808  23.654  1.00  0.00     0.001 C 
BRANCH   6   7
HETATM    7  C   LIG     1      17.396  34.964  24.797  1.00  0.00     0.011 C 
BRANCH   7   8
HETATM    8  C   LIG     1      17.868  35.849  25.950  1.00  0.00     0.085 C 
HETATM    9 BR   LIG     1      17.565  37.714  25.523  1.00  0.00    -0.097 Br
ENDBRANCH   7   8
ENDBRANCH   6   7
ENDBRANCH   1   6
TORSDOF 6
ENDMDL
MODEL 7
REMARK VINA RESULT:      -4.8      3.802      4.902
REMARK  6 active torsions:
REMARK  status: ('A' for Active; 'I' for Inactive)
REMARK    1  A    between atoms: C_2  and  C_3 
REMARK    2  A    between atoms: C_3  and  C_4 
REMARK    3  A    between atoms: C_4  and  C_5 
REMARK    4  A    between atoms: C_5  and  C_6 
REMARK    5  A    between atoms: C_6  and  C_7 
REMARK    6  A    between atoms: C_7  and  C_8 
ROOT
HETATM    1  C   LIG     1      17.258  36.504  21.280  1.00  0.00     0.000 C 
ENDROOT
BRANCH   1   2
HETATM    2  C   LIG     1      16.768  35.300  22.104  1.00  0.00     0.000 C 
BRANCH   2   3
HETATM    3  C   LIG     1      15.515  34.594  21.548  1.00  0.00    -0.000 C 
BRANCH   3   4
HETATM    4  C   LIG     1      15.616  34.154  20.078  1.00  0.00    -0.005 C 
HETATM    5  C   LIG     1      15.478  32.643  19.898  1.00  0.00     0.005 C 
ENDBRANCH   3   4
ENDBRANCH   2   3
ENDBRANCH   1   2
BRANCH   1   6
HETATM    6  C   LIG     1      17.254  37.816  22.078  1.00  0.00     0.001 C 
BRANCH   6   7
HETATM    7  C   LIG     1      16.655  37.606  23.474  1.00  0.00     0.011 C 
BRANCH   7   8
HETATM    8  C   LIG     1      17.563  38.191  24.555  1.00  0.00     0.085 C 
HETATM    9 BR   LIG     1      18.041  36.818  25.836  1.00  0.00    -0.097 Br
ENDBRANCH   7   8
ENDBRANCH   6   7
ENDBRANCH   1   6
TORSDOF 6
ENDMDL
MODEL 8
REMARK VINA RESULT:      -4.7      2.832      5.442
REMARK  6 active torsions:
REMARK  status: ('A' for Active; 'I' for Inactive)
REMARK    1  A    between atoms: C_2  and  C_3 
REMARK    2  A    between atoms: C_3  and  C_4 
REMARK    3  A    between atoms: C_4  and  C_5 
REMARK    4  A    between atoms: C_5  and  C_6 
REMARK    5  A    between atoms: C_6  and  C_7 
REMARK    6  A    between atoms: C_7  and  C_8 
ROOT
HETATM    1  C   LIG     1      16.943  35.939  20.751  1.00  0.00     0.000 C 
ENDROOT
BRANCH   1   2
HETATM    2  C   LIG     1      18.355  36.509  20.523  1.00  0.00     0.000 C 
BRANCH   2   3
HETATM    3  C   LIG     1      18.612  37.074  19.112  1.00  0.00    -0.000 C 
BRANCH   3   4
HETATM    4  C   LIG     1      18.996  38.563  19.068  1.00  0.00    -0.005 C 
HETATM    5  C   LIG     1      20.439  38.818  19.501  1.00  0.00     0.005 C 
ENDBRANCH   3   4
ENDBRANCH   2   3
ENDBRANCH   1   2
BRANCH   1   6
HETATM    6  C   LIG     1      16.398  36.239  22.155  1.00  0.00     0.001 C 
BRANCH   6   7
HETATM    7  C   LIG     1      17.140  37.420  22.791  1.00  0.00     0.011 C 
BRANCH   7   8
HETATM    8  C   LIG     1      16.646  37.678  24.213  1.00  0.00     0.085 C 
HETATM    9 BR   LIG     1      17.921  36.985  25.496  1.00  0.00    -0.097 Br
ENDBRANCH   7   8
ENDBRANCH   6   7
ENDBRANCH   1   6
TORSDOF 6
ENDMDL
MODEL 9
REMARK VINA RESULT:      -4.7      2.548      4.803
REMARK  6 active torsions:
REMARK  status: ('A' for Active; 'I' for Inactive)
REMARK    1  A    between atoms: C_2  and  C_3 
REMARK    2  A    between atoms: C_3  and  C_4 
REMARK    3  A    between atoms: C_4  and  C_5 
REMARK    4  A    between atoms: C_5  and  C_6 
REMARK    5  A    between atoms: C_6  and  C_7 
REMARK    6  A    between atoms: C_7  and  C_8 
ROOT
HETATM    1  C   LIG     1      17.242  37.520  23.266  1.00  0.00     0.000 C 
ENDROOT
BRANCH   1   2
HETATM    2  C   LIG     1      17.204  38.571  22.142  1.00  0.00     0.000 C 
BRANCH   2   3
HETATM    3  C   LIG     1      18.580  39.123  21.717  1.00  0.00    -0.000 C 
BRANCH   3   4
HETATM    4  C   LIG     1      18.783  39.264  20.199  1.00  0.00    -0.005 C 
HETATM    5  C   LIG     1      20.174  38.828  19.741  1.00  0.00     0.005 C 
ENDBRANCH   3   4
ENDBRANCH   2   3
ENDBRANCH   1   2
BRANCH   1   6
HETATM    6  C   LIG     1      16.820  36.122  22.791  1.00  0.00     0.001 C 
BRANCH   6   7
HETATM    7  C   LIG     1      16.545  36.116  21.283  1.00  0.00     0.011 C 
BRANCH   7   8
HETATM    8  C   LIG     1      15.222  35.421  20.968  1.00  0.00     0.085 C 
HETATM    9 BR   LIG     1      15.551  33.633  20.300  1.00  0.00    -0.097 Br
ENDBRANCH   7   8
ENDBRANCH   6   7
ENDBRANCH   1   6
TORSDOF 6
ENDMDL
MODEL 10
REMARK VINA RESULT:      -4.6      3.810      4.523
REMARK  6 active torsions:
REMARK  status: ('A' for Active; 'I' for Inactive)
REMARK    1  A    between atoms: C_2  and  C_3 
REMARK    2  A    between atoms: C_3  and  C_4 
REMARK    3  A    between atoms: C_4  and  C_5 
REMARK    4  A    between atoms: C_5  and  C_6 
REMARK    5  A    between atoms: C_6  and  C_7 
REMARK    6  A    between atoms: C_7  and  C_8 
ROOT
HETATM    1  C   LIG     1      16.734  35.952  21.148  1.00  0.00     0.000 C 
ENDROOT
BRANCH   1   2
HETATM    2  C   LIG     1      15.239  35.582  21.140  1.00  0.00     0.000 C 
BRANCH   2   3
HETATM    3  C   LIG     1      14.939  34.073  21.238  1.00  0.00    -0.000 C 
BRANCH   3   4
HETATM    4  C   LIG     1      15.583  33.210  20.138  1.00  0.00    -0.005 C 
HETATM    5  C   LIG     1      14.902  31.852  19.973  1.00  0.00     0.005 C 
ENDBRANCH   3   4
ENDBRANCH   2   3
ENDBRANCH   1   2
BRANCH   1   6
HETATM    6  C   LIG     1      17.055  37.117  22.095  1.00  0.00     0.001 C 
BRANCH   6   7
HETATM    7  C   LIG     1      17.951  38.153  21.405  1.00  0.00     0.011 C 
BRANCH   7   8
HETATM    8  C   LIG     1      18.661  37.547  20.196  1.00  0.00     0.085 C 
HETATM    9 BR   LIG     1      20.029  38.758  19.552  1.00  0.00    -0.097 Br
ENDBRANCH   7   8
ENDBRANCH   6   7
ENDBRANCH   1   6
TORSDOF 6
ENDMDL
MODEL 11
REMARK VINA RESULT:      -4.6      2.892      4.020
REMARK  6 active torsions:
REMARK  status: ('A' for Active; 'I' for Inactive)
REMARK    1  A    between atoms: C_2  and  C_3 
REMARK    2  A    between atoms: C_3  and  C_4 
REMARK    3  A    between atoms: C_4  and  C_5 
REMARK    4  A    between atoms: C_5  and  C_6 
REMARK    5  A    between atoms: C_6  and  C_7 
REMARK    6  A    between atoms: C_7  and  C_8 
ROOT
HETATM    1  C   LIG     1      18.745  37.718  19.994  1.00  0.00     0.000 C 
ENDROOT
BRANCH   1   2
HETATM    2  C   LIG     1      18.287  36.417  20.678  1.00  0.00     0.000 C 
BRANCH   2   3
HETATM    3  C   LIG     1      16.837  35.993  20.372  1.00  0.00    -0.000 C 
BRANCH   3   4
HETATM    4  C   LIG     1      16.096  35.317  21.539  1.00  0.00    -0.005 C 
HETATM    5  C   LIG     1      16.994  35.074  22.751  1.00  0.00     0.005 C 
ENDBRANCH   3   4
ENDBRANCH   2   3
ENDBRANCH   1   2
BRANCH   1   6
HETATM    6  C   LIG     1      18.306  38.979  20.753  1.00  0.00     0.001 C 
BRANCH   6   7
HETATM    7  C   LIG     1      18.508  38.808  22.263  1.00  0.00     0.011 C 
BRANCH   7   8
HETATM    8  C   LIG     1      17.175  38.874  23.007  1.00  0.00     0.085 C 
HETATM    9 BR   LIG     1      17.363  38.111  24.778  1.00  0.00    -0.097 Br
ENDBRANCH   7   8
ENDBRANCH   6   7
ENDBRANCH   1   6
TORSDOF 6
ENDMDL
MODEL 12
REMARK VINA RESULT:      -4.4      3.450      3.990
REMARK  6 active torsions:
REMARK  status: ('A' for Active; 'I' for Inactive)
REMARK    1  A    between atoms: C_2  and  C_3 
REMARK    2  A    between atoms: C_3  and  C_4 
REMARK    3  A    between atoms: C_4  and  C_5 
REMARK    4  A    between atoms: C_5  and  C_6 
REMARK    5  A    between atoms: C_6  and  C_7 
REMARK    6  A    between atoms: C_7  and  C_8 
ROOT
HETATM    1  C   LIG     1      15.941  36.494  22.088  1.00  0.00     0.000 C 
ENDROOT
BRANCH   1   2
HETATM    2  C   LIG     1      17.065  37.324  22.735  1.00  0.00     0.000 C 
BRANCH   2   3
HETATM    3  C   LIG     1      16.948  37.504  24.262  1.00  0.00    -0.000 C 
BRANCH   3   4
HETATM    4  C   LIG     1      17.437  36.308  25.097  1.00  0.00    -0.005 C 
HETATM    5  C   LIG     1      18.500  36.694  26.124  1.00  0.00     0.005 C 
ENDBRANCH   3   4
ENDBRANCH   2   3
ENDBRANCH   1   2
BRANCH   1   6
HETATM    6  C   LIG     1      16.403  35.739  20.833  1.00  0.00     0.001 C 
BRANCH   6   7
HETATM    7  C   LIG     1      16.086  34.243  20.946  1.00  0.00     0.011 C 
BRANCH   7   8
HETATM    8  C   LIG     1      15.499  33.706  19.641  1.00  0.00     0.085 C 
HETATM    9 BR   LIG     1      15.072  31.826  19.829  1.00  0.00    -0.097 Br
ENDBRANCH   7   8
ENDBRANCH   6   7
ENDBRANCH   1   6
TORSDOF 6
ENDMDL
MODEL 13
REMARK VINA RESULT:      -4.4      7.617      8.887
REMARK  6 active torsions:
REMARK  status: ('A' for Active; 'I' for Inactive)
REMARK    1  A    between atoms: C_2  and  C_3 
REMARK    2  A    between atoms: C_3  and  C_4 
REMARK    3  A    between atoms: C_4  and  C_5 
REMARK    4  A    between atoms: C_5  and  C_6 
REMARK    5  A    between atoms: C_6  and  C_7 
REMARK    6  A    between atoms: C_7  and  C_8 
ROOT
HETATM    1  C   LIG     1      14.534  31.696  19.105  1.00  0.00     0.000 C 
ENDROOT
BRANCH   1   2
HETATM    2  C   LIG     1      14.517  32.119  17.625  1.00  0.00     0.000 C 
BRANCH   2   3
HETATM    3  C   LIG     1      13.177  31.894  16.897  1.00  0.00    -0.000 C 
BRANCH   3   4
HETATM    4  C   LIG     1      13.120  30.636  16.013  1.00  0.00    -0.005 C 
HETATM    5  C   LIG     1      14.365  30.461  15.145  1.00  0.00     0.005 C 
ENDBRANCH   3   4
ENDBRANCH   2   3
ENDBRANCH   1   2
BRANCH   1   6
HETATM    6  C   LIG     1      15.675  32.349  19.899  1.00  0.00     0.001 C 
BRANCH   6   7
HETATM    7  C   LIG     1      15.517  33.874  19.933  1.00  0.00     0.011 C 
BRANCH   7   8
HETATM    8  C   LIG     1      15.785  34.423  21.333  1.00  0.00     0.085 C 
HETATM    9 BR   LIG     1      17.067  35.873  21.244  1.00  0.00    -0.097 Br
ENDBRANCH   7   8
ENDBRANCH   6   7
ENDBRANCH   1   6
TORSDOF 6
ENDMDL
MODEL 14
REMARK VINA RESULT:      -4.4      9.563     10.347
REMARK  6 active torsions:
REMARK  status: ('A' for Active; 'I' for Inactive)
REMARK    1  A    between atoms: C_2  and  C_3 
REMARK    2  A    between atoms: C_3  and  C_4 
REMARK    3  A    between atoms: C_4  and  C_5 
REMARK    4  A    between atoms: C_5  and  C_6 
REMARK    5  A    between atoms: C_6  and  C_7 
REMARK    6  A    between atoms: C_7  and  C_8 
ROOT
HETATM    1  C   LIG     1      15.106  31.656  15.539  1.00  0.00     0.000 C 
ENDROOT
BRANCH   1   2
HETATM    2  C   LIG     1      15.327  32.529  16.789  1.00  0.00     0.000 C 
BRANCH   2   3
HETATM    3  C   LIG     1      14.484  32.134  18.018  1.00  0.00    -0.000 C 
BRANCH   3   4
HETATM    4  C   LIG     1      15.283  31.936  19.317  1.00  0.00    -0.005 C 
HETATM    5  C   LIG     1      15.489  33.235  20.094  1.00  0.00     0.005 C 
ENDBRANCH   3   4
ENDBRANCH   2   3
ENDBRANCH   1   2
BRANCH   1   6
HETATM    6  C   LIG     1      13.826  30.811  15.619  1.00  0.00     0.001 C 
BRANCH   6   7
HETATM    7  C   LIG     1      13.806  29.742  14.521  1.00  0.00     0.011 C 
BRANCH   7   8
HETATM    8  C   LIG     1      15.209  29.491  13.972  1.00  0.00     0.085 C 
HETATM    9 BR   LIG     1      15.418  27.622  13.507  1.00  0.00    -0.097 Br
ENDBRANCH   7   8
ENDBRANCH   6   7
ENDBRANCH   1   6
TORSDOF 6
ENDMDL
MODEL 15
REMARK VINA RESULT:      -4.4      9.264     10.049
REMARK  6 active torsions:
REMARK  status: ('A' for Active; 'I' for Inactive)
REMARK    1  A    between atoms: C_2  and  C_3 
REMARK    2  A    between atoms: C_3  and  C_4 
REMARK    3  A    between atoms: C_4  and  C_5 
REMARK    4  A    between atoms: C_5  and  C_6 
REMARK    5  A    between atoms: C_6  and  C_7 
REMARK    6  A    between atoms: C_7  and  C_8 
ROOT
HETATM    1  C   LIG     1      13.369  30.747  15.388  1.00  0.00     0.000 C 
ENDROOT
BRANCH   1   2
HETATM    2  C   LIG     1      13.191  31.675  16.604  1.00  0.00     0.000 C 
BRANCH   2   3
HETATM    3  C   LIG     1      14.068  31.329  17.824  1.00  0.00    -0.000 C 
BRANCH   3   4
HETATM    4  C   LIG     1      14.986  32.464  18.309  1.00  0.00    -0.005 C 
HETATM    5  C   LIG     1      15.465  32.270  19.747  1.00  0.00     0.005 C 
ENDBRANCH   3   4
ENDBRANCH   2   3
ENDBRANCH   1   2
BRANCH   1   6
HETATM    6  C   LIG     1      14.831  30.340  15.157  1.00  0.00     0.001 C 
BRANCH   6   7
HETATM    7  C   LIG     1      15.234  30.553  13.693  1.00  0.00     0.011 C 
BRANCH   7   8
HETATM    8  C   LIG     1      15.867  31.929  13.492  1.00  0.00     0.085 C 
HETATM    9 BR   LIG     1      16.855  32.444  15.077  1.00  0.00    -0.097 Br
ENDBRANCH   7   8
ENDBRANCH   6   7
ENDBRANCH   1   6
TORSDOF 6
ENDMDL
MODEL 16
REMARK VINA RESULT:      -4.2     10.019     11.591
REMARK  6 active torsions:
REMARK  status: ('A' for Active; 'I' for Inactive)
REMARK    1  A    between atoms: C_2  and  C_3 
REMARK    2  A    between atoms: C_3  and  C_4 
REMARK    3  A    between atoms: C_4  and  C_5 
REMARK    4  A    between atoms: C_5  and  C_6 
REMARK    5  A    between atoms: C_6  and  C_7 
REMARK    6  A    between atoms: C_7  and  C_8 
ROOT
HETATM    1  C   LIG     1      15.389  30.707  13.553  1.00  0.00     0.000 C 
ENDROOT
BRANCH   1   2
HETATM    2  C   LIG     1      16.035  32.100  13.434  1.00  0.00     0.000 C 
BRANCH   2   3
HETATM    3  C   LIG     1      16.773  32.588  14.697  1.00  0.00    -0.000 C 
BRANCH   3   4
HETATM    4  C   LIG     1      17.737  33.765  14.473  1.00  0.00    -0.005 C 
HETATM    5  C   LIG     1      18.497  33.668  13.151  1.00  0.00     0.005 C 
ENDBRANCH   3   4
ENDBRANCH   2   3
ENDBRANCH   1   2
BRANCH   1   6
HETATM    6  C   LIG     1      14.902  30.394  14.975  1.00  0.00     0.001 C 
BRANCH   6   7
HETATM    7  C   LIG     1      13.385  30.177  14.999  1.00  0.00     0.011 C 
BRANCH   7   8
HETATM    8  C   LIG     1      12.757  30.825  16.232  1.00  0.00     0.085 C 
HETATM    9 BR   LIG     1      14.094  31.830  17.210  1.00  0.00    -0.097 Br
ENDBRANCH   7   8
ENDBRANCH   6   7
ENDBRANCH   1   6
TORSDOF 6
ENDMDL
MODEL 17
REMARK VINA RESULT:      -4.2      9.514     10.852
REMARK  6 active torsions:
REMARK  status: ('A' for Active; 'I' for Inactive)
REMARK    1  A    between atoms: C_2  and  C_3 
REMARK    2  A    between atoms: C_3  and  C_4 
REMARK    3  A    between atoms: C_4  and  C_5 
REMARK    4  A    between atoms: C_5  and  C_6 
REMARK    5  A    between atoms: C_6  and  C_7 
REMARK    6  A    between atoms: C_7  and  C_8 
ROOT
HETATM    1  C   LIG     1      13.392  31.651  16.228  1.00  0.00     0.000 C 
ENDROOT
BRANCH   1   2
HETATM    2  C   LIG     1      12.977  30.283  15.656  1.00  0.00     0.000 C 
BRANCH   2   3
HETATM    3  C   LIG     1      13.776  29.823  14.420  1.00  0.00    -0.000 C 
BRANCH   3   4
HETATM    4  C   LIG     1      15.271  30.182  14.442  1.00  0.00    -0.005 C 
HETATM    5  C   LIG     1      15.637  31.267  13.430  1.00  0.00     0.005 C 
ENDBRANCH   3   4
ENDBRANCH   2   3
ENDBRANCH   1   2
BRANCH   1   6
HETATM    6  C   LIG     1      14.065  31.544  17.604  1.00  0.00     0.001 C 
BRANCH   6   7
HETATM    7  C   LIG     1      14.984  32.744  17.860  1.00  0.00     0.011 C 
BRANCH   7   8
HETATM    8  C   LIG     1      15.387  32.823  19.332  1.00  0.00     0.085 C 
HETATM    9 BR   LIG     1      14.887  31.191  20.248  1.00  0.00    -0.097 Br
ENDBRANCH   7   8
ENDBRANCH   6   7
ENDBRANCH   1   6
TORSDOF 6
ENDMDL
MODEL 18
REMARK VINA RESULT:      -4.2      5.357      6.192
REMARK  6 active torsions:
REMARK  status: ('A' for Active; 'I' for Inactive)
REMARK    1  A    between atoms: C_2  and  C_3 
REMARK    2  A    between atoms: C_3  and  C_4 
REMARK    3  A    between atoms: C_4  and  C_5 
REMARK    4  A    between atoms: C_5  and  C_6 
REMARK    5  A    between atoms: C_6  and  C_7 
REMARK    6  A    between atoms: C_7  and  C_8 
ROOT
HETATM    1  C   LIG     1      15.606  34.330  19.660  1.00  0.00     0.000 C 
ENDROOT
BRANCH   1   2
HETATM    2  C   LIG     1      15.717  35.472  20.687  1.00  0.00     0.000 C 
BRANCH   2   3
HETATM    3  C   LIG     1      16.497  35.122  21.970  1.00  0.00    -0.000 C 
BRANCH   3   4
HETATM    4  C   LIG     1      16.890  36.328  22.841  1.00  0.00    -0.005 C 
HETATM    5  C   LIG     1      15.935  37.510  22.686  1.00  0.00     0.005 C 
ENDBRANCH   3   4
ENDBRANCH   2   3
ENDBRANCH   1   2
BRANCH   1   6
HETATM    6  C   LIG     1      15.365  32.961  20.312  1.00  0.00     0.001 C 
BRANCH   6   7
HETATM    7  C   LIG     1      14.974  31.914  19.262  1.00  0.00     0.011 C 
BRANCH   7   8
HETATM    8  C   LIG     1      14.898  32.536  17.869  1.00  0.00     0.085 C 
HETATM    9 BR   LIG     1      13.655  31.542  16.764  1.00  0.00    -0.097 Br
ENDBRANCH   7   8
ENDBRANCH   6   7
ENDBRANCH   1   6
TORSDOF 6
ENDMDL
MODEL 19
REMARK VINA RESULT:      -4.1      9.097     10.131
REMARK  6 active torsions:
REMARK  status: ('A' for Active; 'I' for Inactive)
REMARK    1  A    between atoms: C_2  and  C_3 
REMARK    2  A    between atoms: C_3  and  C_4 
REMARK    3  A    between atoms: C_4  and  C_5 
REMARK    4  A    between atoms: C_5  and  C_6 
REMARK    5  A    between atoms: C_6  and  C_7 
REMARK    6  A    between atoms: C_7  and  C_8 
ROOT
HETATM    1  C   LIG     1      15.316  32.534  17.556  1.00  0.00     0.000 C 
ENDROOT
BRANCH   1   2
HETATM    2  C   LIG     1      14.074  31.636  17.703  1.00  0.00     0.000 C 
BRANCH   2   3
HETATM    3  C   LIG     1      13.085  31.689  16.521  1.00  0.00    -0.000 C 
BRANCH   3   4
HETATM    4  C   LIG     1      12.892  30.358  15.775  1.00  0.00    -0.005 C 
HETATM    5  C   LIG     1      13.994  30.083  14.753  1.00  0.00     0.005 C 
ENDBRANCH   3   4
ENDBRANCH   2   3
ENDBRANCH   1   2
BRANCH   1   6
HETATM    6  C   LIG     1      15.469  33.115  16.143  1.00  0.00     0.001 C 
BRANCH   6   7
HETATM    7  C   LIG     1      16.710  32.544  15.447  1.00  0.00     0.011 C 
BRANCH   7   8
HETATM    8  C   LIG     1      16.557  32.587  13.928  1.00  0.00     0.085 C 
HETATM    9 BR   LIG     1      17.927  33.717  13.153  1.00  0.00    -0.097 Br
ENDBRANCH   7   8
ENDBRANCH   6   7
ENDBRANCH   1   6
TORSDOF 6
ENDMDL
MODEL 20
REMARK VINA RESULT:      -4.1      9.188     10.474
REMARK  6 active torsions:
REMARK  status: ('A' for Active; 'I' for Inactive)
REMARK    1  A    between atoms: C_2  and  C_3 
REMARK    2  A    between atoms: C_3  and  C_4 
REMARK    3  A    between atoms: C_4  and  C_5 
REMARK    4  A    between atoms: C_5  and  C_6 
REMARK    5  A    between atoms: C_6  and  C_7 
REMARK    6  A    between atoms: C_7  and  C_8 
ROOT
HETATM    1  C   LIG     1      16.148  32.507  14.572  1.00  0.00     0.000 C 
ENDROOT
BRANCH   1   2
HETATM    2  C   LIG     1      15.574  31.262  13.870  1.00  0.00     0.000 C 
BRANCH   2   3
HETATM    3  C   LIG     1      14.998  30.188  14.815  1.00  0.00    -0.000 C 
BRANCH   3   4
HETATM    4  C   LIG     1      13.461  30.125  14.866  1.00  0.00    -0.005 C 
HETATM    5  C   LIG     1      12.885  30.696  16.161  1.00  0.00     0.005 C 
ENDBRANCH   3   4
ENDBRANCH   2   3
ENDBRANCH   1   2
BRANCH   1   6
HETATM    6  C   LIG     1      15.973  32.467  16.097  1.00  0.00     0.001 C 
BRANCH   6   7
HETATM    7  C   LIG     1      15.112  33.639  16.581  1.00  0.00     0.011 C 
BRANCH   7   8
HETATM    8  C   LIG     1      15.303  33.880  18.078  1.00  0.00     0.085 C 
HETATM    9 BR   LIG     1      15.146  32.210  19.046  1.00  0.00    -0.097 Br
ENDBRANCH   7   8
ENDBRANCH   6   7
ENDBRANCH   1   6
TORSDOF 6
ENDMDL
