MODEL 1
REMARK VINA RESULT:      -5.9      0.000      0.000
REMARK  7 active torsions:
REMARK  status: ('A' for Active; 'I' for Inactive)
REMARK    1  A    between atoms: C_2  and  C_3 
REMARK    2  A    between atoms: C_3  and  C_4 
REMARK    3  A    between atoms: C_4  and  C_5 
REMARK    4  A    between atoms: C_5  and  C_6 
REMARK    5  A    between atoms: C_6  and  C_7 
REMARK    6  A    between atoms: C_7  and  C_8 
REMARK    7  A    between atoms: C_8  and  O_9 
ROOT
HETATM    1  C   LIG     1      16.956  38.879  22.801  1.00  0.00     0.010 C 
ENDROOT
BRANCH   1   2
HETATM    2  C   LIG     1      16.817  37.730  23.822  1.00  0.00     0.000 C 
BRANCH   2   3
HETATM    3  C   LIG     1      17.311  38.056  25.244  1.00  0.00     0.000 C 
BRANCH   3   4
HETATM    4  C   LIG     1      18.546  37.234  25.650  1.00  0.00    -0.000 C 
BRANCH   4   5
HETATM    5  C   LIG     1      18.219  36.165  26.705  1.00  0.00    -0.005 C 
HETATM    6  C   LIG     1      17.790  34.834  26.088  1.00  0.00     0.005 C 
ENDBRANCH   4   5
ENDBRANCH   3   4
ENDBRANCH   2   3
ENDBRANCH   1   2
BRANCH   1   7
HETATM    7  C   LIG     1      18.402  39.195  22.390  1.00  0.00     0.111 C 
BRANCH   7   8
HETATM    8  C   LIG     1      18.672  38.833  20.962  1.00  0.00     0.258 C 
HETATM    9  O   LIG     1      19.109  39.708  20.165  1.00  0.00    -0.265 OA
BRANCH   8  10
HETATM   10  O   LIG     1      18.433  37.527  20.525  1.00  0.00    -0.326 OA
HETATM   11  C   LIG     1      18.894  37.044  19.268  1.00  0.00     0.213 C 
ENDBRANCH   8  10
ENDBRANCH   7   8
ENDBRANCH   1   7
TORSDOF 7
ENDMDL
MODEL 2
REMARK VINA RESULT:      -5.9      1.362      2.091
REMARK  7 active torsions:
REMARK  status: ('A' for Active; 'I' for Inactive)
REMARK    1  A    between atoms: C_2  and  C_3 
REMARK    2  A    between atoms: C_3  and  C_4 
REMARK    3  A    between atoms: C_4  and  C_5 
REMARK    4  A    between atoms: C_5  and  C_6 
REMARK    5  A    between atoms: C_6  and  C_7 
REMARK    6  A    between atoms: C_7  and  C_8 
REMARK    7  A    between atoms: C_8  and  O_9 
ROOT
HETATM    1  C   LIG     1      16.333  37.462  22.922  1.00  0.00     0.010 C 
ENDROOT
BRANCH   1   2
HETATM    2  C   LIG     1      17.312  38.201  23.857  1.00  0.00     0.000 C 
BRANCH   2   3
HETATM    3  C   LIG     1      17.257  37.772  25.335  1.00  0.00     0.000 C 
BRANCH   3   4
HETATM    4  C   LIG     1      18.561  37.113  25.814  1.00  0.00    -0.000 C 
BRANCH   4   5
HETATM    5  C   LIG     1      18.307  35.844  26.644  1.00  0.00    -0.005 C 
HETATM    6  C   LIG     1      17.427  34.827  25.919  1.00  0.00     0.005 C 
ENDBRANCH   4   5
ENDBRANCH   3   4
ENDBRANCH   2   3
ENDBRANCH   1   2
BRANCH   1   7
HETATM    7  C   LIG     1      16.848  36.113  22.397  1.00  0.00     0.111 C 
BRANCH   7   8
HETATM    8  C   LIG     1      17.284  36.196  20.967  1.00  0.00     0.258 C 
HETATM    9  O   LIG     1      16.774  35.423  20.110  1.00  0.00    -0.265 OA
BRANCH   8  10
HETATM   10  O   LIG     1      18.255  37.129  20.595  1.00  0.00    -0.326 OA
HETATM   11  C   LIG     1      18.910  37.092  19.332  1.00  0.00     0.213 C 
ENDBRANCH   8  10
ENDBRANCH   7   8
ENDBRANCH   1   7
TORSDOF 7
ENDMDL
MODEL 3
REMARK VINA RESULT:      -5.8      3.396      3.989
REMARK  7 active torsions:
REMARK  status: ('A' for Active; 'I' for Inactive)
REMARK    1  A    between atoms: C_2  and  C_3 
REMARK    2  A    between atoms: C_3  and  C_4 
REMARK    3  A    between atoms: C_4  and  C_5 
REMARK    4  A    between atoms: C_5  and  C_6 
REMARK    5  A    between atoms: C_6  and  C_7 
REMARK    6  A    between atoms: C_7  and  C_8 
REMARK    7  A    between atoms: C_8  and  O_9 
ROOT
HETATM    1  C   LIG     1      16.949  35.520  22.645  1.00  0.00     0.010 C 
ENDROOT
BRANCH   1   2
HETATM    2  C   LIG     1      17.005  36.987  23.119  1.00  0.00     0.000 C 
BRANCH   2   3
HETATM    3  C   LIG     1      16.898  37.187  24.642  1.00  0.00     0.000 C 
BRANCH   3   4
HETATM    4  C   LIG     1      18.270  37.320  25.325  1.00  0.00    -0.000 C 
BRANCH   4   5
HETATM    5  C   LIG     1      18.436  36.350  26.505  1.00  0.00    -0.005 C 
HETATM    6  C   LIG     1      18.010  34.922  26.164  1.00  0.00     0.005 C 
ENDBRANCH   4   5
ENDBRANCH   3   4
ENDBRANCH   2   3
ENDBRANCH   1   2
BRANCH   1   7
HETATM    7  C   LIG     1      16.711  35.347  21.136  1.00  0.00     0.111 C 
BRANCH   7   8
HETATM    8  C   LIG     1      15.645  34.336  20.848  1.00  0.00     0.258 C 
HETATM    9  O   LIG     1      14.661  34.222  21.630  1.00  0.00    -0.265 OA
BRANCH   8  10
HETATM   10  O   LIG     1      15.753  33.524  19.715  1.00  0.00    -0.326 OA
HETATM   11  C   LIG     1      15.401  32.145  19.725  1.00  0.00     0.213 C 
ENDBRANCH   8  10
ENDBRANCH   7   8
ENDBRANCH   1   7
TORSDOF 7
ENDMDL
MODEL 4
REMARK VINA RESULT:      -5.6      2.454      5.355
REMARK  7 active torsions:
REMARK  status: ('A' for Active; 'I' for Inactive)
REMARK    1  A    between atoms: C_2  and  C_3 
REMARK    2  A    between atoms: C_3  and  C_4 
REMARK    3  A    between atoms: C_4  and  C_5 
REMARK    4  A    between atoms: C_5  and  C_6 
REMARK    5  A    between atoms: C_6  and  C_7 
REMARK    6  A    between atoms: C_7  and  C_8 
REMARK    7  A    between atoms: C_8  and  O_9 
ROOT
HETATM    1  C   LIG     1      16.974  38.356  22.380  1.00  0.00     0.010 C 
ENDROOT
BRANCH   1   2
HETATM    2  C   LIG     1      18.386  38.968  22.277  1.00  0.00     0.000 C 
BRANCH   2   3
HETATM    3  C   LIG     1      18.702  39.667  20.941  1.00  0.00     0.000 C 
BRANCH   3   4
HETATM    4  C   LIG     1      19.833  38.977  20.160  1.00  0.00    -0.000 C 
BRANCH   4   5
HETATM    5  C   LIG     1      19.304  38.080  19.029  1.00  0.00    -0.005 C 
HETATM    6  C   LIG     1      18.893  36.691  19.517  1.00  0.00     0.005 C 
ENDBRANCH   4   5
ENDBRANCH   3   4
ENDBRANCH   2   3
ENDBRANCH   1   2
BRANCH   1   7
HETATM    7  C   LIG     1      16.921  36.992  23.088  1.00  0.00     0.111 C 
BRANCH   7   8
HETATM    8  C   LIG     1      17.054  37.126  24.573  1.00  0.00     0.258 C 
HETATM    9  O   LIG     1      16.660  38.179  25.146  1.00  0.00    -0.265 OA
BRANCH   8  10
HETATM   10  O   LIG     1      17.617  36.082  25.311  1.00  0.00    -0.326 OA
HETATM   11  C   LIG     1      18.267  36.290  26.561  1.00  0.00     0.213 C 
ENDBRANCH   8  10
ENDBRANCH   7   8
ENDBRANCH   1   7
TORSDOF 7
ENDMDL
MODEL 5
REMARK VINA RESULT:      -5.4      3.505      5.351
REMARK  7 active torsions:
REMARK  status: ('A' for Active; 'I' for Inactive)
REMARK    1  A    between atoms: C_2  and  C_3 
REMARK    2  A    between atoms: C_3  and  C_4 
REMARK    3  A    between atoms: C_4  and  C_5 
REMARK    4  A    between atoms: C_5  and  C_6 
REMARK    5  A    between atoms: C_6  and  C_7 
REMARK    6  A    between atoms: C_7  and  C_8 
REMARK    7  A    between atoms: C_8  and  O_9 
ROOT
HETATM    1  C   LIG     1      16.380  36.533  21.639  1.00  0.00     0.010 C 
ENDROOT
BRANCH   1   2
HETATM    2  C   LIG     1      17.164  37.359  22.680  1.00  0.00     0.000 C 
BRANCH   2   3
HETATM    3  C   LIG     1      17.355  38.846  22.327  1.00  0.00     0.000 C 
BRANCH   3   4
HETATM    4  C   LIG     1      18.774  39.162  21.823  1.00  0.00    -0.000 C 
BRANCH   4   5
HETATM    5  C   LIG     1      18.829  39.341  20.297  1.00  0.00    -0.005 C 
HETATM    6  C   LIG     1      20.110  38.781  19.680  1.00  0.00     0.005 C 
ENDBRANCH   4   5
ENDBRANCH   3   4
ENDBRANCH   2   3
ENDBRANCH   1   2
BRANCH   1   7
HETATM    7  C   LIG     1      16.723  35.035  21.625  1.00  0.00     0.111 C 
BRANCH   7   8
HETATM    8  C   LIG     1      15.619  34.212  21.036  1.00  0.00     0.258 C 
HETATM    9  O   LIG     1      14.505  34.145  21.625  1.00  0.00    -0.265 OA
BRANCH   8  10
HETATM   10  O   LIG     1      15.836  33.521  19.841  1.00  0.00    -0.326 OA
HETATM   11  C   LIG     1      15.339  32.207  19.614  1.00  0.00     0.213 C 
ENDBRANCH   8  10
ENDBRANCH   7   8
ENDBRANCH   1   7
TORSDOF 7
ENDMDL
MODEL 6
REMARK VINA RESULT:      -5.1      4.252      6.071
REMARK  7 active torsions:
REMARK  status: ('A' for Active; 'I' for Inactive)
REMARK    1  A    between atoms: C_2  and  C_3 
REMARK    2  A    between atoms: C_3  and  C_4 
REMARK    3  A    between atoms: C_4  and  C_5 
REMARK    4  A    between atoms: C_5  and  C_6 
REMARK    5  A    between atoms: C_6  and  C_7 
REMARK    6  A    between atoms: C_7  and  C_8 
REMARK    7  A    between atoms: C_8  and  O_9 
ROOT
HETATM    1  C   LIG     1      16.866  35.495  23.002  1.00  0.00     0.010 C 
ENDROOT
BRANCH   1   2
HETATM    2  C   LIG     1      16.724  35.167  21.501  1.00  0.00     0.000 C 
BRANCH   2   3
HETATM    3  C   LIG     1      15.441  34.407  21.116  1.00  0.00     0.000 C 
BRANCH   3   4
HETATM    4  C   LIG     1      15.522  33.770  19.718  1.00  0.00    -0.000 C 
BRANCH   4   5
HETATM    5  C   LIG     1      15.404  32.238  19.763  1.00  0.00    -0.005 C 
HETATM    6  C   LIG     1      14.564  31.673  18.618  1.00  0.00     0.005 C 
ENDBRANCH   4   5
ENDBRANCH   3   4
ENDBRANCH   2   3
ENDBRANCH   1   2
BRANCH   1   7
HETATM    7  C   LIG     1      16.834  36.996  23.332  1.00  0.00     0.111 C 
BRANCH   7   8
HETATM    8  C   LIG     1      17.125  37.260  24.777  1.00  0.00     0.258 C 
HETATM    9  O   LIG     1      17.046  38.436  25.228  1.00  0.00    -0.265 OA
BRANCH   8  10
HETATM   10  O   LIG     1      17.484  36.199  25.612  1.00  0.00    -0.326 OA
HETATM   11  C   LIG     1      18.354  36.362  26.727  1.00  0.00     0.213 C 
ENDBRANCH   8  10
ENDBRANCH   7   8
ENDBRANCH   1   7
TORSDOF 7
ENDMDL
MODEL 7
REMARK VINA RESULT:      -5.0      2.659      5.530
REMARK  7 active torsions:
REMARK  status: ('A' for Active; 'I' for Inactive)
REMARK    1  A    between atoms: C_2  and  C_3 
REMARK    2  A    between atoms: C_3  and  C_4 
REMARK    3  A    between atoms: C_4  and  C_5 
REMARK    4  A    between atoms: C_5  and  C_6 
REMARK    5  A    between atoms: C_6  and  C_7 
REMARK    6  A    between atoms: C_7  and  C_8 
REMARK    7  A    between atoms: C_8  and  O_9 
ROOT
HETATM    1  C   LIG     1      16.211  36.906  22.149  1.00  0.00     0.010 C 
ENDROOT
BRANCH   1   2
HETATM    2  C   LIG     1      16.781  36.150  20.931  1.00  0.00     0.000 C 
BRANCH   2   3
HETATM    3  C   LIG     1      18.289  36.343  20.688  1.00  0.00     0.000 C 
BRANCH   3   4
HETATM    4  C   LIG     1      18.592  37.112  19.391  1.00  0.00    -0.000 C 
BRANCH   4   5
HETATM    5  C   LIG     1      19.578  38.270  19.610  1.00  0.00    -0.005 C 
HETATM    6  C   LIG     1      19.000  39.383  20.485  1.00  0.00     0.005 C 
ENDBRANCH   4   5
ENDBRANCH   3   4
ENDBRANCH   2   3
ENDBRANCH   1   2
BRANCH   1   7
HETATM    7  C   LIG     1      17.260  37.307  23.199  1.00  0.00     0.111 C 
BRANCH   7   8
HETATM    8  C   LIG     1      17.290  36.354  24.354  1.00  0.00     0.258 C 
HETATM    9  O   LIG     1      17.248  35.111  24.143  1.00  0.00    -0.265 OA
BRANCH   8  10
HETATM   10  O   LIG     1      17.361  36.854  25.657  1.00  0.00    -0.326 OA
HETATM   11  C   LIG     1      18.446  36.561  26.531  1.00  0.00     0.213 C 
ENDBRANCH   8  10
ENDBRANCH   7   8
ENDBRANCH   1   7
TORSDOF 7
ENDMDL
MODEL 8
REMARK VINA RESULT:      -5.0      9.610     11.060
REMARK  7 active torsions:
REMARK  status: ('A' for Active; 'I' for Inactive)
REMARK    1  A    between atoms: C_2  and  C_3 
REMARK    2  A    between atoms: C_3  and  C_4 
REMARK    3  A    between atoms: C_4  and  C_5 
REMARK    4  A    between atoms: C_5  and  C_6 
REMARK    5  A    between atoms: C_6  and  C_7 
REMARK    6  A    between atoms: C_7  and  C_8 
REMARK    7  A    between atoms: C_8  and  O_9 
ROOT
HETATM    1  C   LIG     1      15.740  31.558  13.676  1.00  0.00     0.010 C 
ENDROOT
BRANCH   1   2
HETATM    2  C   LIG     1      15.491  30.236  14.431  1.00  0.00     0.000 C 
BRANCH   2   3
HETATM    3  C   LIG     1      14.061  29.676  14.318  1.00  0.00     0.000 C 
BRANCH   3   4
HETATM    4  C   LIG     1      13.069  30.375  15.263  1.00  0.00    -0.000 C 
BRANCH   4   5
HETATM    5  C   LIG     1      13.701  30.732  16.618  1.00  0.00    -0.005 C 
HETATM    6  C   LIG     1      13.538  32.208  16.979  1.00  0.00     0.005 C 
ENDBRANCH   4   5
ENDBRANCH   3   4
ENDBRANCH   2   3
ENDBRANCH   1   2
BRANCH   1   7
HETATM    7  C   LIG     1      16.499  32.621  14.485  1.00  0.00     0.111 C 
BRANCH   7   8
HETATM    8  C   LIG     1      17.445  33.408  13.631  1.00  0.00     0.258 C 
HETATM    9  O   LIG     1      17.592  34.645  13.834  1.00  0.00    -0.265 OA
BRANCH   8  10
HETATM   10  O   LIG     1      18.153  32.763  12.614  1.00  0.00    -0.326 OA
HETATM   11  C   LIG     1      19.094  33.441  11.788  1.00  0.00     0.213 C 
ENDBRANCH   8  10
ENDBRANCH   7   8
ENDBRANCH   1   7
TORSDOF 7
ENDMDL
MODEL 9
REMARK VINA RESULT:      -4.9      8.436     10.915
REMARK  7 active torsions:
REMARK  status: ('A' for Active; 'I' for Inactive)
REMARK    1  A    between atoms: C_2  and  C_3 
REMARK    2  A    between atoms: C_3  and  C_4 
REMARK    3  A    between atoms: C_4  and  C_5 
REMARK    4  A    between atoms: C_5  and  C_6 
REMARK    5  A    between atoms: C_6  and  C_7 
REMARK    6  A    between atoms: C_7  and  C_8 
REMARK    7  A    between atoms: C_8  and  O_9 
ROOT
HETATM    1  C   LIG     1      13.270  32.050  16.787  1.00  0.00     0.010 C 
ENDROOT
BRANCH   1   2
HETATM    2  C   LIG     1      13.127  30.562  16.405  1.00  0.00     0.000 C 
BRANCH   2   3
HETATM    3  C   LIG     1      13.488  30.223  14.947  1.00  0.00     0.000 C 
BRANCH   3   4
HETATM    4  C   LIG     1      14.983  29.908  14.760  1.00  0.00    -0.000 C 
BRANCH   4   5
HETATM    5  C   LIG     1      15.267  29.168  13.443  1.00  0.00    -0.005 C 
HETATM    6  C   LIG     1      15.309  27.650  13.613  1.00  0.00     0.005 C 
ENDBRANCH   4   5
ENDBRANCH   3   4
ENDBRANCH   2   3
ENDBRANCH   1   2
BRANCH   1   7
HETATM    7  C   LIG     1      14.610  32.413  17.446  1.00  0.00     0.111 C 
BRANCH   7   8
HETATM    8  C   LIG     1      15.321  33.505  16.708  1.00  0.00     0.258 C 
HETATM    9  O   LIG     1      15.537  34.610  17.278  1.00  0.00    -0.265 OA
BRANCH   8  10
HETATM   10  O   LIG     1      15.736  33.289  15.392  1.00  0.00    -0.326 OA
HETATM   11  C   LIG     1      17.035  32.805  15.068  1.00  0.00     0.213 C 
ENDBRANCH   8  10
ENDBRANCH   7   8
ENDBRANCH   1   7
TORSDOF 7
ENDMDL
MODEL 10
REMARK VINA RESULT:      -4.9      2.270      3.239
REMARK  7 active torsions:
REMARK  status: ('A' for Active; 'I' for Inactive)
REMARK    1  A    between atoms: C_2  and  C_3 
REMARK    2  A    between atoms: C_3  and  C_4 
REMARK    3  A    between atoms: C_4  and  C_5 
REMARK    4  A    between atoms: C_5  and  C_6 
REMARK    5  A    between atoms: C_6  and  C_7 
REMARK    6  A    between atoms: C_7  and  C_8 
REMARK    7  A    between atoms: C_8  and  O_9 
ROOT
HETATM    1  C   LIG     1      16.813  38.573  22.371  1.00  0.00     0.010 C 
ENDROOT
BRANCH   1   2
HETATM    2  C   LIG     1      16.716  37.429  23.401  1.00  0.00     0.000 C 
BRANCH   2   3
HETATM    3  C   LIG     1      16.876  36.011  22.822  1.00  0.00     0.000 C 
BRANCH   3   4
HETATM    4  C   LIG     1      16.086  35.806  21.518  1.00  0.00    -0.000 C 
BRANCH   4   5
HETATM    5  C   LIG     1      15.297  34.487  21.512  1.00  0.00    -0.005 C 
HETATM    6  C   LIG     1      15.555  33.647  20.261  1.00  0.00     0.005 C 
ENDBRANCH   4   5
ENDBRANCH   3   4
ENDBRANCH   2   3
ENDBRANCH   1   2
BRANCH   1   7
HETATM    7  C   LIG     1      18.239  39.096  22.131  1.00  0.00     0.111 C 
BRANCH   7   8
HETATM    8  C   LIG     1      18.695  38.858  20.725  1.00  0.00     0.258 C 
HETATM    9  O   LIG     1      19.296  39.774  20.098  1.00  0.00    -0.265 OA
BRANCH   8  10
HETATM   10  O   LIG     1      18.447  37.624  20.119  1.00  0.00    -0.326 OA
HETATM   11  C   LIG     1      19.466  36.870  19.472  1.00  0.00     0.213 C 
ENDBRANCH   8  10
ENDBRANCH   7   8
ENDBRANCH   1   7
TORSDOF 7
ENDMDL
MODEL 11
REMARK VINA RESULT:      -4.8      2.562      5.531
REMARK  7 active torsions:
REMARK  status: ('A' for Active; 'I' for Inactive)
REMARK    1  A    between atoms: C_2  and  C_3 
REMARK    2  A    between atoms: C_3  and  C_4 
REMARK    3  A    between atoms: C_4  and  C_5 
REMARK    4  A    between atoms: C_5  and  C_6 
REMARK    5  A    between atoms: C_6  and  C_7 
REMARK    6  A    between atoms: C_7  and  C_8 
REMARK    7  A    between atoms: C_8  and  O_9 
ROOT
HETATM    1  C   LIG     1      16.267  35.568  22.155  1.00  0.00     0.010 C 
ENDROOT
BRANCH   1   2
HETATM    2  C   LIG     1      17.138  35.641  20.883  1.00  0.00     0.000 C 
BRANCH   2   3
HETATM    3  C   LIG     1      18.034  36.888  20.773  1.00  0.00     0.000 C 
BRANCH   3   4
HETATM    4  C   LIG     1      18.895  36.894  19.499  1.00  0.00    -0.000 C 
BRANCH   4   5
HETATM    5  C   LIG     1      19.621  38.232  19.287  1.00  0.00    -0.005 C 
HETATM    6  C   LIG     1      18.980  39.089  18.195  1.00  0.00     0.005 C 
ENDBRANCH   4   5
ENDBRANCH   3   4
ENDBRANCH   2   3
ENDBRANCH   1   2
BRANCH   1   7
HETATM    7  C   LIG     1      17.059  35.601  23.472  1.00  0.00     0.111 C 
BRANCH   7   8
HETATM    8  C   LIG     1      16.892  36.902  24.194  1.00  0.00     0.258 C 
HETATM    9  O   LIG     1      17.453  37.075  25.311  1.00  0.00    -0.265 OA
BRANCH   8  10
HETATM   10  O   LIG     1      16.111  37.912  23.625  1.00  0.00    -0.326 OA
HETATM   11  C   LIG     1      16.672  39.114  23.109  1.00  0.00     0.213 C 
ENDBRANCH   8  10
ENDBRANCH   7   8
ENDBRANCH   1   7
TORSDOF 7
ENDMDL
MODEL 12
REMARK VINA RESULT:      -4.7      7.887     10.247
REMARK  7 active torsions:
REMARK  status: ('A' for Active; 'I' for Inactive)
REMARK    1  A    between atoms: C_2  and  C_3 
REMARK    2  A    between atoms: C_3  and  C_4 
REMARK    3  A    between atoms: C_4  and  C_5 
REMARK    4  A    between atoms: C_5  and  C_6 
REMARK    5  A    between atoms: C_6  and  C_7 
REMARK    6  A    between atoms: C_7  and  C_8 
REMARK    7  A    between atoms: C_8  and  O_9 
ROOT
HETATM    1  C   LIG     1      15.329  30.693  14.753  1.00  0.00     0.010 C 
ENDROOT
BRANCH   1   2
HETATM    2  C   LIG     1      13.843  30.317  14.925  1.00  0.00     0.000 C 
BRANCH   2   3
HETATM    3  C   LIG     1      13.197  30.786  16.242  1.00  0.00     0.000 C 
BRANCH   3   4
HETATM    4  C   LIG     1      13.991  31.910  16.930  1.00  0.00    -0.000 C 
BRANCH   4   5
HETATM    5  C   LIG     1      14.329  31.580  18.392  1.00  0.00    -0.005 C 
HETATM    6  C   LIG     1      15.320  32.566  19.010  1.00  0.00     0.005 C 
ENDBRANCH   4   5
ENDBRANCH   3   4
ENDBRANCH   2   3
ENDBRANCH   1   2
BRANCH   1   7
HETATM    7  C   LIG     1      15.654  31.420  13.438  1.00  0.00     0.111 C 
BRANCH   7   8
HETATM    8  C   LIG     1      16.666  32.506  13.633  1.00  0.00     0.258 C 
HETATM    9  O   LIG     1      17.659  32.584  12.858  1.00  0.00    -0.265 OA
BRANCH   8  10
HETATM   10  O   LIG     1      16.503  33.422  14.675  1.00  0.00    -0.326 OA
HETATM   11  C   LIG     1      17.356  34.549  14.846  1.00  0.00     0.213 C 
ENDBRANCH   8  10
ENDBRANCH   7   8
ENDBRANCH   1   7
TORSDOF 7
ENDMDL
MODEL 13
REMARK VINA RESULT:      -4.7      1.772      2.942
REMARK  7 active torsions:
REMARK  status: ('A' for Active; 'I' for Inactive)
REMARK    1  A    between atoms: C_2  and  C_3 
REMARK    2  A    between atoms: C_3  and  C_4 
REMARK    3  A    between atoms: C_4  and  C_5 
REMARK    4  A    between atoms: C_5  and  C_6 
REMARK    5  A    between atoms: C_6  and  C_7 
REMARK    6  A    between atoms: C_7  and  C_8 
REMARK    7  A    between atoms: C_8  and  O_9 
ROOT
HETATM    1  C   LIG     1      17.555  36.168  20.842  1.00  0.00     0.010 C 
ENDROOT
BRANCH   1   2
HETATM    2  C   LIG     1      17.012  36.273  22.283  1.00  0.00     0.000 C 
BRANCH   2   3
HETATM    3  C   LIG     1      16.315  37.603  22.625  1.00  0.00     0.000 C 
BRANCH   3   4
HETATM    4  C   LIG     1      17.273  38.640  23.235  1.00  0.00    -0.000 C 
BRANCH   4   5
HETATM    5  C   LIG     1      18.112  38.059  24.385  1.00  0.00    -0.005 C 
HETATM    6  C   LIG     1      17.312  37.888  25.676  1.00  0.00     0.005 C 
ENDBRANCH   4   5
ENDBRANCH   3   4
ENDBRANCH   2   3
ENDBRANCH   1   2
BRANCH   1   7
HETATM    7  C   LIG     1      18.555  37.269  20.456  1.00  0.00     0.111 C 
BRANCH   7   8
HETATM    8  C   LIG     1      18.644  37.452  18.973  1.00  0.00     0.258 C 
HETATM    9  O   LIG     1      18.184  36.564  18.203  1.00  0.00    -0.265 OA
BRANCH   8  10
HETATM   10  O   LIG     1      19.239  38.605  18.455  1.00  0.00    -0.326 OA
HETATM   11  C   LIG     1      18.678  39.335  17.370  1.00  0.00     0.213 C 
ENDBRANCH   8  10
ENDBRANCH   7   8
ENDBRANCH   1   7
TORSDOF 7
ENDMDL
MODEL 14
REMARK VINA RESULT:      -4.7      4.281      5.813
REMARK  7 active torsions:
REMARK  status: ('A' for Active; 'I' for Inactive)
REMARK    1  A    between atoms: C_2  and  C_3 
REMARK    2  A    between atoms: C_3  and  C_4 
REMARK    3  A    between atoms: C_4  and  C_5 
REMARK    4  A    between atoms: C_5  and  C_6 
REMARK    5  A    between atoms: C_6  and  C_7 
REMARK    6  A    between atoms: C_7  and  C_8 
REMARK    7  A    between atoms: C_8  and  O_9 
ROOT
HETATM    1  C   LIG     1      16.701  35.818  21.638  1.00  0.00     0.010 C 
ENDROOT
BRANCH   1   2
HETATM    2  C   LIG     1      15.259  35.470  21.213  1.00  0.00     0.000 C 
BRANCH   2   3
HETATM    3  C   LIG     1      14.923  33.967  21.207  1.00  0.00     0.000 C 
BRANCH   3   4
HETATM    4  C   LIG     1      15.599  33.209  20.052  1.00  0.00    -0.000 C 
BRANCH   4   5
HETATM    5  C   LIG     1      14.920  31.862  19.757  1.00  0.00    -0.005 C 
HETATM    6  C   LIG     1      14.435  31.745  18.312  1.00  0.00     0.005 C 
ENDBRANCH   4   5
ENDBRANCH   3   4
ENDBRANCH   2   3
ENDBRANCH   1   2
BRANCH   1   7
HETATM    7  C   LIG     1      16.987  35.628  23.136  1.00  0.00     0.111 C 
BRANCH   7   8
HETATM    8  C   LIG     1      17.212  36.933  23.835  1.00  0.00     0.258 C 
HETATM    9  O   LIG     1      16.924  37.047  25.059  1.00  0.00    -0.265 OA
BRANCH   8  10
HETATM   10  O   LIG     1      17.736  38.015  23.123  1.00  0.00    -0.326 OA
HETATM   11  C   LIG     1      16.940  39.124  22.720  1.00  0.00     0.213 C 
ENDBRANCH   8  10
ENDBRANCH   7   8
ENDBRANCH   1   7
TORSDOF 7
ENDMDL
MODEL 15
REMARK VINA RESULT:      -4.6      2.528      6.041
REMARK  7 active torsions:
REMARK  status: ('A' for Active; 'I' for Inactive)
REMARK    1  A    between atoms: C_2  and  C_3 
REMARK    2  A    between atoms: C_3  and  C_4 
REMARK    3  A    between atoms: C_4  and  C_5 
REMARK    4  A    between atoms: C_5  and  C_6 
REMARK    5  A    between atoms: C_6  and  C_7 
REMARK    6  A    between atoms: C_7  and  C_8 
REMARK    7  A    between atoms: C_8  and  O_9 
ROOT
HETATM    1  C   LIG     1      17.454  37.772  21.182  1.00  0.00     0.010 C 
ENDROOT
BRANCH   1   2
HETATM    2  C   LIG     1      18.632  38.705  21.530  1.00  0.00     0.000 C 
BRANCH   2   3
HETATM    3  C   LIG     1      19.553  39.065  20.350  1.00  0.00     0.000 C 
BRANCH   3   4
HETATM    4  C   LIG     1      19.008  38.577  18.997  1.00  0.00    -0.000 C 
BRANCH   4   5
HETATM    5  C   LIG     1      18.609  39.737  18.071  1.00  0.00    -0.005 C 
HETATM    6  C   LIG     1      18.749  39.389  16.589  1.00  0.00     0.005 C 
ENDBRANCH   4   5
ENDBRANCH   3   4
ENDBRANCH   2   3
ENDBRANCH   1   2
BRANCH   1   7
HETATM    7  C   LIG     1      17.601  36.336  21.712  1.00  0.00     0.111 C 
BRANCH   7   8
HETATM    8  C   LIG     1      17.018  36.181  23.083  1.00  0.00     0.258 C 
HETATM    9  O   LIG     1      16.945  35.036  23.607  1.00  0.00    -0.265 OA
BRANCH   8  10
HETATM   10  O   LIG     1      16.556  37.309  23.767  1.00  0.00    -0.326 OA
HETATM   11  C   LIG     1      17.144  37.762  24.981  1.00  0.00     0.213 C 
ENDBRANCH   8  10
ENDBRANCH   7   8
ENDBRANCH   1   7
TORSDOF 7
ENDMDL
MODEL 16
REMARK VINA RESULT:      -4.6      3.822      4.799
REMARK  7 active torsions:
REMARK  status: ('A' for Active; 'I' for Inactive)
REMARK    1  A    between atoms: C_2  and  C_3 
REMARK    2  A    between atoms: C_3  and  C_4 
REMARK    3  A    between atoms: C_4  and  C_5 
REMARK    4  A    between atoms: C_5  and  C_6 
REMARK    5  A    between atoms: C_6  and  C_7 
REMARK    6  A    between atoms: C_7  and  C_8 
REMARK    7  A    between atoms: C_8  and  O_9 
ROOT
HETATM    1  C   LIG     1      16.673  34.870  21.189  1.00  0.00     0.010 C 
ENDROOT
BRANCH   1   2
HETATM    2  C   LIG     1      17.256  36.237  21.603  1.00  0.00     0.000 C 
BRANCH   2   3
HETATM    3  C   LIG     1      16.297  37.146  22.392  1.00  0.00     0.000 C 
BRANCH   3   4
HETATM    4  C   LIG     1      16.967  38.443  22.879  1.00  0.00    -0.000 C 
BRANCH   4   5
HETATM    5  C   LIG     1      17.948  38.197  24.036  1.00  0.00    -0.005 C 
HETATM    6  C   LIG     1      17.252  37.747  25.320  1.00  0.00     0.005 C 
ENDBRANCH   4   5
ENDBRANCH   3   4
ENDBRANCH   2   3
ENDBRANCH   1   2
BRANCH   1   7
HETATM    7  C   LIG     1      15.429  34.954  20.290  1.00  0.00     0.111 C 
BRANCH   7   8
HETATM    8  C   LIG     1      15.571  34.121  19.054  1.00  0.00     0.258 C 
HETATM    9  O   LIG     1      15.524  34.670  17.919  1.00  0.00    -0.265 OA
BRANCH   8  10
HETATM   10  O   LIG     1      15.752  32.740  19.171  1.00  0.00    -0.326 OA
HETATM   11  C   LIG     1      14.857  31.909  19.902  1.00  0.00     0.213 C 
ENDBRANCH   8  10
ENDBRANCH   7   8
ENDBRANCH   1   7
TORSDOF 7
ENDMDL
MODEL 17
REMARK VINA RESULT:      -4.4      7.486      9.473
REMARK  7 active torsions:
REMARK  status: ('A' for Active; 'I' for Inactive)
REMARK    1  A    between atoms: C_2  and  C_3 
REMARK    2  A    between atoms: C_3  and  C_4 
REMARK    3  A    between atoms: C_4  and  C_5 
REMARK    4  A    between atoms: C_5  and  C_6 
REMARK    5  A    between atoms: C_6  and  C_7 
REMARK    6  A    between atoms: C_7  and  C_8 
REMARK    7  A    between atoms: C_8  and  O_9 
ROOT
HETATM    1  C   LIG     1      17.036  32.311  15.236  1.00  0.00     0.010 C 
ENDROOT
BRANCH   1   2
HETATM    2  C   LIG     1      15.575  31.904  14.949  1.00  0.00     0.000 C 
BRANCH   2   3
HETATM    3  C   LIG     1      14.628  31.966  16.161  1.00  0.00     0.000 C 
BRANCH   3   4
HETATM    4  C   LIG     1      15.286  32.592  17.403  1.00  0.00    -0.000 C 
BRANCH   4   5
HETATM    5  C   LIG     1      14.836  31.919  18.709  1.00  0.00    -0.005 C 
HETATM    6  C   LIG     1      15.228  32.716  19.953  1.00  0.00     0.005 C 
ENDBRANCH   4   5
ENDBRANCH   3   4
ENDBRANCH   2   3
ENDBRANCH   1   2
BRANCH   1   7
HETATM    7  C   LIG     1      17.372  33.768  14.884  1.00  0.00     0.111 C 
BRANCH   7   8
HETATM    8  C   LIG     1      17.683  33.937  13.429  1.00  0.00     0.258 C 
HETATM    9  O   LIG     1      17.417  35.029  12.853  1.00  0.00    -0.265 OA
BRANCH   8  10
HETATM   10  O   LIG     1      18.261  32.881  12.720  1.00  0.00    -0.326 OA
HETATM   11  C   LIG     1      19.137  33.087  11.617  1.00  0.00     0.213 C 
ENDBRANCH   8  10
ENDBRANCH   7   8
ENDBRANCH   1   7
TORSDOF 7
ENDMDL
MODEL 18
REMARK VINA RESULT:      -4.4      5.044      7.300
REMARK  7 active torsions:
REMARK  status: ('A' for Active; 'I' for Inactive)
REMARK    1  A    between atoms: C_2  and  C_3 
REMARK    2  A    between atoms: C_3  and  C_4 
REMARK    3  A    between atoms: C_4  and  C_5 
REMARK    4  A    between atoms: C_5  and  C_6 
REMARK    5  A    between atoms: C_6  and  C_7 
REMARK    6  A    between atoms: C_7  and  C_8 
REMARK    7  A    between atoms: C_8  and  O_9 
ROOT
HETATM    1  C   LIG     1      15.992  34.260  20.988  1.00  0.00     0.010 C 
ENDROOT
BRANCH   1   2
HETATM    2  C   LIG     1      15.521  34.069  19.531  1.00  0.00     0.000 C 
BRANCH   2   3
HETATM    3  C   LIG     1      15.259  32.610  19.114  1.00  0.00     0.000 C 
BRANCH   3   4
HETATM    4  C   LIG     1      15.111  32.442  17.592  1.00  0.00    -0.000 C 
BRANCH   4   5
HETATM    5  C   LIG     1      13.687  32.034  17.182  1.00  0.00    -0.005 C 
HETATM    6  C   LIG     1      13.665  30.907  16.150  1.00  0.00     0.005 C 
ENDBRANCH   4   5
ENDBRANCH   3   4
ENDBRANCH   2   3
ENDBRANCH   1   2
BRANCH   1   7
HETATM    7  C   LIG     1      16.885  35.491  21.213  1.00  0.00     0.111 C 
BRANCH   7   8
HETATM    8  C   LIG     1      16.193  36.546  22.020  1.00  0.00     0.258 C 
HETATM    9  O   LIG     1      14.933  36.614  22.015  1.00  0.00    -0.265 OA
BRANCH   8  10
HETATM   10  O   LIG     1      16.952  37.448  22.770  1.00  0.00    -0.326 OA
HETATM   11  C   LIG     1      16.744  37.651  24.163  1.00  0.00     0.213 C 
ENDBRANCH   8  10
ENDBRANCH   7   8
ENDBRANCH   1   7
TORSDOF 7
ENDMDL
MODEL 19
REMARK VINA RESULT:      -4.3     10.353     11.930
REMARK  7 active torsions:
REMARK  status: ('A' for Active; 'I' for Inactive)
REMARK    1  A    between atoms: C_2  and  C_3 
REMARK    2  A    between atoms: C_3  and  C_4 
REMARK    3  A    between atoms: C_4  and  C_5 
REMARK    4  A    between atoms: C_5  and  C_6 
REMARK    5  A    between atoms: C_6  and  C_7 
REMARK    6  A    between atoms: C_7  and  C_8 
REMARK    7  A    between atoms: C_8  and  O_9 
ROOT
HETATM    1  C   LIG     1      17.367  33.413  14.351  1.00  0.00     0.010 C 
ENDROOT
BRANCH   1   2
HETATM    2  C   LIG     1      18.757  33.681  13.736  1.00  0.00     0.000 C 
BRANCH   2   3
HETATM    3  C   LIG     1      18.758  33.984  12.227  1.00  0.00     0.000 C 
BRANCH   3   4
HETATM    4  C   LIG     1      20.172  34.209  11.664  1.00  0.00    -0.000 C 
BRANCH   4   5
HETATM    5  C   LIG     1      21.272  33.829  12.668  1.00  0.00    -0.005 C 
HETATM    6  C   LIG     1      22.217  34.988  12.982  1.00  0.00     0.005 C 
ENDBRANCH   4   5
ENDBRANCH   3   4
ENDBRANCH   2   3
ENDBRANCH   1   2
BRANCH   1   7
HETATM    7  C   LIG     1      16.470  32.486  13.516  1.00  0.00     0.111 C 
BRANCH   7   8
HETATM    8  C   LIG     1      15.782  31.459  14.362  1.00  0.00     0.258 C 
HETATM    9  O   LIG     1      15.146  31.819  15.391  1.00  0.00    -0.265 OA
BRANCH   8  10
HETATM   10  O   LIG     1      15.855  30.110  14.005  1.00  0.00    -0.326 OA
HETATM   11  C   LIG     1      14.740  29.231  14.101  1.00  0.00     0.213 C 
ENDBRANCH   8  10
ENDBRANCH   7   8
ENDBRANCH   1   7
TORSDOF 7
ENDMDL
MODEL 20
REMARK VINA RESULT:      -4.2      8.819     11.566
REMARK  7 active torsions:
REMARK  status: ('A' for Active; 'I' for Inactive)
REMARK    1  A    between atoms: C_2  and  C_3 
REMARK    2  A    between atoms: C_3  and  C_4 
REMARK    3  A    between atoms: C_4  and  C_5 
REMARK    4  A    between atoms: C_5  and  C_6 
REMARK    5  A    between atoms: C_6  and  C_7 
REMARK    6  A    between atoms: C_7  and  C_8 
REMARK    7  A    between atoms: C_8  and  O_9 
ROOT
HETATM    1  C   LIG     1      17.404  33.307  14.853  1.00  0.00     0.010 C 
ENDROOT
BRANCH   1   2
HETATM    2  C   LIG     1      17.627  33.310  13.327  1.00  0.00     0.000 C 
BRANCH   2   3
HETATM    3  C   LIG     1      19.048  33.692  12.873  1.00  0.00     0.000 C 
BRANCH   3   4
HETATM    4  C   LIG     1      19.315  33.355  11.396  1.00  0.00    -0.000 C 
BRANCH   4   5
HETATM    5  C   LIG     1      20.767  32.915  11.148  1.00  0.00    -0.005 C 
HETATM    6  C   LIG     1      20.864  31.577  10.415  1.00  0.00     0.005 C 
ENDBRANCH   4   5
ENDBRANCH   3   4
ENDBRANCH   2   3
ENDBRANCH   1   2
BRANCH   1   7
HETATM    7  C   LIG     1      16.144  32.555  15.311  1.00  0.00     0.111 C 
BRANCH   7   8
HETATM    8  C   LIG     1      15.398  33.303  16.373  1.00  0.00     0.258 C 
HETATM    9  O   LIG     1      15.609  34.537  16.535  1.00  0.00    -0.265 OA
BRANCH   8  10
HETATM   10  O   LIG     1      14.478  32.625  17.176  1.00  0.00    -0.326 OA
HETATM   11  C   LIG     1      13.838  31.423  16.761  1.00  0.00     0.213 C 
ENDBRANCH   8  10
ENDBRANCH   7   8
ENDBRANCH   1   7
TORSDOF 7
ENDMDL
