MODEL 1
REMARK VINA RESULT:      -4.8      0.000      0.000
REMARK  5 active torsions:
REMARK  status: ('A' for Active; 'I' for Inactive)
REMARK    1  A    between atoms: C_2  and  C_3 
REMARK    2  A    between atoms: C_3  and  C_4 
REMARK    3  A    between atoms: C_4  and  C_5 
REMARK    4  A    between atoms: C_5  and  C_6 
REMARK    5  A    between atoms: C_6  and  N_7 
ROOT
HETATM    1  C   LIG     1      17.477  38.249  23.955  1.00  0.00     0.030 C 
ENDROOT
BRANCH   1   2
HETATM    2  C   LIG     1      17.346  37.848  25.431  1.00  0.00     0.002 C 
BRANCH   2   3
HETATM    3  C   LIG     1      18.601  37.105  25.911  1.00  0.00    -0.000 C 
BRANCH   3   4
HETATM    4  C   LIG     1      18.273  35.756  26.572  1.00  0.00    -0.005 C 
HETATM    5  C   LIG     1      17.381  34.871  25.701  1.00  0.00     0.005 C 
ENDBRANCH   3   4
ENDBRANCH   2   3
ENDBRANCH   1   2
BRANCH   1   6
HETATM    6  C   LIG     1      16.465  37.522  23.061  1.00  0.00     0.267 C 
BRANCH   6   7
HETATM    7  N   LIG     1      15.161  38.178  23.106  1.00  0.00     0.078 N 
HETATM    8  H   LIG     1      14.591  37.704  23.845  1.00  0.00     0.312 HD
HETATM    9  H   LIG     1      14.668  37.996  22.203  1.00  0.00     0.312 HD
ENDBRANCH   6   7
ENDBRANCH   1   6
TORSDOF 5
ENDMDL
MODEL 2
REMARK VINA RESULT:      -4.4      2.159      2.739
REMARK  5 active torsions:
REMARK  status: ('A' for Active; 'I' for Inactive)
REMARK    1  A    between atoms: C_2  and  C_3 
REMARK    2  A    between atoms: C_3  and  C_4 
REMARK    3  A    between atoms: C_4  and  C_5 
REMARK    4  A    between atoms: C_5  and  C_6 
REMARK    5  A    between atoms: C_6  and  N_7 
ROOT
HETATM    1  C   LIG     1      16.754  35.162  22.196  1.00  0.00     0.030 C 
ENDROOT
BRANCH   1   2
HETATM    2  C   LIG     1      16.796  36.552  22.845  1.00  0.00     0.002 C 
BRANCH   2   3
HETATM    3  C   LIG     1      17.170  36.452  24.331  1.00  0.00    -0.000 C 
BRANCH   3   4
HETATM    4  C   LIG     1      17.323  34.998  24.806  1.00  0.00    -0.005 C 
HETATM    5  C   LIG     1      18.025  34.889  26.159  1.00  0.00     0.005 C 
ENDBRANCH   3   4
ENDBRANCH   2   3
ENDBRANCH   1   2
BRANCH   1   6
HETATM    6  C   LIG     1      15.817  35.110  20.983  1.00  0.00     0.267 C 
BRANCH   6   7
HETATM    7  N   LIG     1      14.509  35.672  21.308  1.00  0.00     0.078 N 
HETATM    8  H   LIG     1      13.785  34.958  21.063  1.00  0.00     0.312 HD
HETATM    9  H   LIG     1      14.334  36.487  20.677  1.00  0.00     0.312 HD
ENDBRANCH   6   7
ENDBRANCH   1   6
TORSDOF 5
ENDMDL
MODEL 3
REMARK VINA RESULT:      -4.3      3.084      4.725
REMARK  5 active torsions:
REMARK  status: ('A' for Active; 'I' for Inactive)
REMARK    1  A    between atoms: C_2  and  C_3 
REMARK    2  A    between atoms: C_3  and  C_4 
REMARK    3  A    between atoms: C_4  and  C_5 
REMARK    4  A    between atoms: C_5  and  C_6 
REMARK    5  A    between atoms: C_6  and  N_7 
ROOT
HETATM    1  C   LIG     1      17.147  38.867  22.961  1.00  0.00     0.030 C 
ENDROOT
BRANCH   1   2
HETATM    2  C   LIG     1      17.772  38.239  21.707  1.00  0.00     0.002 C 
BRANCH   2   3
HETATM    3  C   LIG     1      18.807  39.184  21.079  1.00  0.00    -0.000 C 
BRANCH   3   4
HETATM    4  C   LIG     1      19.400  38.627  19.774  1.00  0.00    -0.005 C 
HETATM    5  C   LIG     1      19.103  37.140  19.576  1.00  0.00     0.005 C 
ENDBRANCH   3   4
ENDBRANCH   2   3
ENDBRANCH   1   2
BRANCH   1   6
HETATM    6  C   LIG     1      17.054  37.876  24.128  1.00  0.00     0.267 C 
BRANCH   6   7
HETATM    7  N   LIG     1      17.281  38.549  25.404  1.00  0.00     0.078 N 
HETATM    8  H   LIG     1      17.127  37.848  26.165  1.00  0.00     0.312 HD
HETATM    9  H   LIG     1      16.541  39.277  25.529  1.00  0.00     0.312 HD
ENDBRANCH   6   7
ENDBRANCH   1   6
TORSDOF 5
ENDMDL
MODEL 4
REMARK VINA RESULT:      -4.3      1.664      2.345
REMARK  5 active torsions:
REMARK  status: ('A' for Active; 'I' for Inactive)
REMARK    1  A    between atoms: C_2  and  C_3 
REMARK    2  A    between atoms: C_3  and  C_4 
REMARK    3  A    between atoms: C_4  and  C_5 
REMARK    4  A    between atoms: C_5  and  C_6 
REMARK    5  A    between atoms: C_6  and  N_7 
ROOT
HETATM    1  C   LIG     1      16.851  35.338  22.721  1.00  0.00     0.030 C 
ENDROOT
BRANCH   1   2
HETATM    2  C   LIG     1      17.197  35.936  24.092  1.00  0.00     0.002 C 
BRANCH   2   3
HETATM    3  C   LIG     1      17.372  34.830  25.144  1.00  0.00    -0.000 C 
BRANCH   3   4
HETATM    4  C   LIG     1      18.194  35.293  26.357  1.00  0.00    -0.005 C 
HETATM    5  C   LIG     1      18.510  36.788  26.322  1.00  0.00     0.005 C 
ENDBRANCH   3   4
ENDBRANCH   2   3
ENDBRANCH   1   2
BRANCH   1   6
HETATM    6  C   LIG     1      17.128  36.315  21.571  1.00  0.00     0.267 C 
BRANCH   6   7
HETATM    7  N   LIG     1      17.233  37.686  22.064  1.00  0.00     0.078 N 
HETATM    8  H   LIG     1      18.206  38.020  21.872  1.00  0.00     0.312 HD
HETATM    9  H   LIG     1      17.135  37.671  23.104  1.00  0.00     0.312 HD
ENDBRANCH   6   7
ENDBRANCH   1   6
TORSDOF 5
ENDMDL
MODEL 5
REMARK VINA RESULT:      -4.3      1.807      1.879
REMARK  5 active torsions:
REMARK  status: ('A' for Active; 'I' for Inactive)
REMARK    1  A    between atoms: C_2  and  C_3 
REMARK    2  A    between atoms: C_3  and  C_4 
REMARK    3  A    between atoms: C_4  and  C_5 
REMARK    4  A    between atoms: C_5  and  C_6 
REMARK    5  A    between atoms: C_6  and  N_7 
ROOT
HETATM    1  C   LIG     1      16.914  38.358  23.193  1.00  0.00     0.030 C 
ENDROOT
BRANCH   1   2
HETATM    2  C   LIG     1      17.142  37.131  24.088  1.00  0.00     0.002 C 
BRANCH   2   3
HETATM    3  C   LIG     1      17.763  37.541  25.431  1.00  0.00    -0.000 C 
BRANCH   3   4
HETATM    4  C   LIG     1      18.187  36.331  26.280  1.00  0.00    -0.005 C 
HETATM    5  C   LIG     1      17.511  35.033  25.839  1.00  0.00     0.005 C 
ENDBRANCH   3   4
ENDBRANCH   2   3
ENDBRANCH   1   2
BRANCH   1   6
HETATM    6  C   LIG     1      17.822  38.357  21.957  1.00  0.00     0.267 C 
BRANCH   6   7
HETATM    7  N   LIG     1      18.821  39.420  22.042  1.00  0.00     0.078 N 
HETATM    8  H   LIG     1      19.573  39.206  21.348  1.00  0.00     0.312 HD
HETATM    9  H   LIG     1      19.276  39.370  22.983  1.00  0.00     0.312 HD
ENDBRANCH   6   7
ENDBRANCH   1   6
TORSDOF 5
ENDMDL
MODEL 6
REMARK VINA RESULT:      -4.2      3.486      4.870
REMARK  5 active torsions:
REMARK  status: ('A' for Active; 'I' for Inactive)
REMARK    1  A    between atoms: C_2  and  C_3 
REMARK    2  A    between atoms: C_3  and  C_4 
REMARK    3  A    between atoms: C_4  and  C_5 
REMARK    4  A    between atoms: C_5  and  C_6 
REMARK    5  A    between atoms: C_6  and  N_7 
ROOT
HETATM    1  C   LIG     1      16.719  35.067  21.612  1.00  0.00     0.030 C 
ENDROOT
BRANCH   1   2
HETATM    2  C   LIG     1      16.778  36.468  22.237  1.00  0.00     0.002 C 
BRANCH   2   3
HETATM    3  C   LIG     1      17.625  37.417  21.376  1.00  0.00    -0.000 C 
BRANCH   3   4
HETATM    4  C   LIG     1      18.313  36.698  20.205  1.00  0.00    -0.005 C 
HETATM    5  C   LIG     1      19.172  37.636  19.356  1.00  0.00     0.005 C 
ENDBRANCH   3   4
ENDBRANCH   2   3
ENDBRANCH   1   2
BRANCH   1   6
HETATM    6  C   LIG     1      15.280  34.568  21.431  1.00  0.00     0.267 C 
BRANCH   6   7
HETATM    7  N   LIG     1      14.362  35.683  21.217  1.00  0.00     0.078 N 
HETATM    8  H   LIG     1      14.857  36.395  20.631  1.00  0.00     0.312 HD
HETATM    9  H   LIG     1      14.182  36.145  22.138  1.00  0.00     0.312 HD
ENDBRANCH   6   7
ENDBRANCH   1   6
TORSDOF 5
ENDMDL
MODEL 7
REMARK VINA RESULT:      -4.1      3.249      4.428
REMARK  5 active torsions:
REMARK  status: ('A' for Active; 'I' for Inactive)
REMARK    1  A    between atoms: C_2  and  C_3 
REMARK    2  A    between atoms: C_3  and  C_4 
REMARK    3  A    between atoms: C_4  and  C_5 
REMARK    4  A    between atoms: C_5  and  C_6 
REMARK    5  A    between atoms: C_6  and  N_7 
ROOT
HETATM    1  C   LIG     1      16.816  36.232  21.236  1.00  0.00     0.030 C 
ENDROOT
BRANCH   1   2
HETATM    2  C   LIG     1      16.804  37.067  22.524  1.00  0.00     0.002 C 
BRANCH   2   3
HETATM    3  C   LIG     1      16.970  38.561  22.209  1.00  0.00    -0.000 C 
BRANCH   3   4
HETATM    4  C   LIG     1      18.444  38.986  22.117  1.00  0.00    -0.005 C 
HETATM    5  C   LIG     1      18.870  39.344  20.693  1.00  0.00     0.005 C 
ENDBRANCH   3   4
ENDBRANCH   2   3
ENDBRANCH   1   2
BRANCH   1   6
HETATM    6  C   LIG     1      15.765  35.115  21.255  1.00  0.00     0.267 C 
BRANCH   6   7
HETATM    7  N   LIG     1      14.413  35.669  21.245  1.00  0.00     0.078 N 
HETATM    8  H   LIG     1      14.376  36.429  21.962  1.00  0.00     0.312 HD
HETATM    9  H   LIG     1      13.752  34.930  21.576  1.00  0.00     0.312 HD
ENDBRANCH   6   7
ENDBRANCH   1   6
TORSDOF 5
ENDMDL
MODEL 8
REMARK VINA RESULT:      -4.0      2.613      3.489
REMARK  5 active torsions:
REMARK  status: ('A' for Active; 'I' for Inactive)
REMARK    1  A    between atoms: C_2  and  C_3 
REMARK    2  A    between atoms: C_3  and  C_4 
REMARK    3  A    between atoms: C_4  and  C_5 
REMARK    4  A    between atoms: C_5  and  C_6 
REMARK    5  A    between atoms: C_6  and  N_7 
ROOT
HETATM    1  C   LIG     1      16.423  35.012  21.408  1.00  0.00     0.030 C 
ENDROOT
BRANCH   1   2
HETATM    2  C   LIG     1      17.039  35.405  22.759  1.00  0.00     0.002 C 
BRANCH   2   3
HETATM    3  C   LIG     1      17.014  36.928  22.950  1.00  0.00    -0.000 C 
BRANCH   3   4
HETATM    4  C   LIG     1      16.845  37.336  24.423  1.00  0.00    -0.005 C 
HETATM    5  C   LIG     1      17.749  36.540  25.365  1.00  0.00     0.005 C 
ENDBRANCH   3   4
ENDBRANCH   2   3
ENDBRANCH   1   2
BRANCH   1   6
HETATM    6  C   LIG     1      14.920  35.309  21.343  1.00  0.00     0.267 C 
BRANCH   6   7
HETATM    7  N   LIG     1      14.138  34.092  21.546  1.00  0.00     0.078 N 
HETATM    8  H   LIG     1      13.273  34.354  22.073  1.00  0.00     0.312 HD
HETATM    9  H   LIG     1      14.676  33.455  22.176  1.00  0.00     0.312 HD
ENDBRANCH   6   7
ENDBRANCH   1   6
TORSDOF 5
ENDMDL
MODEL 9
REMARK VINA RESULT:      -4.0      9.910     11.368
REMARK  5 active torsions:
REMARK  status: ('A' for Active; 'I' for Inactive)
REMARK    1  A    between atoms: C_2  and  C_3 
REMARK    2  A    between atoms: C_3  and  C_4 
REMARK    3  A    between atoms: C_4  and  C_5 
REMARK    4  A    between atoms: C_5  and  C_6 
REMARK    5  A    between atoms: C_6  and  N_7 
ROOT
HETATM    1  C   LIG     1      14.612  32.104  16.537  1.00  0.00     0.030 C 
ENDROOT
BRANCH   1   2
HETATM    2  C   LIG     1      13.480  31.067  16.544  1.00  0.00     0.002 C 
BRANCH   2   3
HETATM    3  C   LIG     1      13.435  30.296  15.217  1.00  0.00    -0.000 C 
BRANCH   3   4
HETATM    4  C   LIG     1      14.761  30.373  14.444  1.00  0.00    -0.005 C 
HETATM    5  C   LIG     1      15.245  29.005  13.960  1.00  0.00     0.005 C 
ENDBRANCH   3   4
ENDBRANCH   2   3
ENDBRANCH   1   2
BRANCH   1   6
HETATM    6  C   LIG     1      14.998  32.557  17.951  1.00  0.00     0.267 C 
BRANCH   6   7
HETATM    7  N   LIG     1      14.214  31.849  18.959  1.00  0.00     0.078 N 
HETATM    8  H   LIG     1      13.434  31.356  18.468  1.00  0.00     0.312 HD
HETATM    9  H   LIG     1      13.761  32.556  19.582  1.00  0.00     0.312 HD
ENDBRANCH   6   7
ENDBRANCH   1   6
TORSDOF 5
ENDMDL
MODEL 10
REMARK VINA RESULT:      -4.0      4.469      4.983
REMARK  5 active torsions:
REMARK  status: ('A' for Active; 'I' for Inactive)
REMARK    1  A    between atoms: C_2  and  C_3 
REMARK    2  A    between atoms: C_3  and  C_4 
REMARK    3  A    between atoms: C_4  and  C_5 
REMARK    4  A    between atoms: C_5  and  C_6 
REMARK    5  A    between atoms: C_6  and  N_7 
ROOT
HETATM    1  C   LIG     1      18.735  39.244  20.772  1.00  0.00     0.030 C 
ENDROOT
BRANCH   1   2
HETATM    2  C   LIG     1      17.922  38.178  21.518  1.00  0.00     0.002 C 
BRANCH   2   3
HETATM    3  C   LIG     1      17.896  36.858  20.733  1.00  0.00    -0.000 C 
BRANCH   3   4
HETATM    4  C   LIG     1      17.150  35.741  21.479  1.00  0.00    -0.005 C 
HETATM    5  C   LIG     1      15.633  35.932  21.468  1.00  0.00     0.005 C 
ENDBRANCH   3   4
ENDBRANCH   2   3
ENDBRANCH   1   2
BRANCH   1   6
HETATM    6  C   LIG     1      19.163  38.781  19.374  1.00  0.00     0.267 C 
BRANCH   6   7
HETATM    7  N   LIG     1      20.466  39.335  19.016  1.00  0.00     0.078 N 
HETATM    8  H   LIG     1      20.781  39.945  19.805  1.00  0.00     0.312 HD
HETATM    9  H   LIG     1      20.340  39.971  18.195  1.00  0.00     0.312 HD
ENDBRANCH   6   7
ENDBRANCH   1   6
TORSDOF 5
ENDMDL
MODEL 11
REMARK VINA RESULT:      -4.0      3.235      4.998
REMARK  5 active torsions:
REMARK  status: ('A' for Active; 'I' for Inactive)
REMARK    1  A    between atoms: C_2  and  C_3 
REMARK    2  A    between atoms: C_3  and  C_4 
REMARK    3  A    between atoms: C_4  and  C_5 
REMARK    4  A    between atoms: C_5  and  C_6 
REMARK    5  A    between atoms: C_6  and  N_7 
ROOT
HETATM    1  C   LIG     1      16.825  36.327  22.289  1.00  0.00     0.030 C 
ENDROOT
BRANCH   1   2
HETATM    2  C   LIG     1      17.541  36.329  20.931  1.00  0.00     0.002 C 
BRANCH   2   3
HETATM    3  C   LIG     1      18.260  37.666  20.693  1.00  0.00    -0.000 C 
BRANCH   3   4
HETATM    4  C   LIG     1      19.242  37.606  19.511  1.00  0.00    -0.005 C 
HETATM    5  C   LIG     1      20.271  38.736  19.540  1.00  0.00     0.005 C 
ENDBRANCH   3   4
ENDBRANCH   2   3
ENDBRANCH   1   2
BRANCH   1   6
HETATM    6  C   LIG     1      15.414  36.922  22.208  1.00  0.00     0.267 C 
BRANCH   6   7
HETATM    7  N   LIG     1      15.289  38.091  23.074  1.00  0.00     0.078 N 
HETATM    8  H   LIG     1      14.274  38.223  23.286  1.00  0.00     0.312 HD
HETATM    9  H   LIG     1      15.582  38.936  22.532  1.00  0.00     0.312 HD
ENDBRANCH   6   7
ENDBRANCH   1   6
TORSDOF 5
ENDMDL
MODEL 12
REMARK VINA RESULT:      -4.0      3.510      4.455
REMARK  5 active torsions:
REMARK  status: ('A' for Active; 'I' for Inactive)
REMARK    1  A    between atoms: C_2  and  C_3 
REMARK    2  A    between atoms: C_3  and  C_4 
REMARK    3  A    between atoms: C_4  and  C_5 
REMARK    4  A    between atoms: C_5  and  C_6 
REMARK    5  A    between atoms: C_6  and  N_7 
ROOT
HETATM    1  C   LIG     1      18.963  39.388  20.891  1.00  0.00     0.030 C 
ENDROOT
BRANCH   1   2
HETATM    2  C   LIG     1      18.016  38.295  21.406  1.00  0.00     0.002 C 
BRANCH   2   3
HETATM    3  C   LIG     1      17.062  38.854  22.472  1.00  0.00    -0.000 C 
BRANCH   3   4
HETATM    4  C   LIG     1      16.722  37.823  23.561  1.00  0.00    -0.005 C 
HETATM    5  C   LIG     1      17.402  38.126  24.896  1.00  0.00     0.005 C 
ENDBRANCH   3   4
ENDBRANCH   2   3
ENDBRANCH   1   2
BRANCH   1   6
HETATM    6  C   LIG     1      19.859  38.894  19.749  1.00  0.00     0.267 C 
BRANCH   6   7
HETATM    7  N   LIG     1      19.352  39.344  18.455  1.00  0.00     0.078 N 
HETATM    8  H   LIG     1      18.314  39.440  18.535  1.00  0.00     0.312 HD
HETATM    9  H   LIG     1      19.517  38.586  17.754  1.00  0.00     0.312 HD
ENDBRANCH   6   7
ENDBRANCH   1   6
TORSDOF 5
ENDMDL
MODEL 13
REMARK VINA RESULT:      -3.9      4.851      6.005
REMARK  5 active torsions:
REMARK  status: ('A' for Active; 'I' for Inactive)
REMARK    1  A    between atoms: C_2  and  C_3 
REMARK    2  A    between atoms: C_3  and  C_4 
REMARK    3  A    between atoms: C_4  and  C_5 
REMARK    4  A    between atoms: C_5  and  C_6 
REMARK    5  A    between atoms: C_6  and  N_7 
ROOT
HETATM    1  C   LIG     1      15.528  33.401  19.985  1.00  0.00     0.030 C 
ENDROOT
BRANCH   1   2
HETATM    2  C   LIG     1      15.118  34.126  21.274  1.00  0.00     0.002 C 
BRANCH   2   3
HETATM    3  C   LIG     1      15.236  35.649  21.108  1.00  0.00    -0.000 C 
BRANCH   3   4
HETATM    4  C   LIG     1      16.324  36.259  22.006  1.00  0.00    -0.005 C 
HETATM    5  C   LIG     1      16.994  35.224  22.910  1.00  0.00     0.005 C 
ENDBRANCH   3   4
ENDBRANCH   2   3
ENDBRANCH   1   2
BRANCH   1   6
HETATM    6  C   LIG     1      14.964  31.977  19.910  1.00  0.00     0.267 C 
BRANCH   6   7
HETATM    7  N   LIG     1      14.125  31.809  18.726  1.00  0.00     0.078 N 
HETATM    8  H   LIG     1      13.278  31.264  19.011  1.00  0.00     0.312 HD
HETATM    9  H   LIG     1      14.637  31.208  18.041  1.00  0.00     0.312 HD
ENDBRANCH   6   7
ENDBRANCH   1   6
TORSDOF 5
ENDMDL
MODEL 14
REMARK VINA RESULT:      -3.8      9.205     10.682
REMARK  5 active torsions:
REMARK  status: ('A' for Active; 'I' for Inactive)
REMARK    1  A    between atoms: C_2  and  C_3 
REMARK    2  A    between atoms: C_3  and  C_4 
REMARK    3  A    between atoms: C_4  and  C_5 
REMARK    4  A    between atoms: C_5  and  C_6 
REMARK    5  A    between atoms: C_6  and  N_7 
ROOT
HETATM    1  C   LIG     1      14.377  32.034  17.533  1.00  0.00     0.030 C 
ENDROOT
BRANCH   1   2
HETATM    2  C   LIG     1      15.113  32.722  16.375  1.00  0.00     0.002 C 
BRANCH   2   3
HETATM    3  C   LIG     1      15.445  31.716  15.262  1.00  0.00    -0.000 C 
BRANCH   3   4
HETATM    4  C   LIG     1      14.392  30.603  15.139  1.00  0.00    -0.005 C 
HETATM    5  C   LIG     1      14.752  29.563  14.077  1.00  0.00     0.005 C 
ENDBRANCH   3   4
ENDBRANCH   2   3
ENDBRANCH   1   2
BRANCH   1   6
HETATM    6  C   LIG     1      15.070  32.261  18.883  1.00  0.00     0.267 C 
BRANCH   6   7
HETATM    7  N   LIG     1      14.346  31.592  19.961  1.00  0.00     0.078 N 
HETATM    8  H   LIG     1      15.037  31.353  20.709  1.00  0.00     0.312 HD
HETATM    9  H   LIG     1      13.986  30.679  19.600  1.00  0.00     0.312 HD
ENDBRANCH   6   7
ENDBRANCH   1   6
TORSDOF 5
ENDMDL
MODEL 15
REMARK VINA RESULT:      -3.7     10.657     11.957
REMARK  5 active torsions:
REMARK  status: ('A' for Active; 'I' for Inactive)
REMARK    1  A    between atoms: C_2  and  C_3 
REMARK    2  A    between atoms: C_3  and  C_4 
REMARK    3  A    between atoms: C_4  and  C_5 
REMARK    4  A    between atoms: C_5  and  C_6 
REMARK    5  A    between atoms: C_6  and  N_7 
ROOT
HETATM    1  C   LIG     1      14.912  30.727  14.795  1.00  0.00     0.030 C 
ENDROOT
BRANCH   1   2
HETATM    2  C   LIG     1      13.501  30.318  15.242  1.00  0.00     0.002 C 
BRANCH   2   3
HETATM    3  C   LIG     1      13.102  31.047  16.533  1.00  0.00    -0.000 C 
BRANCH   3   4
HETATM    4  C   LIG     1      14.166  32.056  16.995  1.00  0.00    -0.005 C 
HETATM    5  C   LIG     1      14.551  31.879  18.464  1.00  0.00     0.005 C 
ENDBRANCH   3   4
ENDBRANCH   2   3
ENDBRANCH   1   2
BRANCH   1   6
HETATM    6  C   LIG     1      15.357  29.996  13.523  1.00  0.00     0.267 C 
BRANCH   6   7
HETATM    7  N   LIG     1      14.967  28.589  13.564  1.00  0.00     0.078 N 
HETATM    8  H   LIG     1      15.085  28.254  14.549  1.00  0.00     0.312 HD
HETATM    9  H   LIG     1      15.647  28.040  12.991  1.00  0.00     0.312 HD
ENDBRANCH   6   7
ENDBRANCH   1   6
TORSDOF 5
ENDMDL
MODEL 16
REMARK VINA RESULT:      -3.6     10.873     11.888
REMARK  5 active torsions:
REMARK  status: ('A' for Active; 'I' for Inactive)
REMARK    1  A    between atoms: C_2  and  C_3 
REMARK    2  A    between atoms: C_3  and  C_4 
REMARK    3  A    between atoms: C_4  and  C_5 
REMARK    4  A    between atoms: C_5  and  C_6 
REMARK    5  A    between atoms: C_6  and  N_7 
ROOT
HETATM    1  C   LIG     1      15.900  31.837  13.833  1.00  0.00     0.030 C 
ENDROOT
BRANCH   1   2
HETATM    2  C   LIG     1      15.293  31.500  15.202  1.00  0.00     0.002 C 
BRANCH   2   3
HETATM    3  C   LIG     1      14.175  30.455  15.063  1.00  0.00    -0.000 C 
BRANCH   3   4
HETATM    4  C   LIG     1      13.035  30.672  16.072  1.00  0.00    -0.005 C 
HETATM    5  C   LIG     1      13.205  31.951  16.891  1.00  0.00     0.005 C 
ENDBRANCH   3   4
ENDBRANCH   2   3
ENDBRANCH   1   2
BRANCH   1   6
HETATM    6  C   LIG     1      16.986  32.917  13.925  1.00  0.00     0.267 C 
BRANCH   6   7
HETATM    7  N   LIG     1      17.544  33.209  12.608  1.00  0.00     0.078 N 
HETATM    8  H   LIG     1      18.576  33.039  12.654  1.00  0.00     0.312 HD
HETATM    9  H   LIG     1      17.430  34.232  12.420  1.00  0.00     0.312 HD
ENDBRANCH   6   7
ENDBRANCH   1   6
TORSDOF 5
ENDMDL
MODEL 17
REMARK VINA RESULT:      -3.5     11.878     13.275
REMARK  5 active torsions:
REMARK  status: ('A' for Active; 'I' for Inactive)
REMARK    1  A    between atoms: C_2  and  C_3 
REMARK    2  A    between atoms: C_3  and  C_4 
REMARK    3  A    between atoms: C_4  and  C_5 
REMARK    4  A    between atoms: C_5  and  C_6 
REMARK    5  A    between atoms: C_6  and  N_7 
ROOT
HETATM    1  C   LIG     1      13.855  29.566  14.382  1.00  0.00     0.030 C 
ENDROOT
BRANCH   1   2
HETATM    2  C   LIG     1      15.249  29.731  13.760  1.00  0.00     0.002 C 
BRANCH   2   3
HETATM    3  C   LIG     1      15.604  31.216  13.596  1.00  0.00    -0.000 C 
BRANCH   3   4
HETATM    4  C   LIG     1      15.732  31.946  14.942  1.00  0.00    -0.005 C 
HETATM    5  C   LIG     1      17.100  32.600  15.134  1.00  0.00     0.005 C 
ENDBRANCH   3   4
ENDBRANCH   2   3
ENDBRANCH   1   2
BRANCH   1   6
HETATM    6  C   LIG     1      13.210  28.222  14.023  1.00  0.00     0.267 C 
BRANCH   6   7
HETATM    7  N   LIG     1      11.892  28.417  13.425  1.00  0.00     0.078 N 
HETATM    8  H   LIG     1      11.549  29.363  13.713  1.00  0.00     0.312 HD
HETATM    9  H   LIG     1      11.230  27.729  13.852  1.00  0.00     0.312 HD
ENDBRANCH   6   7
ENDBRANCH   1   6
TORSDOF 5
ENDMDL
MODEL 18
REMARK VINA RESULT:      -3.5      7.704      8.856
REMARK  5 active torsions:
REMARK  status: ('A' for Active; 'I' for Inactive)
REMARK    1  A    between atoms: C_2  and  C_3 
REMARK    2  A    between atoms: C_3  and  C_4 
REMARK    3  A    between atoms: C_4  and  C_5 
REMARK    4  A    between atoms: C_5  and  C_6 
REMARK    5  A    between atoms: C_6  and  N_7 
ROOT
HETATM    1  C   LIG     1      14.246  32.085  17.231  1.00  0.00     0.030 C 
ENDROOT
BRANCH   1   2
HETATM    2  C   LIG     1      14.419  31.597  18.676  1.00  0.00     0.002 C 
BRANCH   2   3
HETATM    3  C   LIG     1      15.600  32.304  19.356  1.00  0.00    -0.000 C 
BRANCH   3   4
HETATM    4  C   LIG     1      15.156  33.235  20.496  1.00  0.00    -0.005 C 
HETATM    5  C   LIG     1      15.881  34.580  20.479  1.00  0.00     0.005 C 
ENDBRANCH   3   4
ENDBRANCH   2   3
ENDBRANCH   1   2
BRANCH   1   6
HETATM    6  C   LIG     1      13.799  30.963  16.284  1.00  0.00     0.267 C 
BRANCH   6   7
HETATM    7  N   LIG     1      12.488  30.447  16.668  1.00  0.00     0.078 N 
HETATM    8  H   LIG     1      12.482  30.334  17.708  1.00  0.00     0.312 HD
HETATM    9  H   LIG     1      12.384  29.484  16.274  1.00  0.00     0.312 HD
ENDBRANCH   6   7
ENDBRANCH   1   6
TORSDOF 5
ENDMDL
MODEL 19
REMARK VINA RESULT:      -3.4      9.537     10.998
REMARK  5 active torsions:
REMARK  status: ('A' for Active; 'I' for Inactive)
REMARK    1  A    between atoms: C_2  and  C_3 
REMARK    2  A    between atoms: C_3  and  C_4 
REMARK    3  A    between atoms: C_4  and  C_5 
REMARK    4  A    between atoms: C_5  and  C_6 
REMARK    5  A    between atoms: C_6  and  N_7 
ROOT
HETATM    1  C   LIG     1      15.004  33.152  17.095  1.00  0.00     0.030 C 
ENDROOT
BRANCH   1   2
HETATM    2  C   LIG     1      15.774  33.073  15.770  1.00  0.00     0.002 C 
BRANCH   2   3
HETATM    3  C   LIG     1      16.068  31.613  15.392  1.00  0.00    -0.000 C 
BRANCH   3   4
HETATM    4  C   LIG     1      15.536  31.246  13.997  1.00  0.00    -0.005 C 
HETATM    5  C   LIG     1      14.750  29.935  13.990  1.00  0.00     0.005 C 
ENDBRANCH   3   4
ENDBRANCH   2   3
ENDBRANCH   1   2
BRANCH   1   6
HETATM    6  C   LIG     1      14.220  31.867  17.393  1.00  0.00     0.267 C 
BRANCH   6   7
HETATM    7  N   LIG     1      12.790  32.064  17.170  1.00  0.00     0.078 N 
HETATM    8  H   LIG     1      12.612  31.964  16.144  1.00  0.00     0.312 HD
HETATM    9  H   LIG     1      12.552  33.053  17.409  1.00  0.00     0.312 HD
ENDBRANCH   6   7
ENDBRANCH   1   6
TORSDOF 5
ENDMDL
MODEL 20
REMARK VINA RESULT:      -3.3     10.765     11.801
REMARK  5 active torsions:
REMARK  status: ('A' for Active; 'I' for Inactive)
REMARK    1  A    between atoms: C_2  and  C_3 
REMARK    2  A    between atoms: C_3  and  C_4 
REMARK    3  A    between atoms: C_4  and  C_5 
REMARK    4  A    between atoms: C_5  and  C_6 
REMARK    5  A    between atoms: C_6  and  N_7 
ROOT
HETATM    1  C   LIG     1      17.432  32.677  15.019  1.00  0.00     0.030 C 
ENDROOT
BRANCH   1   2
HETATM    2  C   LIG     1      16.030  32.921  15.593  1.00  0.00     0.002 C 
BRANCH   2   3
HETATM    3  C   LIG     1      15.173  31.650  15.505  1.00  0.00    -0.000 C 
BRANCH   3   4
HETATM    4  C   LIG     1      15.389  30.881  14.191  1.00  0.00    -0.005 C 
HETATM    5  C   LIG     1      14.646  29.545  14.158  1.00  0.00     0.005 C 
ENDBRANCH   3   4
ENDBRANCH   2   3
ENDBRANCH   1   2
BRANCH   1   6
HETATM    6  C   LIG     1      17.847  33.757  14.011  1.00  0.00     0.267 C 
BRANCH   6   7
HETATM    7  N   LIG     1      17.589  33.320  12.642  1.00  0.00     0.078 N 
HETATM    8  H   LIG     1      16.571  33.465  12.447  1.00  0.00     0.312 HD
HETATM    9  H   LIG     1      17.748  32.288  12.589  1.00  0.00     0.312 HD
ENDBRANCH   6   7
ENDBRANCH   1   6
TORSDOF 5
ENDMDL
