REMARK  6 active torsions:
REMARK  status: ('A' for Active; 'I' for Inactive)
REMARK    1  A    between atoms: C_2  and  C_3 
REMARK    2  A    between atoms: C_3  and  C_4 
REMARK    3  A    between atoms: C_4  and  N_5 
REMARK    4  A    between atoms: N_5  and  C_6 
REMARK    5  A    between atoms: C_6  and  C_7 
REMARK    6  A    between atoms: C_7  and  C_8 
ROOT
HETATM    1  N   LIG     1      -0.262  -0.129  -0.815  1.00  0.00     0.083 N 
HETATM    2  H   LIG     1      -0.641   0.835  -0.670  1.00  0.00     0.315 HD
ENDROOT
BRANCH   1   3
HETATM    3  C   LIG     1      -1.359  -1.111  -0.820  1.00  0.00     0.269 C 
BRANCH   3   4
HETATM    4  C   LIG     1      -2.174  -1.163   0.492  1.00  0.00     0.029 C 
BRANCH   4   5
HETATM    5  C   LIG     1      -2.808   0.172   0.920  1.00  0.00    -0.003 C 
HETATM    6  C   LIG     1      -3.795   0.722  -0.109  1.00  0.00     0.005 C 
ENDBRANCH   4   5
ENDBRANCH   3   4
ENDBRANCH   1   3
BRANCH   1   7
HETATM    7  C   LIG     1       0.757  -0.419   0.202  1.00  0.00     0.269 C 
BRANCH   7   8
HETATM    8  C   LIG     1       2.024   0.385  -0.094  1.00  0.00     0.029 C 
BRANCH   8   9
HETATM    9  C   LIG     1       3.115   0.100   0.944  1.00  0.00    -0.003 C 
HETATM   10  C   LIG     1       4.379   0.903   0.650  1.00  0.00     0.005 C 
ENDBRANCH   8   9
ENDBRANCH   7   8
ENDBRANCH   1   7
TORSDOF 6
