MODEL 1
REMARK VINA RESULT:      -5.3      0.000      0.000
REMARK  7 active torsions:
REMARK  status: ('A' for Active; 'I' for Inactive)
REMARK    1  A    between atoms: C_2  and  C_3 
REMARK    2  A    between atoms: C_3  and  C_4 
REMARK    3  A    between atoms: C_4  and  C_5 
REMARK    4  A    between atoms: C_5  and  C_6 
REMARK    5  A    between atoms: C_6  and  C_7 
REMARK    6  A    between atoms: C_7  and  C_8 
REMARK    7  A    between atoms: C_8  and  N_9 
ROOT
HETATM    1  C   LIG     1      17.050  36.648  21.789  1.00  0.00     0.002 C 
ENDROOT
BRANCH   1   2
HETATM    2  C   LIG     1      17.115  37.558  23.025  1.00  0.00     0.000 C 
BRANCH   2   3
HETATM    3  C   LIG     1      17.075  36.770  24.345  1.00  0.00     0.000 C 
BRANCH   3   4
HETATM    4  C   LIG     1      17.903  37.435  25.458  1.00  0.00    -0.000 C 
BRANCH   4   5
HETATM    5  C   LIG     1      18.436  36.422  26.481  1.00  0.00    -0.005 C 
HETATM    6  C   LIG     1      18.011  34.986  26.171  1.00  0.00     0.005 C 
ENDBRANCH   4   5
ENDBRANCH   3   4
ENDBRANCH   2   3
ENDBRANCH   1   2
BRANCH   1   7
HETATM    7  C   LIG     1      16.660  35.216  22.184  1.00  0.00     0.030 C 
BRANCH   7   8
HETATM    8  C   LIG     1      15.472  34.679  21.365  1.00  0.00     0.267 C 
BRANCH   8   9
HETATM    9  N   LIG     1      14.388  35.654  21.244  1.00  0.00     0.078 N 
HETATM   10  H   LIG     1      14.050  35.675  20.256  1.00  0.00     0.312 HD
HETATM   11  H   LIG     1      14.747  36.606  21.487  1.00  0.00     0.312 HD
ENDBRANCH   8   9
ENDBRANCH   7   8
ENDBRANCH   1   7
TORSDOF 7
ENDMDL
MODEL 2
REMARK VINA RESULT:      -5.1      3.121      3.656
REMARK  7 active torsions:
REMARK  status: ('A' for Active; 'I' for Inactive)
REMARK    1  A    between atoms: C_2  and  C_3 
REMARK    2  A    between atoms: C_3  and  C_4 
REMARK    3  A    between atoms: C_4  and  C_5 
REMARK    4  A    between atoms: C_5  and  C_6 
REMARK    5  A    between atoms: C_6  and  C_7 
REMARK    6  A    between atoms: C_7  and  C_8 
REMARK    7  A    between atoms: C_8  and  N_9 
ROOT
HETATM    1  C   LIG     1      17.813  38.403  21.560  1.00  0.00     0.002 C 
ENDROOT
BRANCH   1   2
HETATM    2  C   LIG     1      17.906  38.605  23.080  1.00  0.00     0.000 C 
BRANCH   2   3
HETATM    3  C   LIG     1      17.251  37.462  23.873  1.00  0.00     0.000 C 
BRANCH   3   4
HETATM    4  C   LIG     1      17.383  37.645  25.395  1.00  0.00    -0.000 C 
BRANCH   4   5
HETATM    5  C   LIG     1      18.207  36.528  26.052  1.00  0.00    -0.005 C 
HETATM    6  C   LIG     1      17.633  35.134  25.792  1.00  0.00     0.005 C 
ENDBRANCH   4   5
ENDBRANCH   3   4
ENDBRANCH   2   3
ENDBRANCH   1   2
BRANCH   1   7
HETATM    7  C   LIG     1      18.783  39.338  20.823  1.00  0.00     0.030 C 
BRANCH   7   8
HETATM    8  C   LIG     1      19.167  38.812  19.428  1.00  0.00     0.267 C 
BRANCH   8   9
HETATM    9  N   LIG     1      20.469  39.306  18.981  1.00  0.00     0.078 N 
HETATM   10  H   LIG     1      21.139  38.507  18.918  1.00  0.00     0.312 HD
HETATM   11  H   LIG     1      20.841  39.990  19.679  1.00  0.00     0.312 HD
ENDBRANCH   8   9
ENDBRANCH   7   8
ENDBRANCH   1   7
TORSDOF 7
ENDMDL
MODEL 3
REMARK VINA RESULT:      -5.1      2.300      3.091
REMARK  7 active torsions:
REMARK  status: ('A' for Active; 'I' for Inactive)
REMARK    1  A    between atoms: C_2  and  C_3 
REMARK    2  A    between atoms: C_3  and  C_4 
REMARK    3  A    between atoms: C_4  and  C_5 
REMARK    4  A    between atoms: C_5  and  C_6 
REMARK    5  A    between atoms: C_6  and  C_7 
REMARK    6  A    between atoms: C_7  and  C_8 
REMARK    7  A    between atoms: C_8  and  N_9 
ROOT
HETATM    1  C   LIG     1      17.236  36.299  21.529  1.00  0.00     0.002 C 
ENDROOT
BRANCH   1   2
HETATM    2  C   LIG     1      17.012  35.278  22.656  1.00  0.00     0.000 C 
BRANCH   2   3
HETATM    3  C   LIG     1      17.160  35.898  24.056  1.00  0.00     0.000 C 
BRANCH   3   4
HETATM    4  C   LIG     1      17.356  34.839  25.154  1.00  0.00    -0.000 C 
BRANCH   4   5
HETATM    5  C   LIG     1      18.109  35.389  26.375  1.00  0.00    -0.005 C 
HETATM    6  C   LIG     1      18.574  36.833  26.184  1.00  0.00     0.005 C 
ENDBRANCH   4   5
ENDBRANCH   3   4
ENDBRANCH   2   3
ENDBRANCH   1   2
BRANCH   1   7
HETATM    7  C   LIG     1      17.354  37.722  22.096  1.00  0.00     0.030 C 
BRANCH   7   8
HETATM    8  C   LIG     1      18.179  38.653  21.190  1.00  0.00     0.267 C 
BRANCH   8   9
HETATM    9  N   LIG     1      19.207  39.387  21.927  1.00  0.00     0.078 N 
HETATM   10  H   LIG     1      19.117  40.408  21.722  1.00  0.00     0.312 HD
HETATM   11  H   LIG     1      20.153  39.072  21.614  1.00  0.00     0.312 HD
ENDBRANCH   8   9
ENDBRANCH   7   8
ENDBRANCH   1   7
TORSDOF 7
ENDMDL
MODEL 4
REMARK VINA RESULT:      -5.0      3.130      4.975
REMARK  7 active torsions:
REMARK  status: ('A' for Active; 'I' for Inactive)
REMARK    1  A    between atoms: C_2  and  C_3 
REMARK    2  A    between atoms: C_3  and  C_4 
REMARK    3  A    between atoms: C_4  and  C_5 
REMARK    4  A    between atoms: C_5  and  C_6 
REMARK    5  A    between atoms: C_6  and  C_7 
REMARK    6  A    between atoms: C_7  and  C_8 
REMARK    7  A    between atoms: C_8  and  N_9 
ROOT
HETATM    1  C   LIG     1      16.549  37.732  22.525  1.00  0.00     0.002 C 
ENDROOT
BRANCH   1   2
HETATM    2  C   LIG     1      17.227  39.100  22.355  1.00  0.00     0.000 C 
BRANCH   2   3
HETATM    3  C   LIG     1      18.689  38.986  21.893  1.00  0.00     0.000 C 
BRANCH   3   4
HETATM    4  C   LIG     1      18.880  39.401  20.425  1.00  0.00    -0.000 C 
BRANCH   4   5
HETATM    5  C   LIG     1      19.739  38.400  19.638  1.00  0.00    -0.005 C 
HETATM    6  C   LIG     1      19.093  37.018  19.531  1.00  0.00     0.005 C 
ENDBRANCH   4   5
ENDBRANCH   3   4
ENDBRANCH   2   3
ENDBRANCH   1   2
BRANCH   1   7
HETATM    7  C   LIG     1      17.114  36.990  23.746  1.00  0.00     0.030 C 
BRANCH   7   8
HETATM    8  C   LIG     1      17.133  37.865  25.013  1.00  0.00     0.267 C 
BRANCH   8   9
HETATM    9  N   LIG     1      18.317  37.632  25.838  1.00  0.00     0.078 N 
HETATM   10  H   LIG     1      18.686  36.672  25.650  1.00  0.00     0.312 HD
HETATM   11  H   LIG     1      18.056  37.690  26.849  1.00  0.00     0.312 HD
ENDBRANCH   8   9
ENDBRANCH   7   8
ENDBRANCH   1   7
TORSDOF 7
ENDMDL
MODEL 5
REMARK VINA RESULT:      -4.9      2.596      3.752
REMARK  7 active torsions:
REMARK  status: ('A' for Active; 'I' for Inactive)
REMARK    1  A    between atoms: C_2  and  C_3 
REMARK    2  A    between atoms: C_3  and  C_4 
REMARK    3  A    between atoms: C_4  and  C_5 
REMARK    4  A    between atoms: C_5  and  C_6 
REMARK    5  A    between atoms: C_6  and  C_7 
REMARK    6  A    between atoms: C_7  and  C_8 
REMARK    7  A    between atoms: C_8  and  N_9 
ROOT
HETATM    1  C   LIG     1      17.116  36.393  22.181  1.00  0.00     0.002 C 
ENDROOT
BRANCH   1   2
HETATM    2  C   LIG     1      16.186  37.566  22.532  1.00  0.00     0.000 C 
BRANCH   2   3
HETATM    3  C   LIG     1      16.904  38.925  22.490  1.00  0.00     0.000 C 
BRANCH   3   4
HETATM    4  C   LIG     1      18.376  38.805  22.063  1.00  0.00    -0.000 C 
BRANCH   4   5
HETATM    5  C   LIG     1      18.658  39.497  20.721  1.00  0.00    -0.005 C 
HETATM    6  C   LIG     1      19.784  38.827  19.933  1.00  0.00     0.005 C 
ENDBRANCH   4   5
ENDBRANCH   3   4
ENDBRANCH   2   3
ENDBRANCH   1   2
BRANCH   1   7
HETATM    7  C   LIG     1      16.417  35.405  21.237  1.00  0.00     0.030 C 
BRANCH   7   8
HETATM    8  C   LIG     1      14.883  35.538  21.271  1.00  0.00     0.267 C 
BRANCH   8   9
HETATM    9  N   LIG     1      14.214  34.257  21.494  1.00  0.00     0.078 N 
HETATM   10  H   LIG     1      14.415  33.926  22.464  1.00  0.00     0.312 HD
HETATM   11  H   LIG     1      14.587  33.547  20.822  1.00  0.00     0.312 HD
ENDBRANCH   8   9
ENDBRANCH   7   8
ENDBRANCH   1   7
TORSDOF 7
ENDMDL
MODEL 6
REMARK VINA RESULT:      -4.6      2.551      4.238
REMARK  7 active torsions:
REMARK  status: ('A' for Active; 'I' for Inactive)
REMARK    1  A    between atoms: C_2  and  C_3 
REMARK    2  A    between atoms: C_3  and  C_4 
REMARK    3  A    between atoms: C_4  and  C_5 
REMARK    4  A    between atoms: C_5  and  C_6 
REMARK    5  A    between atoms: C_6  and  C_7 
REMARK    6  A    between atoms: C_7  and  C_8 
REMARK    7  A    between atoms: C_8  and  N_9 
ROOT
HETATM    1  C   LIG     1      16.902  35.219  22.047  1.00  0.00     0.002 C 
ENDROOT
BRANCH   1   2
HETATM    2  C   LIG     1      17.179  36.670  22.472  1.00  0.00     0.000 C 
BRANCH   2   3
HETATM    3  C   LIG     1      17.620  37.559  21.297  1.00  0.00     0.000 C 
BRANCH   3   4
HETATM    4  C   LIG     1      18.434  36.788  20.244  1.00  0.00    -0.000 C 
BRANCH   4   5
HETATM    5  C   LIG     1      19.464  37.676  19.530  1.00  0.00    -0.005 C 
HETATM    6  C   LIG     1      19.410  39.134  19.989  1.00  0.00     0.005 C 
ENDBRANCH   4   5
ENDBRANCH   3   4
ENDBRANCH   2   3
ENDBRANCH   1   2
BRANCH   1   7
HETATM    7  C   LIG     1      15.578  35.119  21.277  1.00  0.00     0.030 C 
BRANCH   7   8
HETATM    8  C   LIG     1      15.604  34.024  20.194  1.00  0.00     0.267 C 
BRANCH   8   9
HETATM    9  N   LIG     1      15.509  34.571  18.841  1.00  0.00     0.078 N 
HETATM   10  H   LIG     1      14.801  35.340  18.828  1.00  0.00     0.312 HD
HETATM   11  H   LIG     1      15.191  33.823  18.184  1.00  0.00     0.312 HD
ENDBRANCH   8   9
ENDBRANCH   7   8
ENDBRANCH   1   7
TORSDOF 7
ENDMDL
MODEL 7
REMARK VINA RESULT:      -4.4      7.594     10.940
REMARK  7 active torsions:
REMARK  status: ('A' for Active; 'I' for Inactive)
REMARK    1  A    between atoms: C_2  and  C_3 
REMARK    2  A    between atoms: C_3  and  C_4 
REMARK    3  A    between atoms: C_4  and  C_5 
REMARK    4  A    between atoms: C_5  and  C_6 
REMARK    5  A    between atoms: C_6  and  C_7 
REMARK    6  A    between atoms: C_7  and  C_8 
REMARK    7  A    between atoms: C_8  and  N_9 
ROOT
HETATM    1  C   LIG     1      13.485  31.083  16.729  1.00  0.00     0.002 C 
ENDROOT
BRANCH   1   2
HETATM    2  C   LIG     1      13.638  30.467  15.330  1.00  0.00     0.000 C 
BRANCH   2   3
HETATM    3  C   LIG     1      14.956  30.866  14.646  1.00  0.00     0.000 C 
BRANCH   3   4
HETATM    4  C   LIG     1      15.399  29.853  13.577  1.00  0.00    -0.000 C 
BRANCH   4   5
HETATM    5  C   LIG     1      14.924  28.425  13.886  1.00  0.00    -0.005 C 
HETATM    6  C   LIG     1      15.578  27.374  12.987  1.00  0.00     0.005 C 
ENDBRANCH   4   5
ENDBRANCH   3   4
ENDBRANCH   2   3
ENDBRANCH   1   2
BRANCH   1   7
HETATM    7  C   LIG     1      14.354  32.341  16.870  1.00  0.00     0.030 C 
BRANCH   7   8
HETATM    8  C   LIG     1      14.996  32.464  18.264  1.00  0.00     0.267 C 
BRANCH   8   9
HETATM    9  N   LIG     1      14.213  31.794  19.303  1.00  0.00     0.078 N 
HETATM   10  H   LIG     1      13.215  31.737  19.000  1.00  0.00     0.312 HD
HETATM   11  H   LIG     1      14.256  32.352  20.186  1.00  0.00     0.312 HD
ENDBRANCH   8   9
ENDBRANCH   7   8
ENDBRANCH   1   7
TORSDOF 7
ENDMDL
MODEL 8
REMARK VINA RESULT:      -4.3      7.700     10.162
REMARK  7 active torsions:
REMARK  status: ('A' for Active; 'I' for Inactive)
REMARK    1  A    between atoms: C_2  and  C_3 
REMARK    2  A    between atoms: C_3  and  C_4 
REMARK    3  A    between atoms: C_4  and  C_5 
REMARK    4  A    between atoms: C_5  and  C_6 
REMARK    5  A    between atoms: C_6  and  C_7 
REMARK    6  A    between atoms: C_7  and  C_8 
REMARK    7  A    between atoms: C_8  and  N_9 
ROOT
HETATM    1  C   LIG     1      13.860  29.863  14.509  1.00  0.00     0.002 C 
ENDROOT
BRANCH   1   2
HETATM    2  C   LIG     1      13.969  30.751  15.758  1.00  0.00     0.000 C 
BRANCH   2   3
HETATM    3  C   LIG     1      15.090  31.798  15.646  1.00  0.00     0.000 C 
BRANCH   3   4
HETATM    4  C   LIG     1      15.234  32.651  16.918  1.00  0.00    -0.000 C 
BRANCH   4   5
HETATM    5  C   LIG     1      14.512  32.034  18.125  1.00  0.00    -0.005 C 
HETATM    6  C   LIG     1      15.331  32.119  19.414  1.00  0.00     0.005 C 
ENDBRANCH   4   5
ENDBRANCH   3   4
ENDBRANCH   2   3
ENDBRANCH   1   2
BRANCH   1   7
HETATM    7  C   LIG     1      15.250  29.408  14.039  1.00  0.00     0.030 C 
BRANCH   7   8
HETATM    8  C   LIG     1      15.287  27.917  13.657  1.00  0.00     0.267 C 
BRANCH   8   9
HETATM    9  N   LIG     1      13.964  27.391  13.323  1.00  0.00     0.078 N 
HETATM   10  H   LIG     1      13.279  27.687  14.055  1.00  0.00     0.312 HD
HETATM   11  H   LIG     1      13.997  26.346  13.309  1.00  0.00     0.312 HD
ENDBRANCH   8   9
ENDBRANCH   7   8
ENDBRANCH   1   7
TORSDOF 7
ENDMDL
MODEL 9
REMARK VINA RESULT:      -4.3      3.189      5.352
REMARK  7 active torsions:
REMARK  status: ('A' for Active; 'I' for Inactive)
REMARK    1  A    between atoms: C_2  and  C_3 
REMARK    2  A    between atoms: C_3  and  C_4 
REMARK    3  A    between atoms: C_4  and  C_5 
REMARK    4  A    between atoms: C_5  and  C_6 
REMARK    5  A    between atoms: C_6  and  C_7 
REMARK    6  A    between atoms: C_7  and  C_8 
REMARK    7  A    between atoms: C_8  and  N_9 
ROOT
HETATM    1  C   LIG     1      16.945  36.427  22.349  1.00  0.00     0.002 C 
ENDROOT
BRANCH   1   2
HETATM    2  C   LIG     1      17.296  35.778  21.001  1.00  0.00     0.000 C 
BRANCH   2   3
HETATM    3  C   LIG     1      16.052  35.320  20.222  1.00  0.00     0.000 C 
BRANCH   3   4
HETATM    4  C   LIG     1      15.494  33.980  20.731  1.00  0.00    -0.000 C 
BRANCH   4   5
HETATM    5  C   LIG     1      15.448  32.906  19.633  1.00  0.00    -0.005 C 
HETATM    6  C   LIG     1      14.855  31.584  20.121  1.00  0.00     0.005 C 
ENDBRANCH   4   5
ENDBRANCH   3   4
ENDBRANCH   2   3
ENDBRANCH   1   2
BRANCH   1   7
HETATM    7  C   LIG     1      16.966  37.959  22.239  1.00  0.00     0.030 C 
BRANCH   7   8
HETATM    8  C   LIG     1      18.008  38.465  21.226  1.00  0.00     0.267 C 
BRANCH   8   9
HETATM    9  N   LIG     1      19.101  39.197  21.864  1.00  0.00     0.078 N 
HETATM   10  H   LIG     1      18.710  39.837  22.592  1.00  0.00     0.312 HD
HETATM   11  H   LIG     1      19.597  39.778  21.150  1.00  0.00     0.312 HD
ENDBRANCH   8   9
ENDBRANCH   7   8
ENDBRANCH   1   7
TORSDOF 7
ENDMDL
MODEL 10
REMARK VINA RESULT:      -4.3      2.560      4.768
REMARK  7 active torsions:
REMARK  status: ('A' for Active; 'I' for Inactive)
REMARK    1  A    between atoms: C_2  and  C_3 
REMARK    2  A    between atoms: C_3  and  C_4 
REMARK    3  A    between atoms: C_4  and  C_5 
REMARK    4  A    between atoms: C_5  and  C_6 
REMARK    5  A    between atoms: C_6  and  C_7 
REMARK    6  A    between atoms: C_7  and  C_8 
REMARK    7  A    between atoms: C_8  and  N_9 
ROOT
HETATM    1  C   LIG     1      16.956  36.462  23.086  1.00  0.00     0.002 C 
ENDROOT
BRANCH   1   2
HETATM    2  C   LIG     1      16.187  36.467  21.756  1.00  0.00     0.000 C 
BRANCH   2   3
HETATM    3  C   LIG     1      17.032  35.953  20.578  1.00  0.00     0.000 C 
BRANCH   3   4
HETATM    4  C   LIG     1      18.407  36.638  20.493  1.00  0.00    -0.000 C 
BRANCH   4   5
HETATM    5  C   LIG     1      18.302  38.124  20.120  1.00  0.00    -0.005 C 
HETATM    6  C   LIG     1      18.985  39.041  21.136  1.00  0.00     0.005 C 
ENDBRANCH   4   5
ENDBRANCH   3   4
ENDBRANCH   2   3
ENDBRANCH   1   2
BRANCH   1   7
HETATM    7  C   LIG     1      16.724  37.770  23.856  1.00  0.00     0.030 C 
BRANCH   7   8
HETATM    8  C   LIG     1      17.673  37.925  25.059  1.00  0.00     0.267 C 
BRANCH   8   9
HETATM    9  N   LIG     1      17.440  36.914  26.090  1.00  0.00     0.078 N 
HETATM   10  H   LIG     1      18.321  36.761  26.629  1.00  0.00     0.312 HD
HETATM   11  H   LIG     1      17.171  36.010  25.638  1.00  0.00     0.312 HD
ENDBRANCH   8   9
ENDBRANCH   7   8
ENDBRANCH   1   7
TORSDOF 7
ENDMDL
MODEL 11
REMARK VINA RESULT:      -4.2      2.582      4.468
REMARK  7 active torsions:
REMARK  status: ('A' for Active; 'I' for Inactive)
REMARK    1  A    between atoms: C_2  and  C_3 
REMARK    2  A    between atoms: C_3  and  C_4 
REMARK    3  A    between atoms: C_4  and  C_5 
REMARK    4  A    between atoms: C_5  and  C_6 
REMARK    5  A    between atoms: C_6  and  C_7 
REMARK    6  A    between atoms: C_7  and  C_8 
REMARK    7  A    between atoms: C_8  and  N_9 
ROOT
HETATM    1  C   LIG     1      17.308  38.082  21.887  1.00  0.00     0.002 C 
ENDROOT
BRANCH   1   2
HETATM    2  C   LIG     1      16.967  37.569  23.294  1.00  0.00     0.000 C 
BRANCH   2   3
HETATM    3  C   LIG     1      17.010  36.035  23.394  1.00  0.00     0.000 C 
BRANCH   3   4
HETATM    4  C   LIG     1      17.232  35.359  22.030  1.00  0.00    -0.000 C 
BRANCH   4   5
HETATM    5  C   LIG     1      15.951  34.718  21.476  1.00  0.00    -0.005 C 
HETATM    6  C   LIG     1      15.687  35.085  20.015  1.00  0.00     0.005 C 
ENDBRANCH   4   5
ENDBRANCH   3   4
ENDBRANCH   2   3
ENDBRANCH   1   2
BRANCH   1   7
HETATM    7  C   LIG     1      18.464  39.092  21.939  1.00  0.00     0.030 C 
BRANCH   7   8
HETATM    8  C   LIG     1      19.300  39.101  20.646  1.00  0.00     0.267 C 
BRANCH   8   9
HETATM    9  N   LIG     1      19.049  37.930  19.808  1.00  0.00     0.078 N 
HETATM   10  H   LIG     1      19.253  38.167  18.811  1.00  0.00     0.312 HD
HETATM   11  H   LIG     1      18.042  37.658  19.880  1.00  0.00     0.312 HD
ENDBRANCH   8   9
ENDBRANCH   7   8
ENDBRANCH   1   7
TORSDOF 7
ENDMDL
MODEL 12
REMARK VINA RESULT:      -4.2      1.966      3.051
REMARK  7 active torsions:
REMARK  status: ('A' for Active; 'I' for Inactive)
REMARK    1  A    between atoms: C_2  and  C_3 
REMARK    2  A    between atoms: C_3  and  C_4 
REMARK    3  A    between atoms: C_4  and  C_5 
REMARK    4  A    between atoms: C_5  and  C_6 
REMARK    5  A    between atoms: C_6  and  C_7 
REMARK    6  A    between atoms: C_7  and  C_8 
REMARK    7  A    between atoms: C_8  and  N_9 
ROOT
HETATM    1  C   LIG     1      16.012  34.758  20.417  1.00  0.00     0.002 C 
ENDROOT
BRANCH   1   2
HETATM    2  C   LIG     1      16.646  35.165  21.757  1.00  0.00     0.000 C 
BRANCH   2   3
HETATM    3  C   LIG     1      17.106  36.632  21.774  1.00  0.00     0.000 C 
BRANCH   3   4
HETATM    4  C   LIG     1      16.413  37.457  22.872  1.00  0.00    -0.000 C 
BRANCH   4   5
HETATM    5  C   LIG     1      17.407  38.276  23.708  1.00  0.00    -0.005 C 
HETATM    6  C   LIG     1      17.373  37.913  25.194  1.00  0.00     0.005 C 
ENDBRANCH   4   5
ENDBRANCH   3   4
ENDBRANCH   2   3
ENDBRANCH   1   2
BRANCH   1   7
HETATM    7  C   LIG     1      15.334  33.384  20.529  1.00  0.00     0.030 C 
BRANCH   7   8
HETATM    8  C   LIG     1      15.259  32.650  19.178  1.00  0.00     0.267 C 
BRANCH   8   9
HETATM    9  N   LIG     1      15.189  33.570  18.043  1.00  0.00     0.078 N 
HETATM   10  H   LIG     1      15.713  33.164  17.235  1.00  0.00     0.312 HD
HETATM   11  H   LIG     1      15.639  34.478  18.301  1.00  0.00     0.312 HD
ENDBRANCH   8   9
ENDBRANCH   7   8
ENDBRANCH   1   7
TORSDOF 7
ENDMDL
MODEL 13
REMARK VINA RESULT:      -4.2      1.931      3.016
REMARK  7 active torsions:
REMARK  status: ('A' for Active; 'I' for Inactive)
REMARK    1  A    between atoms: C_2  and  C_3 
REMARK    2  A    between atoms: C_3  and  C_4 
REMARK    3  A    between atoms: C_4  and  C_5 
REMARK    4  A    between atoms: C_5  and  C_6 
REMARK    5  A    between atoms: C_6  and  C_7 
REMARK    6  A    between atoms: C_7  and  C_8 
REMARK    7  A    between atoms: C_8  and  N_9 
ROOT
HETATM    1  C   LIG     1      17.000  35.117  21.875  1.00  0.00     0.002 C 
ENDROOT
BRANCH   1   2
HETATM    2  C   LIG     1      16.905  35.326  23.394  1.00  0.00     0.000 C 
BRANCH   2   3
HETATM    3  C   LIG     1      17.430  36.701  23.838  1.00  0.00     0.000 C 
BRANCH   3   4
HETATM    4  C   LIG     1      16.357  37.800  23.753  1.00  0.00    -0.000 C 
BRANCH   4   5
HETATM    5  C   LIG     1      16.611  38.782  22.599  1.00  0.00    -0.005 C 
HETATM    6  C   LIG     1      18.050  38.732  22.083  1.00  0.00     0.005 C 
ENDBRANCH   4   5
ENDBRANCH   3   4
ENDBRANCH   2   3
ENDBRANCH   1   2
BRANCH   1   7
HETATM    7  C   LIG     1      15.620  35.260  21.216  1.00  0.00     0.030 C 
BRANCH   7   8
HETATM    8  C   LIG     1      15.663  35.020  19.696  1.00  0.00     0.267 C 
BRANCH   8   9
HETATM    9  N   LIG     1      15.439  33.618  19.343  1.00  0.00     0.078 N 
HETATM   10  H   LIG     1      15.959  33.006  20.011  1.00  0.00     0.312 HD
HETATM   11  H   LIG     1      15.805  33.437  18.380  1.00  0.00     0.312 HD
ENDBRANCH   8   9
ENDBRANCH   7   8
ENDBRANCH   1   7
TORSDOF 7
ENDMDL
MODEL 14
REMARK VINA RESULT:      -4.2      1.763      2.216
REMARK  7 active torsions:
REMARK  status: ('A' for Active; 'I' for Inactive)
REMARK    1  A    between atoms: C_2  and  C_3 
REMARK    2  A    between atoms: C_3  and  C_4 
REMARK    3  A    between atoms: C_4  and  C_5 
REMARK    4  A    between atoms: C_5  and  C_6 
REMARK    5  A    between atoms: C_6  and  C_7 
REMARK    6  A    between atoms: C_7  and  C_8 
REMARK    7  A    between atoms: C_8  and  N_9 
ROOT
HETATM    1  C   LIG     1      14.932  36.231  21.706  1.00  0.00     0.002 C 
ENDROOT
BRANCH   1   2
HETATM    2  C   LIG     1      15.579  37.405  22.458  1.00  0.00     0.000 C 
BRANCH   2   3
HETATM    3  C   LIG     1      17.093  37.509  22.206  1.00  0.00     0.000 C 
BRANCH   3   4
HETATM    4  C   LIG     1      17.764  38.592  23.067  1.00  0.00    -0.000 C 
BRANCH   4   5
HETATM    5  C   LIG     1      18.323  38.034  24.384  1.00  0.00    -0.005 C 
HETATM    6  C   LIG     1      17.301  38.060  25.522  1.00  0.00     0.005 C 
ENDBRANCH   4   5
ENDBRANCH   3   4
ENDBRANCH   2   3
ENDBRANCH   1   2
BRANCH   1   7
HETATM    7  C   LIG     1      15.980  35.459  20.892  1.00  0.00     0.030 C 
BRANCH   7   8
HETATM    8  C   LIG     1      15.600  33.981  20.688  1.00  0.00     0.267 C 
BRANCH   8   9
HETATM    9  N   LIG     1      14.339  33.632  21.342  1.00  0.00     0.078 N 
HETATM   10  H   LIG     1      13.649  33.325  20.620  1.00  0.00     0.312 HD
HETATM   11  H   LIG     1      13.952  34.474  21.827  1.00  0.00     0.312 HD
ENDBRANCH   8   9
ENDBRANCH   7   8
ENDBRANCH   1   7
TORSDOF 7
ENDMDL
MODEL 15
REMARK VINA RESULT:      -4.2      6.630      9.245
REMARK  7 active torsions:
REMARK  status: ('A' for Active; 'I' for Inactive)
REMARK    1  A    between atoms: C_2  and  C_3 
REMARK    2  A    between atoms: C_3  and  C_4 
REMARK    3  A    between atoms: C_4  and  C_5 
REMARK    4  A    between atoms: C_5  and  C_6 
REMARK    5  A    between atoms: C_6  and  C_7 
REMARK    6  A    between atoms: C_7  and  C_8 
REMARK    7  A    between atoms: C_8  and  N_9 
ROOT
HETATM    1  C   LIG     1      14.212  30.182  15.116  1.00  0.00     0.002 C 
ENDROOT
BRANCH   1   2
HETATM    2  C   LIG     1      13.069  30.695  16.006  1.00  0.00     0.000 C 
BRANCH   2   3
HETATM    3  C   LIG     1      13.472  31.921  16.842  1.00  0.00     0.000 C 
BRANCH   3   4
HETATM    4  C   LIG     1      14.181  31.537  18.152  1.00  0.00    -0.000 C 
BRANCH   4   5
HETATM    5  C   LIG     1      15.262  32.550  18.556  1.00  0.00    -0.005 C 
HETATM    6  C   LIG     1      15.324  32.783  20.066  1.00  0.00     0.005 C 
ENDBRANCH   4   5
ENDBRANCH   3   4
ENDBRANCH   2   3
ENDBRANCH   1   2
BRANCH   1   7
HETATM    7  C   LIG     1      15.210  31.307  14.807  1.00  0.00     0.030 C 
BRANCH   7   8
HETATM    8  C   LIG     1      15.677  31.297  13.339  1.00  0.00     0.267 C 
BRANCH   8   9
HETATM    9  N   LIG     1      16.415  32.506  12.978  1.00  0.00     0.078 N 
HETATM   10  H   LIG     1      16.717  32.442  11.979  1.00  0.00     0.312 HD
HETATM   11  H   LIG     1      17.271  32.584  13.573  1.00  0.00     0.312 HD
ENDBRANCH   8   9
ENDBRANCH   7   8
ENDBRANCH   1   7
TORSDOF 7
ENDMDL
MODEL 16
REMARK VINA RESULT:      -4.2      3.697      4.982
REMARK  7 active torsions:
REMARK  status: ('A' for Active; 'I' for Inactive)
REMARK    1  A    between atoms: C_2  and  C_3 
REMARK    2  A    between atoms: C_3  and  C_4 
REMARK    3  A    between atoms: C_4  and  C_5 
REMARK    4  A    between atoms: C_5  and  C_6 
REMARK    5  A    between atoms: C_6  and  C_7 
REMARK    6  A    between atoms: C_7  and  C_8 
REMARK    7  A    between atoms: C_8  and  N_9 
ROOT
HETATM    1  C   LIG     1      19.151  36.992  19.372  1.00  0.00     0.002 C 
ENDROOT
BRANCH   1   2
HETATM    2  C   LIG     1      18.211  36.631  20.533  1.00  0.00     0.000 C 
BRANCH   2   3
HETATM    3  C   LIG     1      17.772  37.861  21.345  1.00  0.00     0.000 C 
BRANCH   3   4
HETATM    4  C   LIG     1      17.117  37.483  22.685  1.00  0.00    -0.000 C 
BRANCH   4   5
HETATM    5  C   LIG     1      15.583  37.504  22.617  1.00  0.00    -0.005 C 
HETATM    6  C   LIG     1      15.008  36.336  21.815  1.00  0.00     0.005 C 
ENDBRANCH   4   5
ENDBRANCH   3   4
ENDBRANCH   2   3
ENDBRANCH   1   2
BRANCH   1   7
HETATM    7  C   LIG     1      19.350  38.512  19.282  1.00  0.00     0.030 C 
BRANCH   7   8
HETATM    8  C   LIG     1      18.791  39.105  17.976  1.00  0.00     0.267 C 
BRANCH   8   9
HETATM    9  N   LIG     1      19.797  39.858  17.227  1.00  0.00     0.078 N 
HETATM   10  H   LIG     1      20.168  39.262  16.452  1.00  0.00     0.312 HD
HETATM   11  H   LIG     1      20.592  40.103  17.860  1.00  0.00     0.312 HD
ENDBRANCH   8   9
ENDBRANCH   7   8
ENDBRANCH   1   7
TORSDOF 7
ENDMDL
MODEL 17
REMARK VINA RESULT:      -4.1      3.704      7.336
REMARK  7 active torsions:
REMARK  status: ('A' for Active; 'I' for Inactive)
REMARK    1  A    between atoms: C_2  and  C_3 
REMARK    2  A    between atoms: C_3  and  C_4 
REMARK    3  A    between atoms: C_4  and  C_5 
REMARK    4  A    between atoms: C_5  and  C_6 
REMARK    5  A    between atoms: C_6  and  C_7 
REMARK    6  A    between atoms: C_7  and  C_8 
REMARK    7  A    between atoms: C_8  and  N_9 
ROOT
HETATM    1  C   LIG     1      15.585  33.957  19.777  1.00  0.00     0.002 C 
ENDROOT
BRANCH   1   2
HETATM    2  C   LIG     1      15.452  32.462  20.105  1.00  0.00     0.000 C 
BRANCH   2   3
HETATM    3  C   LIG     1      14.661  31.688  19.037  1.00  0.00     0.000 C 
BRANCH   3   4
HETATM    4  C   LIG     1      14.651  32.400  17.674  1.00  0.00    -0.000 C 
BRANCH   4   5
HETATM    5  C   LIG     1      13.354  32.152  16.890  1.00  0.00    -0.005 C 
HETATM    6  C   LIG     1      13.270  30.738  16.313  1.00  0.00     0.005 C 
ENDBRANCH   4   5
ENDBRANCH   3   4
ENDBRANCH   2   3
ENDBRANCH   1   2
BRANCH   1   7
HETATM    7  C   LIG     1      16.417  34.680  20.846  1.00  0.00     0.030 C 
BRANCH   7   8
HETATM    8  C   LIG     1      15.645  35.830  21.519  1.00  0.00     0.267 C 
BRANCH   8   9
HETATM    9  N   LIG     1      14.214  35.794  21.221  1.00  0.00     0.078 N 
HETATM   10  H   LIG     1      13.675  36.048  22.080  1.00  0.00     0.312 HD
HETATM   11  H   LIG     1      13.940  34.825  20.939  1.00  0.00     0.312 HD
ENDBRANCH   8   9
ENDBRANCH   7   8
ENDBRANCH   1   7
TORSDOF 7
ENDMDL
MODEL 18
REMARK VINA RESULT:      -4.0      6.791      9.407
REMARK  7 active torsions:
REMARK  status: ('A' for Active; 'I' for Inactive)
REMARK    1  A    between atoms: C_2  and  C_3 
REMARK    2  A    between atoms: C_3  and  C_4 
REMARK    3  A    between atoms: C_4  and  C_5 
REMARK    4  A    between atoms: C_5  and  C_6 
REMARK    5  A    between atoms: C_6  and  C_7 
REMARK    6  A    between atoms: C_7  and  C_8 
REMARK    7  A    between atoms: C_8  and  N_9 
ROOT
HETATM    1  C   LIG     1      13.650  31.956  16.706  1.00  0.00     0.002 C 
ENDROOT
BRANCH   1   2
HETATM    2  C   LIG     1      13.648  30.731  15.777  1.00  0.00     0.000 C 
BRANCH   2   3
HETATM    3  C   LIG     1      14.925  30.629  14.926  1.00  0.00     0.000 C 
BRANCH   3   4
HETATM    4  C   LIG     1      15.541  32.003  14.615  1.00  0.00    -0.000 C 
BRANCH   4   5
HETATM    5  C   LIG     1      16.927  32.185  15.252  1.00  0.00    -0.005 C 
HETATM    6  C   LIG     1      17.660  33.424  14.737  1.00  0.00     0.005 C 
ENDBRANCH   4   5
ENDBRANCH   3   4
ENDBRANCH   2   3
ENDBRANCH   1   2
BRANCH   1   7
HETATM    7  C   LIG     1      14.215  31.592  18.087  1.00  0.00     0.030 C 
BRANCH   7   8
HETATM    8  C   LIG     1      15.262  32.606  18.583  1.00  0.00     0.267 C 
BRANCH   8   9
HETATM    9  N   LIG     1      15.133  33.909  17.933  1.00  0.00     0.078 N 
HETATM   10  H   LIG     1      14.145  34.240  18.014  1.00  0.00     0.312 HD
HETATM   11  H   LIG     1      15.365  33.817  16.917  1.00  0.00     0.312 HD
ENDBRANCH   8   9
ENDBRANCH   7   8
ENDBRANCH   1   7
TORSDOF 7
ENDMDL
MODEL 19
REMARK VINA RESULT:      -3.9      4.985      7.194
REMARK  7 active torsions:
REMARK  status: ('A' for Active; 'I' for Inactive)
REMARK    1  A    between atoms: C_2  and  C_3 
REMARK    2  A    between atoms: C_3  and  C_4 
REMARK    3  A    between atoms: C_4  and  C_5 
REMARK    4  A    between atoms: C_5  and  C_6 
REMARK    5  A    between atoms: C_6  and  C_7 
REMARK    6  A    between atoms: C_7  and  C_8 
REMARK    7  A    between atoms: C_8  and  N_9 
ROOT
HETATM    1  C   LIG     1      14.937  32.649  16.438  1.00  0.00     0.002 C 
ENDROOT
BRANCH   1   2
HETATM    2  C   LIG     1      15.182  33.355  17.780  1.00  0.00     0.000 C 
BRANCH   2   3
HETATM    3  C   LIG     1      15.232  32.376  18.965  1.00  0.00     0.000 C 
BRANCH   3   4
HETATM    4  C   LIG     1      15.265  33.094  20.325  1.00  0.00    -0.000 C 
BRANCH   4   5
HETATM    5  C   LIG     1      15.756  34.545  20.214  1.00  0.00    -0.005 C 
HETATM    6  C   LIG     1      15.065  35.484  21.203  1.00  0.00     0.005 C 
ENDBRANCH   4   5
ENDBRANCH   3   4
ENDBRANCH   2   3
ENDBRANCH   1   2
BRANCH   1   7
HETATM    7  C   LIG     1      13.995  31.449  16.615  1.00  0.00     0.030 C 
BRANCH   7   8
HETATM    8  C   LIG     1      13.957  30.538  15.375  1.00  0.00     0.267 C 
BRANCH   8   9
HETATM    9  N   LIG     1      12.642  29.935  15.162  1.00  0.00     0.078 N 
HETATM   10  H   LIG     1      12.686  28.918  15.399  1.00  0.00     0.312 HD
HETATM   11  H   LIG     1      12.376  30.025  14.155  1.00  0.00     0.312 HD
ENDBRANCH   8   9
ENDBRANCH   7   8
ENDBRANCH   1   7
TORSDOF 7
ENDMDL
MODEL 20
REMARK VINA RESULT:      -3.9      8.575     10.383
REMARK  7 active torsions:
REMARK  status: ('A' for Active; 'I' for Inactive)
REMARK    1  A    between atoms: C_2  and  C_3 
REMARK    2  A    between atoms: C_3  and  C_4 
REMARK    3  A    between atoms: C_4  and  C_5 
REMARK    4  A    between atoms: C_5  and  C_6 
REMARK    5  A    between atoms: C_6  and  C_7 
REMARK    6  A    between atoms: C_7  and  C_8 
REMARK    7  A    between atoms: C_8  and  N_9 
ROOT
HETATM    1  C   LIG     1      15.063  31.048  14.754  1.00  0.00     0.002 C 
ENDROOT
BRANCH   1   2
HETATM    2  C   LIG     1      16.006  32.252  14.905  1.00  0.00     0.000 C 
BRANCH   2   3
HETATM    3  C   LIG     1      16.694  32.636  13.584  1.00  0.00     0.000 C 
BRANCH   3   4
HETATM    4  C   LIG     1      17.950  33.497  13.799  1.00  0.00    -0.000 C 
BRANCH   4   5
HETATM    5  C   LIG     1      18.678  33.816  12.485  1.00  0.00    -0.005 C 
HETATM    6  C   LIG     1      20.181  34.022  12.672  1.00  0.00     0.005 C 
ENDBRANCH   4   5
ENDBRANCH   3   4
ENDBRANCH   2   3
ENDBRANCH   1   2
BRANCH   1   7
HETATM    7  C   LIG     1      14.122  30.937  15.963  1.00  0.00     0.030 C 
BRANCH   7   8
HETATM    8  C   LIG     1      14.170  32.182  16.867  1.00  0.00     0.267 C 
BRANCH   8   9
HETATM    9  N   LIG     1      13.890  31.869  18.268  1.00  0.00     0.078 N 
HETATM   10  H   LIG     1      12.961  31.395  18.337  1.00  0.00     0.312 HD
HETATM   11  H   LIG     1      13.847  32.755  18.822  1.00  0.00     0.312 HD
ENDBRANCH   8   9
ENDBRANCH   7   8
ENDBRANCH   1   7
TORSDOF 7
ENDMDL
