REMARK  6 active torsions:
REMARK  status: ('A' for Active; 'I' for Inactive)
REMARK    1  A    between atoms: C_2  and  C_3 
REMARK    2  A    between atoms: C_3  and  C_4 
REMARK    3  A    between atoms: C_4  and  C_5 
REMARK    4  A    between atoms: C_5  and  C_6 
REMARK    5  A    between atoms: C_6  and  C_7 
REMARK    6  A    between atoms: C_7  and  N_8 
ROOT
HETATM    1  C   LIG     1       0.757   0.160  -0.442  1.00  0.00     0.002 C 
ENDROOT
BRANCH   1   2
HETATM    2  C   LIG     1      -0.486   0.326   0.442  1.00  0.00     0.000 C 
BRANCH   2   3
HETATM    3  C   LIG     1      -1.771   0.084  -0.364  1.00  0.00    -0.000 C 
BRANCH   3   4
HETATM    4  C   LIG     1      -3.042   0.361   0.453  1.00  0.00    -0.005 C 
HETATM    5  C   LIG     1      -3.285  -0.685   1.541  1.00  0.00     0.005 C 
ENDBRANCH   3   4
ENDBRANCH   2   3
ENDBRANCH   1   2
BRANCH   1   6
HETATM    6  C   LIG     1       2.042   0.383   0.369  1.00  0.00     0.030 C 
BRANCH   6   7
HETATM    7  C   LIG     1       3.300   0.325  -0.505  1.00  0.00     0.267 C 
BRANCH   7   8
HETATM    8  N   LIG     1       3.546  -1.035  -0.979  1.00  0.00     0.078 N 
HETATM    9  H   LIG     1       2.917  -1.218  -1.794  1.00  0.00     0.312 HD
HETATM   10  H   LIG     1       4.521  -1.069  -1.355  1.00  0.00     0.312 HD
ENDBRANCH   7   8
ENDBRANCH   6   7
ENDBRANCH   1   6
TORSDOF 6
