REMARK  4 active torsions:
REMARK  status: ('A' for Active; 'I' for Inactive)
REMARK    1  A    between atoms: C_2  and  C_3 
REMARK    2  A    between atoms: C_3  and  O_4 
REMARK    3  A    between atoms: O_4  and  C_5 
REMARK    4  A    between atoms: C_5  and  C_6 
ROOT
HETATM    1  O   LIG     1      -0.139   0.801  -0.126  1.00  0.00    -0.389 OA
ENDROOT
BRANCH   1   2
HETATM    2  C   LIG     1       1.167   0.671   0.404  1.00  0.00     0.182 C 
BRANCH   2   3
HETATM    3  C   LIG     1       2.068  -0.056  -0.591  1.00  0.00     0.140 C 
HETATM    4 CL   LIG     1       3.738  -0.126   0.028  1.00  0.00    -0.128 Cl
ENDBRANCH   2   3
ENDBRANCH   1   2
BRANCH   1   5
HETATM    5  C   LIG     1      -0.977  -0.226   0.362  1.00  0.00     0.182 C 
BRANCH   5   6
HETATM    6  C   LIG     1      -2.327  -0.140  -0.337  1.00  0.00     0.140 C 
HETATM    7 CL   LIG     1      -3.414  -1.419   0.262  1.00  0.00    -0.128 Cl
ENDBRANCH   5   6
ENDBRANCH   1   5
TORSDOF 4
