REMARK  4 active torsions:
REMARK  status: ('A' for Active; 'I' for Inactive)
REMARK    1  A    between atoms: C_2  and  C_3 
REMARK    2  A    between atoms: C_3  and  O_4 
REMARK    3  A    between atoms: O_4  and  C_5 
REMARK    4  A    between atoms: C_5  and  C_6 
ROOT
HETATM    1  O   LIG     1      -0.288   0.114  -0.951  1.00  0.00    -0.391 OA
ENDROOT
BRANCH   1   2
HETATM    2  C   LIG     1       0.866  -0.437  -0.343  1.00  0.00     0.167 C 
BRANCH   2   3
HETATM    3  C   LIG     1       2.055   0.515  -0.507  1.00  0.00     0.022 C 
HETATM    4  C   LIG     1       3.330  -0.085   0.079  1.00  0.00     0.007 C 
ENDBRANCH   2   3
ENDBRANCH   1   2
BRANCH   1   5
HETATM    5  C   LIG     1      -1.071   0.836  -0.016  1.00  0.00     0.167 C 
BRANCH   5   6
HETATM    6  C   LIG     1      -2.141  -0.065   0.615  1.00  0.00     0.022 C 
HETATM    7  C   LIG     1      -3.106  -0.621  -0.430  1.00  0.00     0.007 C 
ENDBRANCH   5   6
ENDBRANCH   1   5
TORSDOF 4
