REMARK  5 active torsions:
REMARK  status: ('A' for Active; 'I' for Inactive)
REMARK    1  A    between atoms: C_2  and  C_3 
REMARK    2  A    between atoms: C_3  and  C_4 
REMARK    3  A    between atoms: C_4  and  C_5 
REMARK    4  A    between atoms: C_5  and  C_6 
REMARK    5  A    between atoms: C_6  and  N_7 
ROOT
HETATM    1  C   LIG     1       1.358  -0.973  -0.222  1.00  0.00     0.030 C 
ENDROOT
BRANCH   1   2
HETATM    2  C   LIG     1       0.131  -0.145   0.184  1.00  0.00     0.002 C 
BRANCH   2   3
HETATM    3  C   LIG     1      -1.169  -0.864  -0.206  1.00  0.00    -0.000 C 
BRANCH   3   4
HETATM    4  C   LIG     1      -2.424  -0.123   0.283  1.00  0.00    -0.005 C 
HETATM    5  C   LIG     1      -2.679   1.177  -0.480  1.00  0.00     0.005 C 
ENDBRANCH   3   4
ENDBRANCH   2   3
ENDBRANCH   1   2
BRANCH   1   6
HETATM    6  C   LIG     1       2.674  -0.330   0.233  1.00  0.00     0.267 C 
BRANCH   6   7
HETATM    7  N   LIG     1       2.948   0.890  -0.522  1.00  0.00     0.078 N 
HETATM    8  H   LIG     1       3.948   1.149  -0.357  1.00  0.00     0.312 HD
HETATM    9  H   LIG     1       2.379   1.666  -0.113  1.00  0.00     0.312 HD
ENDBRANCH   6   7
ENDBRANCH   1   6
TORSDOF 5
