MODEL 1
REMARK VINA RESULT:      -5.5      0.000      0.000
REMARK  6 active torsions:
REMARK  status: ('A' for Active; 'I' for Inactive)
REMARK    1  A    between atoms: C_2  and  C_3 
REMARK    2  A    between atoms: C_3  and  C_4 
REMARK    3  A    between atoms: C_4  and  N_5 
REMARK    4  A    between atoms: N_5  and  C_6 
REMARK    5  A    between atoms: C_6  and  C_7 
REMARK    6  A    between atoms: C_7  and  C_8 
ROOT
HETATM    1  N   LIG     1      16.410  37.941  24.336  1.00  0.00     0.083 N 
HETATM    2  H   LIG     1      15.643  37.280  24.596  1.00  0.00     0.315 HD
ENDROOT
BRANCH   1   3
HETATM    3  C   LIG     1      17.156  37.425  23.177  1.00  0.00     0.269 C 
BRANCH   3   4
HETATM    4  C   LIG     1      17.291  38.427  22.008  1.00  0.00     0.029 C 
BRANCH   4   5
HETATM    5  C   LIG     1      18.649  39.144  21.916  1.00  0.00    -0.003 C 
HETATM    6  C   LIG     1      19.168  39.259  20.483  1.00  0.00     0.005 C 
ENDBRANCH   4   5
ENDBRANCH   3   4
ENDBRANCH   1   3
BRANCH   1   7
HETATM    7  C   LIG     1      17.269  38.187  25.502  1.00  0.00     0.269 C 
BRANCH   7   8
HETATM    8  C   LIG     1      18.436  37.199  25.500  1.00  0.00     0.029 C 
BRANCH   8   9
HETATM    9  C   LIG     1      18.342  36.228  26.682  1.00  0.00    -0.003 C 
HETATM   10  C   LIG     1      17.982  34.821  26.214  1.00  0.00     0.005 C 
ENDBRANCH   8   9
ENDBRANCH   7   8
ENDBRANCH   1   7
TORSDOF 6
ENDMDL
MODEL 2
REMARK VINA RESULT:      -5.5      1.291      4.321
REMARK  6 active torsions:
REMARK  status: ('A' for Active; 'I' for Inactive)
REMARK    1  A    between atoms: C_2  and  C_3 
REMARK    2  A    between atoms: C_3  and  C_4 
REMARK    3  A    between atoms: C_4  and  N_5 
REMARK    4  A    between atoms: N_5  and  C_6 
REMARK    5  A    between atoms: C_6  and  C_7 
REMARK    6  A    between atoms: C_7  and  C_8 
ROOT
HETATM    1  N   LIG     1      16.506  38.035  24.337  1.00  0.00     0.083 N 
HETATM    2  H   LIG     1      15.563  38.463  24.487  1.00  0.00     0.315 HD
ENDROOT
BRANCH   1   3
HETATM    3  C   LIG     1      17.307  38.125  25.569  1.00  0.00     0.269 C 
BRANCH   3   4
HETATM    4  C   LIG     1      18.473  37.113  25.647  1.00  0.00     0.029 C 
BRANCH   4   5
HETATM    5  C   LIG     1      18.242  35.923  26.593  1.00  0.00    -0.003 C 
HETATM    6  C   LIG     1      17.430  34.798  25.952  1.00  0.00     0.005 C 
ENDBRANCH   4   5
ENDBRANCH   3   4
ENDBRANCH   1   3
BRANCH   1   7
HETATM    7  C   LIG     1      17.160  38.669  23.185  1.00  0.00     0.269 C 
BRANCH   7   8
HETATM    8  C   LIG     1      17.315  37.650  22.055  1.00  0.00     0.029 C 
BRANCH   8   9
HETATM    9  C   LIG     1      16.328  36.489  22.219  1.00  0.00    -0.003 C 
HETATM   10  C   LIG     1      17.050  35.144  22.189  1.00  0.00     0.005 C 
ENDBRANCH   8   9
ENDBRANCH   7   8
ENDBRANCH   1   7
TORSDOF 6
ENDMDL
MODEL 3
REMARK VINA RESULT:      -5.5      0.425      4.808
REMARK  6 active torsions:
REMARK  status: ('A' for Active; 'I' for Inactive)
REMARK    1  A    between atoms: C_2  and  C_3 
REMARK    2  A    between atoms: C_3  and  C_4 
REMARK    3  A    between atoms: C_4  and  N_5 
REMARK    4  A    between atoms: N_5  and  C_6 
REMARK    5  A    between atoms: C_6  and  C_7 
REMARK    6  A    between atoms: C_7  and  C_8 
ROOT
HETATM    1  N   LIG     1      16.581  38.217  24.199  1.00  0.00     0.083 N 
HETATM    2  H   LIG     1      16.784  39.129  23.730  1.00  0.00     0.315 HD
ENDROOT
BRANCH   1   3
HETATM    3  C   LIG     1      17.239  38.164  25.515  1.00  0.00     0.269 C 
BRANCH   3   4
HETATM    4  C   LIG     1      18.455  37.213  25.582  1.00  0.00     0.029 C 
BRANCH   4   5
HETATM    5  C   LIG     1      18.392  36.150  26.693  1.00  0.00    -0.003 C 
HETATM    6  C   LIG     1      17.902  34.792  26.193  1.00  0.00     0.005 C 
ENDBRANCH   4   5
ENDBRANCH   3   4
ENDBRANCH   1   3
BRANCH   1   7
HETATM    7  C   LIG     1      16.977  37.109  23.320  1.00  0.00     0.269 C 
BRANCH   7   8
HETATM    8  C   LIG     1      17.302  37.648  21.926  1.00  0.00     0.029 C 
BRANCH   8   9
HETATM    9  C   LIG     1      17.951  39.034  22.006  1.00  0.00    -0.003 C 
HETATM   10  C   LIG     1      18.840  39.297  20.794  1.00  0.00     0.005 C 
ENDBRANCH   8   9
ENDBRANCH   7   8
ENDBRANCH   1   7
TORSDOF 6
ENDMDL
MODEL 4
REMARK VINA RESULT:      -5.3      1.361      2.174
REMARK  6 active torsions:
REMARK  status: ('A' for Active; 'I' for Inactive)
REMARK    1  A    between atoms: C_2  and  C_3 
REMARK    2  A    between atoms: C_3  and  C_4 
REMARK    3  A    between atoms: C_4  and  N_5 
REMARK    4  A    between atoms: N_5  and  C_6 
REMARK    5  A    between atoms: C_6  and  C_7 
REMARK    6  A    between atoms: C_7  and  C_8 
ROOT
HETATM    1  N   LIG     1      16.722  38.749  24.031  1.00  0.00     0.083 N 
HETATM    2  H   LIG     1      15.930  38.671  24.709  1.00  0.00     0.315 HD
ENDROOT
BRANCH   1   3
HETATM    3  C   LIG     1      16.312  38.242  22.711  1.00  0.00     0.269 C 
BRANCH   3   4
HETATM    4  C   LIG     1      17.456  37.607  21.888  1.00  0.00     0.029 C 
BRANCH   4   5
HETATM    5  C   LIG     1      17.163  36.199  21.341  1.00  0.00    -0.003 C 
HETATM    6  C   LIG     1      16.927  35.167  22.443  1.00  0.00     0.005 C 
ENDBRANCH   4   5
ENDBRANCH   3   4
ENDBRANCH   1   3
BRANCH   1   7
HETATM    7  C   LIG     1      17.902  38.056  24.565  1.00  0.00     0.269 C 
BRANCH   7   8
HETATM    8  C   LIG     1      17.559  37.418  25.912  1.00  0.00     0.029 C 
BRANCH   8   9
HETATM    9  C   LIG     1      18.533  36.284  26.250  1.00  0.00    -0.003 C 
HETATM   10  C   LIG     1      17.864  34.920  26.100  1.00  0.00     0.005 C 
ENDBRANCH   8   9
ENDBRANCH   7   8
ENDBRANCH   1   7
TORSDOF 6
ENDMDL
MODEL 5
REMARK VINA RESULT:      -5.2      0.795      5.096
REMARK  6 active torsions:
REMARK  status: ('A' for Active; 'I' for Inactive)
REMARK    1  A    between atoms: C_2  and  C_3 
REMARK    2  A    between atoms: C_3  and  C_4 
REMARK    3  A    between atoms: C_4  and  N_5 
REMARK    4  A    between atoms: N_5  and  C_6 
REMARK    5  A    between atoms: C_6  and  C_7 
REMARK    6  A    between atoms: C_7  and  C_8 
ROOT
HETATM    1  N   LIG     1      16.879  38.787  23.858  1.00  0.00     0.083 N 
HETATM    2  H   LIG     1      17.409  39.582  24.283  1.00  0.00     0.315 HD
ENDROOT
BRANCH   1   3
HETATM    3  C   LIG     1      17.394  37.504  24.365  1.00  0.00     0.269 C 
BRANCH   3   4
HETATM    4  C   LIG     1      17.550  37.442  25.901  1.00  0.00     0.029 C 
BRANCH   4   5
HETATM    5  C   LIG     1      18.461  36.316  26.420  1.00  0.00    -0.003 C 
HETATM    6  C   LIG     1      17.865  34.923  26.218  1.00  0.00     0.005 C 
ENDBRANCH   4   5
ENDBRANCH   3   4
ENDBRANCH   1   3
BRANCH   1   7
HETATM    7  C   LIG     1      16.933  38.883  22.394  1.00  0.00     0.269 C 
BRANCH   7   8
HETATM    8  C   LIG     1      18.389  38.967  21.935  1.00  0.00     0.029 C 
BRANCH   8   9
HETATM    9  C   LIG     1      18.489  38.963  20.406  1.00  0.00    -0.003 C 
HETATM   10  C   LIG     1      19.945  38.953  19.948  1.00  0.00     0.005 C 
ENDBRANCH   8   9
ENDBRANCH   7   8
ENDBRANCH   1   7
TORSDOF 6
ENDMDL
MODEL 6
REMARK VINA RESULT:      -4.6      1.877      2.386
REMARK  6 active torsions:
REMARK  status: ('A' for Active; 'I' for Inactive)
REMARK    1  A    between atoms: C_2  and  C_3 
REMARK    2  A    between atoms: C_3  and  C_4 
REMARK    3  A    between atoms: C_4  and  N_5 
REMARK    4  A    between atoms: N_5  and  C_6 
REMARK    5  A    between atoms: C_6  and  C_7 
REMARK    6  A    between atoms: C_7  and  C_8 
ROOT
HETATM    1  N   LIG     1      16.466  36.147  21.965  1.00  0.00     0.083 N 
HETATM    2  H   LIG     1      15.458  35.942  21.777  1.00  0.00     0.315 HD
ENDROOT
BRANCH   1   3
HETATM    3  C   LIG     1      17.235  36.108  20.710  1.00  0.00     0.269 C 
BRANCH   3   4
HETATM    4  C   LIG     1      18.335  37.189  20.604  1.00  0.00     0.029 C 
BRANCH   4   5
HETATM    5  C   LIG     1      17.929  38.586  21.105  1.00  0.00    -0.003 C 
HETATM    6  C   LIG     1      18.654  38.995  22.386  1.00  0.00     0.005 C 
ENDBRANCH   4   5
ENDBRANCH   3   4
ENDBRANCH   1   3
BRANCH   1   7
HETATM    7  C   LIG     1      16.980  35.214  22.976  1.00  0.00     0.269 C 
BRANCH   7   8
HETATM    8  C   LIG     1      17.206  35.956  24.294  1.00  0.00     0.029 C 
BRANCH   8   9
HETATM    9  C   LIG     1      17.440  34.975  25.448  1.00  0.00    -0.003 C 
HETATM   10  C   LIG     1      18.336  35.589  26.521  1.00  0.00     0.005 C 
ENDBRANCH   8   9
ENDBRANCH   7   8
ENDBRANCH   1   7
TORSDOF 6
ENDMDL
MODEL 7
REMARK VINA RESULT:      -4.5      2.709      4.636
REMARK  6 active torsions:
REMARK  status: ('A' for Active; 'I' for Inactive)
REMARK    1  A    between atoms: C_2  and  C_3 
REMARK    2  A    between atoms: C_3  and  C_4 
REMARK    3  A    between atoms: C_4  and  N_5 
REMARK    4  A    between atoms: N_5  and  C_6 
REMARK    5  A    between atoms: C_6  and  C_7 
REMARK    6  A    between atoms: C_7  and  C_8 
ROOT
HETATM    1  N   LIG     1      17.590  37.373  21.523  1.00  0.00     0.083 N 
HETATM    2  H   LIG     1      18.611  37.347  21.749  1.00  0.00     0.315 HD
ENDROOT
BRANCH   1   3
HETATM    3  C   LIG     1      16.812  37.712  22.726  1.00  0.00     0.269 C 
BRANCH   3   4
HETATM    4  C   LIG     1      17.661  38.227  23.910  1.00  0.00     0.029 C 
BRANCH   4   5
HETATM    5  C   LIG     1      17.262  37.674  25.290  1.00  0.00    -0.003 C 
HETATM    6  C   LIG     1      18.380  36.879  25.962  1.00  0.00     0.005 C 
ENDBRANCH   4   5
ENDBRANCH   3   4
ENDBRANCH   1   3
BRANCH   1   7
HETATM    7  C   LIG     1      17.183  36.096  20.922  1.00  0.00     0.269 C 
BRANCH   7   8
HETATM    8  C   LIG     1      16.499  35.225  21.977  1.00  0.00     0.029 C 
BRANCH   8   9
HETATM    9  C   LIG     1      15.246  34.550  21.410  1.00  0.00    -0.003 C 
HETATM   10  C   LIG     1      15.604  33.566  20.300  1.00  0.00     0.005 C 
ENDBRANCH   8   9
ENDBRANCH   7   8
ENDBRANCH   1   7
TORSDOF 6
ENDMDL
MODEL 8
REMARK VINA RESULT:      -4.5      7.948      8.816
REMARK  6 active torsions:
REMARK  status: ('A' for Active; 'I' for Inactive)
REMARK    1  A    between atoms: C_2  and  C_3 
REMARK    2  A    between atoms: C_3  and  C_4 
REMARK    3  A    between atoms: C_4  and  N_5 
REMARK    4  A    between atoms: N_5  and  C_6 
REMARK    5  A    between atoms: C_6  and  C_7 
REMARK    6  A    between atoms: C_7  and  C_8 
ROOT
HETATM    1  N   LIG     1      14.078  31.740  18.801  1.00  0.00     0.083 N 
HETATM    2  H   LIG     1      13.994  30.722  18.575  1.00  0.00     0.315 HD
ENDROOT
BRANCH   1   3
HETATM    3  C   LIG     1      14.672  32.466  17.666  1.00  0.00     0.269 C 
BRANCH   3   4
HETATM    4  C   LIG     1      14.526  31.749  16.304  1.00  0.00     0.029 C 
BRANCH   4   5
HETATM    5  C   LIG     1      13.317  30.803  16.191  1.00  0.00    -0.003 C 
HETATM    6  C   LIG     1      13.319  29.983  14.902  1.00  0.00     0.005 C 
ENDBRANCH   4   5
ENDBRANCH   3   4
ENDBRANCH   1   3
BRANCH   1   7
HETATM    7  C   LIG     1      14.838  31.910  20.046  1.00  0.00     0.269 C 
BRANCH   7   8
HETATM    8  C   LIG     1      15.588  33.243  20.014  1.00  0.00     0.029 C 
BRANCH   8   9
HETATM    9  C   LIG     1      15.162  34.146  21.177  1.00  0.00    -0.003 C 
HETATM   10  C   LIG     1      16.336  34.974  21.691  1.00  0.00     0.005 C 
ENDBRANCH   8   9
ENDBRANCH   7   8
ENDBRANCH   1   7
TORSDOF 6
ENDMDL
MODEL 9
REMARK VINA RESULT:      -4.4      3.960      4.991
REMARK  6 active torsions:
REMARK  status: ('A' for Active; 'I' for Inactive)
REMARK    1  A    between atoms: C_2  and  C_3 
REMARK    2  A    between atoms: C_3  and  C_4 
REMARK    3  A    between atoms: C_4  and  N_5 
REMARK    4  A    between atoms: N_5  and  C_6 
REMARK    5  A    between atoms: C_6  and  C_7 
REMARK    6  A    between atoms: C_7  and  C_8 
ROOT
HETATM    1  N   LIG     1      16.677  35.502  20.153  1.00  0.00     0.083 N 
HETATM    2  H   LIG     1      17.055  34.535  20.029  1.00  0.00     0.315 HD
ENDROOT
BRANCH   1   3
HETATM    3  C   LIG     1      17.736  36.405  20.634  1.00  0.00     0.269 C 
BRANCH   3   4
HETATM    4  C   LIG     1      17.285  37.382  21.743  1.00  0.00     0.029 C 
BRANCH   4   5
HETATM    5  C   LIG     1      17.977  38.757  21.722  1.00  0.00    -0.003 C 
HETATM    6  C   LIG     1      18.772  39.006  20.441  1.00  0.00     0.005 C 
ENDBRANCH   4   5
ENDBRANCH   3   4
ENDBRANCH   1   3
BRANCH   1   7
HETATM    7  C   LIG     1      15.511  35.467  21.046  1.00  0.00     0.269 C 
BRANCH   7   8
HETATM    8  C   LIG     1      14.968  34.039  21.128  1.00  0.00     0.029 C 
BRANCH   8   9
HETATM    9  C   LIG     1      15.537  33.165  20.004  1.00  0.00    -0.003 C 
HETATM   10  C   LIG     1      14.884  31.786  19.994  1.00  0.00     0.005 C 
ENDBRANCH   8   9
ENDBRANCH   7   8
ENDBRANCH   1   7
TORSDOF 6
ENDMDL
MODEL 10
REMARK VINA RESULT:      -4.3      1.898      5.128
REMARK  6 active torsions:
REMARK  status: ('A' for Active; 'I' for Inactive)
REMARK    1  A    between atoms: C_2  and  C_3 
REMARK    2  A    between atoms: C_3  and  C_4 
REMARK    3  A    between atoms: C_4  and  N_5 
REMARK    4  A    between atoms: N_5  and  C_6 
REMARK    5  A    between atoms: C_6  and  C_7 
REMARK    6  A    between atoms: C_7  and  C_8 
ROOT
HETATM    1  N   LIG     1      17.492  35.846  21.809  1.00  0.00     0.083 N 
HETATM    2  H   LIG     1      17.336  34.815  21.890  1.00  0.00     0.315 HD
ENDROOT
BRANCH   1   3
HETATM    3  C   LIG     1      16.567  36.572  22.694  1.00  0.00     0.269 C 
BRANCH   3   4
HETATM    4  C   LIG     1      17.187  37.803  23.393  1.00  0.00     0.029 C 
BRANCH   4   5
HETATM    5  C   LIG     1      17.210  37.739  24.930  1.00  0.00    -0.003 C 
HETATM    6  C   LIG     1      17.672  36.384  25.464  1.00  0.00     0.005 C 
ENDBRANCH   4   5
ENDBRANCH   3   4
ENDBRANCH   1   3
BRANCH   1   7
HETATM    7  C   LIG     1      17.375  36.256  20.403  1.00  0.00     0.269 C 
BRANCH   7   8
HETATM    8  C   LIG     1      18.725  36.771  19.902  1.00  0.00     0.029 C 
BRANCH   8   9
HETATM    9  C   LIG     1      18.882  38.270  20.179  1.00  0.00    -0.003 C 
HETATM   10  C   LIG     1      20.185  38.806  19.594  1.00  0.00     0.005 C 
ENDBRANCH   8   9
ENDBRANCH   7   8
ENDBRANCH   1   7
TORSDOF 6
ENDMDL
MODEL 11
REMARK VINA RESULT:      -4.3      2.713      5.373
REMARK  6 active torsions:
REMARK  status: ('A' for Active; 'I' for Inactive)
REMARK    1  A    between atoms: C_2  and  C_3 
REMARK    2  A    between atoms: C_3  and  C_4 
REMARK    3  A    between atoms: C_4  and  N_5 
REMARK    4  A    between atoms: N_5  and  C_6 
REMARK    5  A    between atoms: C_6  and  C_7 
REMARK    6  A    between atoms: C_7  and  C_8 
ROOT
HETATM    1  N   LIG     1      18.478  36.182  20.127  1.00  0.00     0.083 N 
HETATM    2  H   LIG     1      18.720  35.245  19.730  1.00  0.00     0.315 HD
ENDROOT
BRANCH   1   3
HETATM    3  C   LIG     1      17.094  36.178  20.631  1.00  0.00     0.269 C 
BRANCH   3   4
HETATM    4  C   LIG     1      16.754  34.981  21.548  1.00  0.00     0.029 C 
BRANCH   4   5
HETATM    5  C   LIG     1      17.007  35.215  23.047  1.00  0.00    -0.003 C 
HETATM    6  C   LIG     1      16.911  36.687  23.447  1.00  0.00     0.005 C 
ENDBRANCH   4   5
ENDBRANCH   3   4
ENDBRANCH   1   3
BRANCH   1   7
HETATM    7  C   LIG     1      18.713  37.223  19.118  1.00  0.00     0.269 C 
BRANCH   7   8
HETATM    8  C   LIG     1      19.638  38.297  19.692  1.00  0.00     0.029 C 
BRANCH   8   9
HETATM    9  C   LIG     1      18.837  39.494  20.218  1.00  0.00    -0.003 C 
HETATM   10  C   LIG     1      18.651  39.411  21.731  1.00  0.00     0.005 C 
ENDBRANCH   8   9
ENDBRANCH   7   8
ENDBRANCH   1   7
TORSDOF 6
ENDMDL
MODEL 12
REMARK VINA RESULT:      -4.3      6.224      7.245
REMARK  6 active torsions:
REMARK  status: ('A' for Active; 'I' for Inactive)
REMARK    1  A    between atoms: C_2  and  C_3 
REMARK    2  A    between atoms: C_3  and  C_4 
REMARK    3  A    between atoms: C_4  and  N_5 
REMARK    4  A    between atoms: N_5  and  C_6 
REMARK    5  A    between atoms: C_6  and  C_7 
REMARK    6  A    between atoms: C_7  and  C_8 
ROOT
HETATM    1  N   LIG     1      15.599  34.063  19.711  1.00  0.00     0.083 N 
HETATM    2  H   LIG     1      15.067  34.760  19.141  1.00  0.00     0.315 HD
ENDROOT
BRANCH   1   3
HETATM    3  C   LIG     1      15.248  32.694  19.298  1.00  0.00     0.269 C 
BRANCH   3   4
HETATM    4  C   LIG     1      15.102  32.507  17.771  1.00  0.00     0.029 C 
BRANCH   4   5
HETATM    5  C   LIG     1      13.795  31.834  17.317  1.00  0.00    -0.003 C 
HETATM    6  C   LIG     1      13.960  31.006  16.043  1.00  0.00     0.005 C 
ENDBRANCH   4   5
ENDBRANCH   3   4
ENDBRANCH   1   3
BRANCH   1   7
HETATM    7  C   LIG     1      15.359  34.305  21.140  1.00  0.00     0.269 C 
BRANCH   7   8
HETATM    8  C   LIG     1      16.602  34.932  21.772  1.00  0.00     0.029 C 
BRANCH   8   9
HETATM    9  C   LIG     1      17.211  35.999  20.855  1.00  0.00    -0.003 C 
HETATM   10  C   LIG     1      17.390  37.323  21.592  1.00  0.00     0.005 C 
ENDBRANCH   8   9
ENDBRANCH   7   8
ENDBRANCH   1   7
TORSDOF 6
ENDMDL
MODEL 13
REMARK VINA RESULT:      -4.2      2.226      3.258
REMARK  6 active torsions:
REMARK  status: ('A' for Active; 'I' for Inactive)
REMARK    1  A    between atoms: C_2  and  C_3 
REMARK    2  A    between atoms: C_3  and  C_4 
REMARK    3  A    between atoms: C_4  and  N_5 
REMARK    4  A    between atoms: N_5  and  C_6 
REMARK    5  A    between atoms: C_6  and  C_7 
REMARK    6  A    between atoms: C_7  and  C_8 
ROOT
HETATM    1  N   LIG     1      17.687  38.195  23.143  1.00  0.00     0.083 N 
HETATM    2  H   LIG     1      17.777  38.876  23.931  1.00  0.00     0.315 HD
ENDROOT
BRANCH   1   3
HETATM    3  C   LIG     1      17.507  38.912  21.869  1.00  0.00     0.269 C 
BRANCH   3   4
HETATM    4  C   LIG     1      18.826  39.270  21.148  1.00  0.00     0.029 C 
BRANCH   4   5
HETATM    5  C   LIG     1      19.227  38.315  20.009  1.00  0.00    -0.003 C 
HETATM    6  C   LIG     1      19.044  38.930  18.622  1.00  0.00     0.005 C 
ENDBRANCH   4   5
ENDBRANCH   3   4
ENDBRANCH   1   3
BRANCH   1   7
HETATM    7  C   LIG     1      16.597  37.252  23.424  1.00  0.00     0.269 C 
BRANCH   7   8
HETATM    8  C   LIG     1      17.050  35.828  23.100  1.00  0.00     0.029 C 
BRANCH   8   9
HETATM    9  C   LIG     1      16.193  35.214  21.987  1.00  0.00    -0.003 C 
HETATM   10  C   LIG     1      16.755  35.553  20.609  1.00  0.00     0.005 C 
ENDBRANCH   8   9
ENDBRANCH   7   8
ENDBRANCH   1   7
TORSDOF 6
ENDMDL
MODEL 14
REMARK VINA RESULT:      -4.2      9.000      9.947
REMARK  6 active torsions:
REMARK  status: ('A' for Active; 'I' for Inactive)
REMARK    1  A    between atoms: C_2  and  C_3 
REMARK    2  A    between atoms: C_3  and  C_4 
REMARK    3  A    between atoms: C_4  and  N_5 
REMARK    4  A    between atoms: N_5  and  C_6 
REMARK    5  A    between atoms: C_6  and  C_7 
REMARK    6  A    between atoms: C_7  and  C_8 
ROOT
HETATM    1  N   LIG     1      16.043  32.553  16.585  1.00  0.00     0.083 N 
HETATM    2  H   LIG     1      16.827  33.246  16.558  1.00  0.00     0.315 HD
ENDROOT
BRANCH   1   3
HETATM    3  C   LIG     1      15.530  32.314  15.226  1.00  0.00     0.269 C 
BRANCH   3   4
HETATM    4  C   LIG     1      15.701  30.862  14.726  1.00  0.00     0.029 C 
BRANCH   4   5
HETATM    5  C   LIG     1      14.389  30.117  14.423  1.00  0.00    -0.003 C 
HETATM    6  C   LIG     1      13.284  30.417  15.435  1.00  0.00     0.005 C 
ENDBRANCH   4   5
ENDBRANCH   3   4
ENDBRANCH   1   3
BRANCH   1   7
HETATM    7  C   LIG     1      15.004  33.017  17.512  1.00  0.00     0.269 C 
BRANCH   7   8
HETATM    8  C   LIG     1      14.681  31.912  18.519  1.00  0.00     0.029 C 
BRANCH   8   9
HETATM    9  C   LIG     1      15.516  32.066  19.796  1.00  0.00    -0.003 C 
HETATM   10  C   LIG     1      15.571  33.523  20.246  1.00  0.00     0.005 C 
ENDBRANCH   8   9
ENDBRANCH   7   8
ENDBRANCH   1   7
TORSDOF 6
ENDMDL
MODEL 15
REMARK VINA RESULT:      -4.2      4.047      5.337
REMARK  6 active torsions:
REMARK  status: ('A' for Active; 'I' for Inactive)
REMARK    1  A    between atoms: C_2  and  C_3 
REMARK    2  A    between atoms: C_3  and  C_4 
REMARK    3  A    between atoms: C_4  and  N_5 
REMARK    4  A    between atoms: N_5  and  C_6 
REMARK    5  A    between atoms: C_6  and  C_7 
REMARK    6  A    between atoms: C_7  and  C_8 
ROOT
HETATM    1  N   LIG     1      16.993  35.589  20.454  1.00  0.00     0.083 N 
HETATM    2  H   LIG     1      16.325  35.816  19.682  1.00  0.00     0.315 HD
ENDROOT
BRANCH   1   3
HETATM    3  C   LIG     1      16.376  34.642  21.398  1.00  0.00     0.269 C 
BRANCH   3   4
HETATM    4  C   LIG     1      15.181  33.852  20.820  1.00  0.00     0.029 C 
BRANCH   4   5
HETATM    5  C   LIG     1      15.553  32.752  19.810  1.00  0.00    -0.003 C 
HETATM    6  C   LIG     1      14.818  31.436  20.063  1.00  0.00     0.005 C 
ENDBRANCH   4   5
ENDBRANCH   3   4
ENDBRANCH   1   3
BRANCH   1   7
HETATM    7  C   LIG     1      17.442  36.828  21.102  1.00  0.00     0.269 C 
BRANCH   7   8
HETATM    8  C   LIG     1      16.562  37.121  22.319  1.00  0.00     0.029 C 
BRANCH   8   9
HETATM    9  C   LIG     1      17.262  38.079  23.289  1.00  0.00    -0.003 C 
HETATM   10  C   LIG     1      17.066  37.639  24.737  1.00  0.00     0.005 C 
ENDBRANCH   8   9
ENDBRANCH   7   8
ENDBRANCH   1   7
TORSDOF 6
ENDMDL
MODEL 16
REMARK VINA RESULT:      -4.1      3.696      4.548
REMARK  6 active torsions:
REMARK  status: ('A' for Active; 'I' for Inactive)
REMARK    1  A    between atoms: C_2  and  C_3 
REMARK    2  A    between atoms: C_3  and  C_4 
REMARK    3  A    between atoms: C_4  and  N_5 
REMARK    4  A    between atoms: N_5  and  C_6 
REMARK    5  A    between atoms: C_6  and  C_7 
REMARK    6  A    between atoms: C_7  and  C_8 
ROOT
HETATM    1  N   LIG     1      18.209  36.040  20.548  1.00  0.00     0.083 N 
HETATM    2  H   LIG     1      18.995  36.186  21.222  1.00  0.00     0.315 HD
ENDROOT
BRANCH   1   3
HETATM    3  C   LIG     1      18.370  36.923  19.381  1.00  0.00     0.269 C 
BRANCH   3   4
HETATM    4  C   LIG     1      19.550  37.915  19.490  1.00  0.00     0.029 C 
BRANCH   4   5
HETATM    5  C   LIG     1      19.156  39.363  19.831  1.00  0.00    -0.003 C 
HETATM    6  C   LIG     1      18.665  39.526  21.269  1.00  0.00     0.005 C 
ENDBRANCH   4   5
ENDBRANCH   3   4
ENDBRANCH   1   3
BRANCH   1   7
HETATM    7  C   LIG     1      16.925  36.231  21.234  1.00  0.00     0.269 C 
BRANCH   7   8
HETATM    8  C   LIG     1      16.498  34.923  21.902  1.00  0.00     0.029 C 
BRANCH   8   9
HETATM    9  C   LIG     1      15.196  34.390  21.294  1.00  0.00    -0.003 C 
HETATM   10  C   LIG     1      15.478  33.441  20.132  1.00  0.00     0.005 C 
ENDBRANCH   8   9
ENDBRANCH   7   8
ENDBRANCH   1   7
TORSDOF 6
ENDMDL
MODEL 17
REMARK VINA RESULT:      -4.1      8.425      9.286
REMARK  6 active torsions:
REMARK  status: ('A' for Active; 'I' for Inactive)
REMARK    1  A    between atoms: C_2  and  C_3 
REMARK    2  A    between atoms: C_3  and  C_4 
REMARK    3  A    between atoms: C_4  and  N_5 
REMARK    4  A    between atoms: N_5  and  C_6 
REMARK    5  A    between atoms: C_6  and  C_7 
REMARK    6  A    between atoms: C_7  and  C_8 
ROOT
HETATM    1  N   LIG     1      13.525  31.855  18.019  1.00  0.00     0.083 N 
HETATM    2  H   LIG     1      12.852  31.059  18.104  1.00  0.00     0.315 HD
ENDROOT
BRANCH   1   3
HETATM    3  C   LIG     1      13.964  32.003  16.621  1.00  0.00     0.269 C 
BRANCH   3   4
HETATM    4  C   LIG     1      13.834  30.718  15.773  1.00  0.00     0.029 C 
BRANCH   4   5
HETATM    5  C   LIG     1      14.860  30.581  14.634  1.00  0.00    -0.003 C 
HETATM    6  C   LIG     1      15.984  31.613  14.716  1.00  0.00     0.005 C 
ENDBRANCH   4   5
ENDBRANCH   3   4
ENDBRANCH   1   3
BRANCH   1   7
HETATM    7  C   LIG     1      14.645  31.657  18.949  1.00  0.00     0.269 C 
BRANCH   7   8
HETATM    8  C   LIG     1      15.497  32.926  19.006  1.00  0.00     0.029 C 
BRANCH   8   9
HETATM    9  C   LIG     1      15.444  33.566  20.398  1.00  0.00    -0.003 C 
HETATM   10  C   LIG     1      15.874  35.029  20.349  1.00  0.00     0.005 C 
ENDBRANCH   8   9
ENDBRANCH   7   8
ENDBRANCH   1   7
TORSDOF 6
ENDMDL
MODEL 18
REMARK VINA RESULT:      -4.0     10.597     11.669
REMARK  6 active torsions:
REMARK  status: ('A' for Active; 'I' for Inactive)
REMARK    1  A    between atoms: C_2  and  C_3 
REMARK    2  A    between atoms: C_3  and  C_4 
REMARK    3  A    between atoms: C_4  and  N_5 
REMARK    4  A    between atoms: N_5  and  C_6 
REMARK    5  A    between atoms: C_6  and  C_7 
REMARK    6  A    between atoms: C_7  and  C_8 
ROOT
HETATM    1  N   LIG     1      15.214  30.634  13.415  1.00  0.00     0.083 N 
HETATM    2  H   LIG     1      15.770  29.886  12.941  1.00  0.00     0.315 HD
ENDROOT
BRANCH   1   3
HETATM    3  C   LIG     1      15.936  31.916  13.360  1.00  0.00     0.269 C 
BRANCH   3   4
HETATM    4  C   LIG     1      16.490  32.395  14.721  1.00  0.00     0.029 C 
BRANCH   4   5
HETATM    5  C   LIG     1      17.759  33.261  14.640  1.00  0.00    -0.003 C 
HETATM    6  C   LIG     1      18.127  33.652  13.210  1.00  0.00     0.005 C 
ENDBRANCH   4   5
ENDBRANCH   3   4
ENDBRANCH   1   3
BRANCH   1   7
HETATM    7  C   LIG     1      14.894  30.220  14.787  1.00  0.00     0.269 C 
BRANCH   7   8
HETATM    8  C   LIG     1      13.387  29.993  14.919  1.00  0.00     0.029 C 
BRANCH   8   9
HETATM    9  C   LIG     1      12.807  30.801  16.085  1.00  0.00    -0.003 C 
HETATM   10  C   LIG     1      13.912  31.324  16.998  1.00  0.00     0.005 C 
ENDBRANCH   8   9
ENDBRANCH   7   8
ENDBRANCH   1   7
TORSDOF 6
ENDMDL
MODEL 19
REMARK VINA RESULT:      -4.0      9.761     11.180
REMARK  6 active torsions:
REMARK  status: ('A' for Active; 'I' for Inactive)
REMARK    1  A    between atoms: C_2  and  C_3 
REMARK    2  A    between atoms: C_3  and  C_4 
REMARK    3  A    between atoms: C_4  and  N_5 
REMARK    4  A    between atoms: N_5  and  C_6 
REMARK    5  A    between atoms: C_6  and  C_7 
REMARK    6  A    between atoms: C_7  and  C_8 
ROOT
HETATM    1  N   LIG     1      14.026  32.582  17.573  1.00  0.00     0.083 N 
HETATM    2  H   LIG     1      14.563  31.839  18.076  1.00  0.00     0.315 HD
ENDROOT
BRANCH   1   3
HETATM    3  C   LIG     1      12.940  31.977  16.784  1.00  0.00     0.269 C 
BRANCH   3   4
HETATM    4  C   LIG     1      13.166  30.492  16.421  1.00  0.00     0.029 C 
BRANCH   4   5
HETATM    5  C   LIG     1      13.119  30.174  14.916  1.00  0.00    -0.003 C 
HETATM    6  C   LIG     1      14.444  29.635  14.378  1.00  0.00     0.005 C 
ENDBRANCH   4   5
ENDBRANCH   3   4
ENDBRANCH   1   3
BRANCH   1   7
HETATM    7  C   LIG     1      14.942  33.389  16.757  1.00  0.00     0.269 C 
BRANCH   7   8
HETATM    8  C   LIG     1      16.010  32.487  16.136  1.00  0.00     0.029 C 
BRANCH   8   9
HETATM    9  C   LIG     1      16.768  33.214  15.020  1.00  0.00    -0.003 C 
HETATM   10  C   LIG     1      16.514  32.561  13.665  1.00  0.00     0.005 C 
ENDBRANCH   8   9
ENDBRANCH   7   8
ENDBRANCH   1   7
TORSDOF 6
ENDMDL
MODEL 20
REMARK VINA RESULT:      -3.9      5.225      6.681
REMARK  6 active torsions:
REMARK  status: ('A' for Active; 'I' for Inactive)
REMARK    1  A    between atoms: C_2  and  C_3 
REMARK    2  A    between atoms: C_3  and  C_4 
REMARK    3  A    between atoms: C_4  and  N_5 
REMARK    4  A    between atoms: N_5  and  C_6 
REMARK    5  A    between atoms: C_6  and  C_7 
REMARK    6  A    between atoms: C_7  and  C_8 
ROOT
HETATM    1  N   LIG     1      16.071  34.624  19.762  1.00  0.00     0.083 N 
HETATM    2  H   LIG     1      16.838  34.235  19.166  1.00  0.00     0.315 HD
ENDROOT
BRANCH   1   3
HETATM    3  C   LIG     1      16.623  35.563  20.753  1.00  0.00     0.269 C 
BRANCH   3   4
HETATM    4  C   LIG     1      16.064  35.382  22.182  1.00  0.00     0.029 C 
BRANCH   4   5
HETATM    5  C   LIG     1      17.111  35.461  23.307  1.00  0.00    -0.003 C 
HETATM    6  C   LIG     1      17.110  36.807  24.031  1.00  0.00     0.005 C 
ENDBRANCH   4   5
ENDBRANCH   3   4
ENDBRANCH   1   3
BRANCH   1   7
HETATM    7  C   LIG     1      15.317  33.524  20.378  1.00  0.00     0.269 C 
BRANCH   7   8
HETATM    8  C   LIG     1      15.707  32.200  19.721  1.00  0.00     0.029 C 
BRANCH   8   9
HETATM    9  C   LIG     1      14.548  31.629  18.896  1.00  0.00    -0.003 C 
HETATM   10  C   LIG     1      14.517  32.234  17.496  1.00  0.00     0.005 C 
ENDBRANCH   8   9
ENDBRANCH   7   8
ENDBRANCH   1   7
TORSDOF 6
ENDMDL
