MODEL 1
REMARK VINA RESULT:      -4.1      0.000      0.000
REMARK  4 active torsions:
REMARK  status: ('A' for Active; 'I' for Inactive)
REMARK    1  A    between atoms: C_2  and  C_3 
REMARK    2  A    between atoms: C_3  and  O_4 
REMARK    3  A    between atoms: O_4  and  C_5 
REMARK    4  A    between atoms: C_5  and  C_6 
ROOT
HETATM    1  O   LIG     1      16.014  37.995  24.305  1.00  0.00    -0.389 OA
ENDROOT
BRANCH   1   2
HETATM    2  C   LIG     1      16.319  37.877  22.927  1.00  0.00     0.182 C 
BRANCH   2   3
HETATM    3  C   LIG     1      17.251  39.006  22.497  1.00  0.00     0.140 C 
HETATM    4 CL   LIG     1      18.224  38.499  21.092  1.00  0.00    -0.128 Cl
ENDBRANCH   2   3
ENDBRANCH   1   2
BRANCH   1   5
HETATM    5  C   LIG     1      17.189  37.897  25.083  1.00  0.00     0.182 C 
BRANCH   5   6
HETATM    6  C   LIG     1      17.516  36.427  25.306  1.00  0.00     0.140 C 
HETATM    7 CL   LIG     1      18.420  36.221  26.828  1.00  0.00    -0.128 Cl
ENDBRANCH   5   6
ENDBRANCH   1   5
TORSDOF 4
ENDMDL
MODEL 2
REMARK VINA RESULT:      -4.1      0.892      3.982
REMARK  4 active torsions:
REMARK  status: ('A' for Active; 'I' for Inactive)
REMARK    1  A    between atoms: C_2  and  C_3 
REMARK    2  A    between atoms: C_3  and  O_4 
REMARK    3  A    between atoms: O_4  and  C_5 
REMARK    4  A    between atoms: C_5  and  C_6 
ROOT
HETATM    1  O   LIG     1      16.032  37.927  24.238  1.00  0.00    -0.389 OA
ENDROOT
BRANCH   1   2
HETATM    2  C   LIG     1      17.082  37.045  24.587  1.00  0.00     0.182 C 
BRANCH   2   3
HETATM    3  C   LIG     1      17.726  37.488  25.898  1.00  0.00     0.140 C 
HETATM    4 CL   LIG     1      18.338  36.073  26.793  1.00  0.00    -0.128 Cl
ENDBRANCH   2   3
ENDBRANCH   1   2
BRANCH   1   5
HETATM    5  C   LIG     1      15.742  37.831  22.858  1.00  0.00     0.182 C 
BRANCH   5   6
HETATM    6  C   LIG     1      17.011  37.449  22.109  1.00  0.00     0.140 C 
HETATM    7 CL   LIG     1      17.834  38.910  21.506  1.00  0.00    -0.128 Cl
ENDBRANCH   5   6
ENDBRANCH   1   5
TORSDOF 4
ENDMDL
MODEL 3
REMARK VINA RESULT:      -4.0      1.765      1.783
REMARK  4 active torsions:
REMARK  status: ('A' for Active; 'I' for Inactive)
REMARK    1  A    between atoms: C_2  and  C_3 
REMARK    2  A    between atoms: C_3  and  O_4 
REMARK    3  A    between atoms: O_4  and  C_5 
REMARK    4  A    between atoms: C_5  and  C_6 
ROOT
HETATM    1  O   LIG     1      16.308  37.867  24.575  1.00  0.00    -0.389 OA
ENDROOT
BRANCH   1   2
HETATM    2  C   LIG     1      16.027  37.786  23.190  1.00  0.00     0.182 C 
BRANCH   2   3
HETATM    3  C   LIG     1      17.140  37.029  22.471  1.00  0.00     0.140 C 
HETATM    4 CL   LIG     1      16.745  35.293  22.381  1.00  0.00    -0.128 Cl
ENDBRANCH   2   3
ENDBRANCH   1   2
BRANCH   1   5
HETATM    5  C   LIG     1      17.699  37.787  24.804  1.00  0.00     0.182 C 
BRANCH   5   6
HETATM    6  C   LIG     1      17.947  37.009  26.089  1.00  0.00     0.140 C 
HETATM    7 CL   LIG     1      17.817  35.258  25.785  1.00  0.00    -0.128 Cl
ENDBRANCH   5   6
ENDBRANCH   1   5
TORSDOF 4
ENDMDL
MODEL 4
REMARK VINA RESULT:      -4.0      1.738      3.634
REMARK  4 active torsions:
REMARK  status: ('A' for Active; 'I' for Inactive)
REMARK    1  A    between atoms: C_2  and  C_3 
REMARK    2  A    between atoms: C_3  and  O_4 
REMARK    3  A    between atoms: O_4  and  C_5 
REMARK    4  A    between atoms: C_5  and  C_6 
ROOT
HETATM    1  O   LIG     1      16.116  37.881  24.341  1.00  0.00    -0.389 OA
ENDROOT
BRANCH   1   2
HETATM    2  C   LIG     1      17.508  37.822  24.586  1.00  0.00     0.182 C 
BRANCH   2   3
HETATM    3  C   LIG     1      17.786  37.013  25.851  1.00  0.00     0.140 C 
HETATM    4 CL   LIG     1      17.558  35.275  25.532  1.00  0.00    -0.128 Cl
ENDBRANCH   2   3
ENDBRANCH   1   2
BRANCH   1   5
HETATM    5  C   LIG     1      15.848  37.738  22.961  1.00  0.00     0.182 C 
BRANCH   5   6
HETATM    6  C   LIG     1      17.059  37.110  22.283  1.00  0.00     0.140 C 
HETATM    7 CL   LIG     1      16.804  35.360  22.063  1.00  0.00    -0.128 Cl
ENDBRANCH   5   6
ENDBRANCH   1   5
TORSDOF 4
ENDMDL
MODEL 5
REMARK VINA RESULT:      -3.6      1.529      1.907
REMARK  4 active torsions:
REMARK  status: ('A' for Active; 'I' for Inactive)
REMARK    1  A    between atoms: C_2  and  C_3 
REMARK    2  A    between atoms: C_3  and  O_4 
REMARK    3  A    between atoms: O_4  and  C_5 
REMARK    4  A    between atoms: C_5  and  C_6 
ROOT
HETATM    1  O   LIG     1      17.231  38.830  22.736  1.00  0.00    -0.389 OA
ENDROOT
BRANCH   1   2
HETATM    2  C   LIG     1      18.542  39.052  22.251  1.00  0.00     0.182 C 
BRANCH   2   3
HETATM    3  C   LIG     1      18.540  39.083  20.725  1.00  0.00     0.140 C 
HETATM    4 CL   LIG     1      18.721  37.433  20.076  1.00  0.00    -0.128 Cl
ENDBRANCH   2   3
ENDBRANCH   1   2
BRANCH   1   5
HETATM    5  C   LIG     1      17.193  37.681  23.557  1.00  0.00     0.182 C 
BRANCH   5   6
HETATM    6  C   LIG     1      17.342  38.105  25.012  1.00  0.00     0.140 C 
HETATM    7 CL   LIG     1      18.433  36.987  25.871  1.00  0.00    -0.128 Cl
ENDBRANCH   5   6
ENDBRANCH   1   5
TORSDOF 4
ENDMDL
MODEL 6
REMARK VINA RESULT:      -3.6      2.091      4.397
REMARK  4 active torsions:
REMARK  status: ('A' for Active; 'I' for Inactive)
REMARK    1  A    between atoms: C_2  and  C_3 
REMARK    2  A    between atoms: C_3  and  O_4 
REMARK    3  A    between atoms: O_4  and  C_5 
REMARK    4  A    between atoms: C_5  and  C_6 
ROOT
HETATM    1  O   LIG     1      16.778  37.836  22.406  1.00  0.00    -0.389 OA
ENDROOT
BRANCH   1   2
HETATM    2  C   LIG     1      16.793  36.543  22.981  1.00  0.00     0.182 C 
BRANCH   2   3
HETATM    3  C   LIG     1      17.215  36.625  24.446  1.00  0.00     0.140 C 
HETATM    4 CL   LIG     1      17.390  34.987  25.128  1.00  0.00    -0.128 Cl
ENDBRANCH   2   3
ENDBRANCH   1   2
BRANCH   1   5
HETATM    5  C   LIG     1      17.839  37.981  21.484  1.00  0.00     0.182 C 
BRANCH   5   6
HETATM    6  C   LIG     1      17.917  36.733  20.616  1.00  0.00     0.140 C 
HETATM    7 CL   LIG     1      19.315  36.833  19.515  1.00  0.00    -0.128 Cl
ENDBRANCH   5   6
ENDBRANCH   1   5
TORSDOF 4
ENDMDL
MODEL 7
REMARK VINA RESULT:      -3.4      2.208      3.915
REMARK  4 active torsions:
REMARK  status: ('A' for Active; 'I' for Inactive)
REMARK    1  A    between atoms: C_2  and  C_3 
REMARK    2  A    between atoms: C_3  and  O_4 
REMARK    3  A    between atoms: O_4  and  C_5 
REMARK    4  A    between atoms: C_5  and  C_6 
ROOT
HETATM    1  O   LIG     1      16.285  37.412  22.896  1.00  0.00    -0.389 OA
ENDROOT
BRANCH   1   2
HETATM    2  C   LIG     1      16.502  36.584  21.769  1.00  0.00     0.182 C 
BRANCH   2   3
HETATM    3  C   LIG     1      16.923  35.186  22.216  1.00  0.00     0.140 C 
HETATM    4 CL   LIG     1      17.186  35.158  23.979  1.00  0.00    -0.128 Cl
ENDBRANCH   2   3
ENDBRANCH   1   2
BRANCH   1   5
HETATM    5  C   LIG     1      16.716  38.731  22.634  1.00  0.00     0.182 C 
BRANCH   5   6
HETATM    6  C   LIG     1      18.230  38.735  22.470  1.00  0.00     0.140 C 
HETATM    7 CL   LIG     1      18.682  39.513  20.932  1.00  0.00    -0.128 Cl
ENDBRANCH   5   6
ENDBRANCH   1   5
TORSDOF 4
ENDMDL
MODEL 8
REMARK VINA RESULT:      -3.4      3.036      3.413
REMARK  4 active torsions:
REMARK  status: ('A' for Active; 'I' for Inactive)
REMARK    1  A    between atoms: C_2  and  C_3 
REMARK    2  A    between atoms: C_3  and  O_4 
REMARK    3  A    between atoms: O_4  and  C_5 
REMARK    4  A    between atoms: C_5  and  C_6 
ROOT
HETATM    1  O   LIG     1      17.580  38.749  22.131  1.00  0.00    -0.389 OA
ENDROOT
BRANCH   1   2
HETATM    2  C   LIG     1      18.784  39.347  21.688  1.00  0.00     0.182 C 
BRANCH   2   3
HETATM    3  C   LIG     1      18.836  39.356  20.162  1.00  0.00     0.140 C 
HETATM    4 CL   LIG     1      20.392  38.698  19.595  1.00  0.00    -0.128 Cl
ENDBRANCH   2   3
ENDBRANCH   1   2
BRANCH   1   5
HETATM    5  C   LIG     1      17.418  37.471  21.551  1.00  0.00     0.182 C 
BRANCH   5   6
HETATM    6  C   LIG     1      16.833  36.524  22.590  1.00  0.00     0.140 C 
HETATM    7 CL   LIG     1      16.771  34.864  21.946  1.00  0.00    -0.128 Cl
ENDBRANCH   5   6
ENDBRANCH   1   5
TORSDOF 4
ENDMDL
MODEL 9
REMARK VINA RESULT:      -3.4      2.557      4.839
REMARK  4 active torsions:
REMARK  status: ('A' for Active; 'I' for Inactive)
REMARK    1  A    between atoms: C_2  and  C_3 
REMARK    2  A    between atoms: C_3  and  O_4 
REMARK    3  A    between atoms: O_4  and  C_5 
REMARK    4  A    between atoms: C_5  and  C_6 
ROOT
HETATM    1  O   LIG     1      17.934  37.675  21.114  1.00  0.00    -0.389 OA
ENDROOT
BRANCH   1   2
HETATM    2  C   LIG     1      17.108  37.454  22.242  1.00  0.00     0.182 C 
BRANCH   2   3
HETATM    3  C   LIG     1      17.274  38.592  23.246  1.00  0.00     0.140 C 
HETATM    4 CL   LIG     1      18.057  37.994  24.731  1.00  0.00    -0.128 Cl
ENDBRANCH   2   3
ENDBRANCH   1   2
BRANCH   1   5
HETATM    5  C   LIG     1      18.407  39.006  21.099  1.00  0.00     0.182 C 
BRANCH   5   6
HETATM    6  C   LIG     1      19.598  39.099  20.155  1.00  0.00     0.140 C 
HETATM    7 CL   LIG     1      19.057  38.952  18.463  1.00  0.00    -0.128 Cl
ENDBRANCH   5   6
ENDBRANCH   1   5
TORSDOF 4
ENDMDL
MODEL 10
REMARK VINA RESULT:      -3.3      9.214     10.339
REMARK  4 active torsions:
REMARK  status: ('A' for Active; 'I' for Inactive)
REMARK    1  A    between atoms: C_2  and  C_3 
REMARK    2  A    between atoms: C_3  and  O_4 
REMARK    3  A    between atoms: O_4  and  C_5 
REMARK    4  A    between atoms: C_5  and  C_6 
ROOT
HETATM    1  O   LIG     1      13.956  31.711  17.880  1.00  0.00    -0.389 OA
ENDROOT
BRANCH   1   2
HETATM    2  C   LIG     1      14.971  32.637  18.222  1.00  0.00     0.182 C 
BRANCH   2   3
HETATM    3  C   LIG     1      15.348  32.484  19.693  1.00  0.00     0.140 C 
HETATM    4 CL   LIG     1      14.888  30.866  20.281  1.00  0.00    -0.128 Cl
ENDBRANCH   2   3
ENDBRANCH   1   2
BRANCH   1   5
HETATM    5  C   LIG     1      14.188  31.174  16.594  1.00  0.00     0.182 C 
BRANCH   5   6
HETATM    6  C   LIG     1      12.873  30.656  16.028  1.00  0.00     0.140 C 
HETATM    7 CL   LIG     1      13.175  29.650  14.588  1.00  0.00    -0.128 Cl
ENDBRANCH   5   6
ENDBRANCH   1   5
TORSDOF 4
ENDMDL
MODEL 11
REMARK VINA RESULT:      -3.3      7.749      8.538
REMARK  4 active torsions:
REMARK  status: ('A' for Active; 'I' for Inactive)
REMARK    1  A    between atoms: C_2  and  C_3 
REMARK    2  A    between atoms: C_3  and  O_4 
REMARK    3  A    between atoms: O_4  and  C_5 
REMARK    4  A    between atoms: C_5  and  C_6 
ROOT
HETATM    1  O   LIG     1      15.618  33.103  17.865  1.00  0.00    -0.389 OA
ENDROOT
BRANCH   1   2
HETATM    2  C   LIG     1      14.938  32.586  16.736  1.00  0.00     0.182 C 
BRANCH   2   3
HETATM    3  C   LIG     1      13.793  31.680  17.182  1.00  0.00     0.140 C 
HETATM    4 CL   LIG     1      13.226  30.687  15.814  1.00  0.00    -0.128 Cl
ENDBRANCH   2   3
ENDBRANCH   1   2
BRANCH   1   5
HETATM    5  C   LIG     1      15.201  32.440  19.041  1.00  0.00     0.182 C 
BRANCH   5   6
HETATM    6  C   LIG     1      15.514  33.319  20.244  1.00  0.00     0.140 C 
HETATM    7 CL   LIG     1      15.691  35.019  19.737  1.00  0.00    -0.128 Cl
ENDBRANCH   5   6
ENDBRANCH   1   5
TORSDOF 4
ENDMDL
MODEL 12
REMARK VINA RESULT:      -3.3      9.012      9.753
REMARK  4 active torsions:
REMARK  status: ('A' for Active; 'I' for Inactive)
REMARK    1  A    between atoms: C_2  and  C_3 
REMARK    2  A    between atoms: C_3  and  O_4 
REMARK    3  A    between atoms: O_4  and  C_5 
REMARK    4  A    between atoms: C_5  and  C_6 
ROOT
HETATM    1  O   LIG     1      16.007  33.817  15.897  1.00  0.00    -0.389 OA
ENDROOT
BRANCH   1   2
HETATM    2  C   LIG     1      16.193  32.462  15.536  1.00  0.00     0.182 C 
BRANCH   2   3
HETATM    3  C   LIG     1      16.237  32.325  14.016  1.00  0.00     0.140 C 
HETATM    4 CL   LIG     1      15.372  30.853  13.505  1.00  0.00    -0.128 Cl
ENDBRANCH   2   3
ENDBRANCH   1   2
BRANCH   1   5
HETATM    5  C   LIG     1      15.079  33.925  16.957  1.00  0.00     0.182 C 
BRANCH   5   6
HETATM    6  C   LIG     1      14.790  32.535  17.508  1.00  0.00     0.140 C 
HETATM    7 CL   LIG     1      15.383  32.401  19.183  1.00  0.00    -0.128 Cl
ENDBRANCH   5   6
ENDBRANCH   1   5
TORSDOF 4
ENDMDL
MODEL 13
REMARK VINA RESULT:      -3.3      9.497     10.744
REMARK  4 active torsions:
REMARK  status: ('A' for Active; 'I' for Inactive)
REMARK    1  A    between atoms: C_2  and  C_3 
REMARK    2  A    between atoms: C_3  and  O_4 
REMARK    3  A    between atoms: O_4  and  C_5 
REMARK    4  A    between atoms: C_5  and  C_6 
ROOT
HETATM    1  O   LIG     1      15.801  33.701  15.733  1.00  0.00    -0.389 OA
ENDROOT
BRANCH   1   2
HETATM    2  C   LIG     1      14.911  33.734  16.833  1.00  0.00     0.182 C 
BRANCH   2   3
HETATM    3  C   LIG     1      14.563  32.313  17.269  1.00  0.00     0.140 C 
HETATM    4 CL   LIG     1      12.878  31.930  16.831  1.00  0.00    -0.128 Cl
ENDBRANCH   2   3
ENDBRANCH   1   2
BRANCH   1   5
HETATM    5  C   LIG     1      16.181  32.373  15.441  1.00  0.00     0.182 C 
BRANCH   5   6
HETATM    6  C   LIG     1      16.079  32.145  13.939  1.00  0.00     0.140 C 
HETATM    7 CL   LIG     1      15.193  30.635  13.604  1.00  0.00    -0.128 Cl
ENDBRANCH   5   6
ENDBRANCH   1   5
TORSDOF 4
ENDMDL
MODEL 14
REMARK VINA RESULT:      -3.3      9.030     10.333
REMARK  4 active torsions:
REMARK  status: ('A' for Active; 'I' for Inactive)
REMARK    1  A    between atoms: C_2  and  C_3 
REMARK    2  A    between atoms: C_3  and  O_4 
REMARK    3  A    between atoms: O_4  and  C_5 
REMARK    4  A    between atoms: C_5  and  C_6 
ROOT
HETATM    1  O   LIG     1      16.071  33.773  15.941  1.00  0.00    -0.389 OA
ENDROOT
BRANCH   1   2
HETATM    2  C   LIG     1      15.007  33.807  16.874  1.00  0.00     0.182 C 
BRANCH   2   3
HETATM    3  C   LIG     1      14.787  32.420  17.472  1.00  0.00     0.140 C 
HETATM    4 CL   LIG     1      15.381  32.373  19.152  1.00  0.00    -0.128 Cl
ENDBRANCH   2   3
ENDBRANCH   1   2
BRANCH   1   5
HETATM    5  C   LIG     1      16.343  32.445  15.547  1.00  0.00     0.182 C 
BRANCH   5   6
HETATM    6  C   LIG     1      16.231  32.344  14.032  1.00  0.00     0.140 C 
HETATM    7 CL   LIG     1      15.366  30.854  13.575  1.00  0.00    -0.128 Cl
ENDBRANCH   5   6
ENDBRANCH   1   5
TORSDOF 4
ENDMDL
MODEL 15
REMARK VINA RESULT:      -3.2      3.454      4.838
REMARK  4 active torsions:
REMARK  status: ('A' for Active; 'I' for Inactive)
REMARK    1  A    between atoms: C_2  and  C_3 
REMARK    2  A    between atoms: C_3  and  O_4 
REMARK    3  A    between atoms: O_4  and  C_5 
REMARK    4  A    between atoms: C_5  and  C_6 
ROOT
HETATM    1  O   LIG     1      17.789  37.344  21.285  1.00  0.00    -0.389 OA
ENDROOT
BRANCH   1   2
HETATM    2  C   LIG     1      16.734  36.827  22.075  1.00  0.00     0.182 C 
BRANCH   2   3
HETATM    3  C   LIG     1      16.885  35.315  22.227  1.00  0.00     0.140 C 
HETATM    4 CL   LIG     1      15.554  34.476  21.389  1.00  0.00    -0.128 Cl
ENDBRANCH   2   3
ENDBRANCH   1   2
BRANCH   1   5
HETATM    5  C   LIG     1      17.917  38.737  21.480  1.00  0.00     0.182 C 
BRANCH   5   6
HETATM    6  C   LIG     1      19.080  39.252  20.642  1.00  0.00     0.140 C 
HETATM    7 CL   LIG     1      19.122  38.417  19.068  1.00  0.00    -0.128 Cl
ENDBRANCH   5   6
ENDBRANCH   1   5
TORSDOF 4
ENDMDL
MODEL 16
REMARK VINA RESULT:      -3.2     11.036     12.050
REMARK  4 active torsions:
REMARK  status: ('A' for Active; 'I' for Inactive)
REMARK    1  A    between atoms: C_2  and  C_3 
REMARK    2  A    between atoms: C_3  and  O_4 
REMARK    3  A    between atoms: O_4  and  C_5 
REMARK    4  A    between atoms: C_5  and  C_6 
ROOT
HETATM    1  O   LIG     1      15.924  30.644  13.366  1.00  0.00    -0.389 OA
ENDROOT
BRANCH   1   2
HETATM    2  C   LIG     1      15.424  29.867  14.439  1.00  0.00     0.182 C 
BRANCH   2   3
HETATM    3  C   LIG     1      13.914  29.691  14.302  1.00  0.00     0.140 C 
HETATM    4 CL   LIG     1      13.075  30.516  15.642  1.00  0.00    -0.128 Cl
ENDBRANCH   2   3
ENDBRANCH   1   2
BRANCH   1   5
HETATM    5  C   LIG     1      15.955  32.012  13.717  1.00  0.00     0.182 C 
BRANCH   5   6
HETATM    6  C   LIG     1      16.589  32.158  15.093  1.00  0.00     0.140 C 
HETATM    7 CL   LIG     1      15.503  33.063  16.179  1.00  0.00    -0.128 Cl
ENDBRANCH   5   6
ENDBRANCH   1   5
TORSDOF 4
ENDMDL
MODEL 17
REMARK VINA RESULT:      -3.1      8.746     10.180
REMARK  4 active torsions:
REMARK  status: ('A' for Active; 'I' for Inactive)
REMARK    1  A    between atoms: C_2  and  C_3 
REMARK    2  A    between atoms: C_3  and  O_4 
REMARK    3  A    between atoms: O_4  and  C_5 
REMARK    4  A    between atoms: C_5  and  C_6 
ROOT
HETATM    1  O   LIG     1      16.054  33.747  15.923  1.00  0.00    -0.389 OA
ENDROOT
BRANCH   1   2
HETATM    2  C   LIG     1      15.035  33.864  16.900  1.00  0.00     0.182 C 
BRANCH   2   3
HETATM    3  C   LIG     1      14.727  32.497  17.504  1.00  0.00     0.140 C 
HETATM    4 CL   LIG     1      15.404  32.383  19.148  1.00  0.00    -0.128 Cl
ENDBRANCH   2   3
ENDBRANCH   1   2
BRANCH   1   5
HETATM    5  C   LIG     1      16.199  32.402  15.517  1.00  0.00     0.182 C 
BRANCH   5   6
HETATM    6  C   LIG     1      16.202  32.340  13.996  1.00  0.00     0.140 C 
HETATM    7 CL   LIG     1      17.563  33.288  13.343  1.00  0.00    -0.128 Cl
ENDBRANCH   5   6
ENDBRANCH   1   5
TORSDOF 4
ENDMDL
MODEL 18
REMARK VINA RESULT:      -3.1      3.273      3.642
REMARK  4 active torsions:
REMARK  status: ('A' for Active; 'I' for Inactive)
REMARK    1  A    between atoms: C_2  and  C_3 
REMARK    2  A    between atoms: C_3  and  O_4 
REMARK    3  A    between atoms: O_4  and  C_5 
REMARK    4  A    between atoms: C_5  and  C_6 
ROOT
HETATM    1  O   LIG     1      15.836  36.377  22.353  1.00  0.00    -0.389 OA
ENDROOT
BRANCH   1   2
HETATM    2  C   LIG     1      16.288  35.257  21.616  1.00  0.00     0.182 C 
BRANCH   2   3
HETATM    3  C   LIG     1      15.125  34.309  21.335  1.00  0.00     0.140 C 
HETATM    4 CL   LIG     1      15.582  33.131  20.078  1.00  0.00    -0.128 Cl
ENDBRANCH   2   3
ENDBRANCH   1   2
BRANCH   1   5
HETATM    5  C   LIG     1      16.921  37.209  22.707  1.00  0.00     0.182 C 
BRANCH   5   6
HETATM    6  C   LIG     1      16.953  37.368  24.221  1.00  0.00     0.140 C 
HETATM    7 CL   LIG     1      17.444  35.838  24.991  1.00  0.00    -0.128 Cl
ENDBRANCH   5   6
ENDBRANCH   1   5
TORSDOF 4
ENDMDL
MODEL 19
REMARK VINA RESULT:      -3.1     10.861     11.825
REMARK  4 active torsions:
REMARK  status: ('A' for Active; 'I' for Inactive)
REMARK    1  A    between atoms: C_2  and  C_3 
REMARK    2  A    between atoms: C_3  and  O_4 
REMARK    3  A    between atoms: O_4  and  C_5 
REMARK    4  A    between atoms: C_5  and  C_6 
ROOT
HETATM    1  O   LIG     1      16.353  31.046  14.086  1.00  0.00    -0.389 OA
ENDROOT
BRANCH   1   2
HETATM    2  C   LIG     1      16.487  32.433  13.837  1.00  0.00     0.182 C 
BRANCH   2   3
HETATM    3  C   LIG     1      16.787  33.173  15.138  1.00  0.00     0.140 C 
HETATM    4 CL   LIG     1      15.562  32.775  16.369  1.00  0.00    -0.128 Cl
ENDBRANCH   2   3
ENDBRANCH   1   2
BRANCH   1   5
HETATM    5  C   LIG     1      15.192  30.540  13.460  1.00  0.00     0.182 C 
BRANCH   5   6
HETATM    6  C   LIG     1      14.519  29.542  14.393  1.00  0.00     0.140 C 
HETATM    7 CL   LIG     1      13.215  30.339  15.310  1.00  0.00    -0.128 Cl
ENDBRANCH   5   6
ENDBRANCH   1   5
TORSDOF 4
ENDMDL
MODEL 20
REMARK VINA RESULT:      -3.1     11.043     11.723
REMARK  4 active torsions:
REMARK  status: ('A' for Active; 'I' for Inactive)
REMARK    1  A    between atoms: C_2  and  C_3 
REMARK    2  A    between atoms: C_3  and  O_4 
REMARK    3  A    between atoms: O_4  and  C_5 
REMARK    4  A    between atoms: C_5  and  C_6 
ROOT
HETATM    1  O   LIG     1      17.032  32.022  14.570  1.00  0.00    -0.389 OA
ENDROOT
BRANCH   1   2
HETATM    2  C   LIG     1      17.717  33.259  14.611  1.00  0.00     0.182 C 
BRANCH   2   3
HETATM    3  C   LIG     1      17.980  33.762  13.193  1.00  0.00     0.140 C 
HETATM    4 CL   LIG     1      19.733  33.864  12.891  1.00  0.00    -0.128 Cl
ENDBRANCH   2   3
ENDBRANCH   1   2
BRANCH   1   5
HETATM    5  C   LIG     1      16.062  32.026  13.543  1.00  0.00     0.182 C 
BRANCH   5   6
HETATM    6  C   LIG     1      15.336  30.687  13.540  1.00  0.00     0.140 C 
HETATM    7 CL   LIG     1      14.437  30.469  15.063  1.00  0.00    -0.128 Cl
ENDBRANCH   5   6
ENDBRANCH   1   5
TORSDOF 4
ENDMDL
