REMARK  7 active torsions:
REMARK  status: ('A' for Active; 'I' for Inactive)
REMARK       I    between atoms: C_2  and  N_7 
REMARK    1  A    between atoms: C_2  and  S_3 
REMARK    2  A    between atoms: S_3  and  C_4 
REMARK    3  A    between atoms: C_4  and  C_5 
REMARK    4  A    between atoms: N_7  and  C_12 
REMARK    5  A    between atoms: N_7  and  C_8 
REMARK    6  A    between atoms: C_8  and  C_9 
REMARK    7  A    between atoms: C_9  and  C_10 
ROOT
HETATM    1  O   LIG     1       0.883   0.387   1.966  1.00  0.00    -0.260 OA
HETATM    2  C   LIG     1       0.745  -0.353   0.956  1.00  0.00     0.281 C 
HETATM    3  N   LIG     1      -0.435  -0.241   0.128  1.00  0.00    -0.343 N 
ENDROOT
BRANCH   3   4
HETATM    4  C   LIG     1      -0.718  -1.228  -0.926  1.00  0.00     0.122 C 
HETATM    5  C   LIG     1      -1.214  -2.539  -0.322  1.00  0.00     0.026 C 
ENDBRANCH   3   4
BRANCH   3   6
HETATM    6  C   LIG     1      -1.345   0.900   0.315  1.00  0.00     0.126 C 
BRANCH   6   7
HETATM    7  C   LIG     1      -2.337   0.613   1.450  1.00  0.00     0.020 C 
BRANCH   7   8
HETATM    8  C   LIG     1      -3.187   1.839   1.817  1.00  0.00    -0.003 C 
HETATM    9  C   LIG     1      -4.199   2.203   0.732  1.00  0.00     0.005 C 
ENDBRANCH   7   8
ENDBRANCH   6   7
ENDBRANCH   3   6
BRANCH   2  10
HETATM   10  S   LIG     1       2.060  -1.520   0.575  1.00  0.00    -0.069 SA
BRANCH  10  11
HETATM   11  C   LIG     1       2.973  -0.329  -0.461  1.00  0.00     0.084 C 
BRANCH  11  12
HETATM   12  C   LIG     1       4.213  -1.000  -1.049  1.00  0.00     0.006 C 
HETATM   13  C   LIG     1       5.002  -0.031  -1.924  1.00  0.00     0.006 C 
ENDBRANCH  11  12
ENDBRANCH  10  11
ENDBRANCH   2  10
TORSDOF 7
