MODEL 1
REMARK VINA RESULT:      -6.0      0.000      0.000
REMARK  7 active torsions:
REMARK  status: ('A' for Active; 'I' for Inactive)
REMARK       I    between atoms: C_2  and  N_7 
REMARK    1  A    between atoms: C_2  and  S_3 
REMARK    2  A    between atoms: S_3  and  C_4 
REMARK    3  A    between atoms: C_4  and  C_5 
REMARK    4  A    between atoms: N_7  and  C_12 
REMARK    5  A    between atoms: N_7  and  C_8 
REMARK    6  A    between atoms: C_8  and  C_9 
REMARK    7  A    between atoms: C_9  and  C_10 
ROOT
HETATM    1  O   LIG     1      16.796  39.001  23.464  1.00  0.00    -0.260 OA
HETATM    2  C   LIG     1      17.121  37.855  23.054  1.00  0.00     0.281 C 
HETATM    3  N   LIG     1      17.607  37.675  21.705  1.00  0.00    -0.343 N 
ENDROOT
BRANCH   3   4
HETATM    4  C   LIG     1      17.792  36.330  21.138  1.00  0.00     0.122 C 
HETATM    5  C   LIG     1      16.469  35.775  20.616  1.00  0.00     0.026 C 
ENDBRANCH   3   4
BRANCH   3   6
HETATM    6  C   LIG     1      17.961  38.855  20.900  1.00  0.00     0.126 C 
BRANCH   6   7
HETATM    7  C   LIG     1      19.483  39.051  20.878  1.00  0.00     0.020 C 
BRANCH   7   8
HETATM    8  C   LIG     1      20.087  38.836  19.482  1.00  0.00    -0.003 C 
HETATM    9  C   LIG     1      19.044  38.908  18.369  1.00  0.00     0.005 C 
ENDBRANCH   7   8
ENDBRANCH   6   7
ENDBRANCH   3   6
BRANCH   2  10
HETATM   10  S   LIG     1      16.981  36.475  24.201  1.00  0.00    -0.069 SA
BRANCH  10  11
HETATM   11  C   LIG     1      17.606  37.440  25.617  1.00  0.00     0.084 C 
BRANCH  11  12
HETATM   12  C   LIG     1      18.493  36.556  26.492  1.00  0.00     0.006 C 
HETATM   13  C   LIG     1      18.186  35.078  26.274  1.00  0.00     0.006 C 
ENDBRANCH  11  12
ENDBRANCH  10  11
ENDBRANCH   2  10
TORSDOF 7
ENDMDL
MODEL 2
REMARK VINA RESULT:      -5.8      2.013      3.765
REMARK  7 active torsions:
REMARK  status: ('A' for Active; 'I' for Inactive)
REMARK       I    between atoms: C_2  and  N_7 
REMARK    1  A    between atoms: C_2  and  S_3 
REMARK    2  A    between atoms: S_3  and  C_4 
REMARK    3  A    between atoms: C_4  and  C_5 
REMARK    4  A    between atoms: N_7  and  C_12 
REMARK    5  A    between atoms: N_7  and  C_8 
REMARK    6  A    between atoms: C_8  and  C_9 
REMARK    7  A    between atoms: C_9  and  C_10 
ROOT
HETATM    1  O   LIG     1      15.030  37.760  23.476  1.00  0.00    -0.260 OA
HETATM    2  C   LIG     1      16.161  37.450  23.017  1.00  0.00     0.281 C 
HETATM    3  N   LIG     1      16.282  36.406  22.024  1.00  0.00    -0.343 N 
ENDROOT
BRANCH   3   4
HETATM    4  C   LIG     1      17.599  35.884  21.628  1.00  0.00     0.122 C 
HETATM    5  C   LIG     1      18.070  36.530  20.328  1.00  0.00     0.026 C 
ENDBRANCH   3   4
BRANCH   3   6
HETATM    6  C   LIG     1      15.071  35.886  21.369  1.00  0.00     0.126 C 
BRANCH   6   7
HETATM    7  C   LIG     1      15.103  34.353  21.324  1.00  0.00     0.020 C 
BRANCH   7   8
HETATM    8  C   LIG     1      15.427  33.809  19.924  1.00  0.00    -0.003 C 
HETATM    9  C   LIG     1      15.372  32.284  19.854  1.00  0.00     0.005 C 
ENDBRANCH   7   8
ENDBRANCH   6   7
ENDBRANCH   3   6
BRANCH   2  10
HETATM   10  S   LIG     1      17.596  38.356  23.615  1.00  0.00    -0.069 SA
BRANCH  10  11
HETATM   11  C   LIG     1      17.292  37.912  25.357  1.00  0.00     0.084 C 
BRANCH  11  12
HETATM   12  C   LIG     1      18.341  36.905  25.824  1.00  0.00     0.006 C 
HETATM   13  C   LIG     1      17.764  35.494  25.880  1.00  0.00     0.006 C 
ENDBRANCH  11  12
ENDBRANCH  10  11
ENDBRANCH   2  10
TORSDOF 7
ENDMDL
MODEL 3
REMARK VINA RESULT:      -5.8      2.260      5.465
REMARK  7 active torsions:
REMARK  status: ('A' for Active; 'I' for Inactive)
REMARK       I    between atoms: C_2  and  N_7 
REMARK    1  A    between atoms: C_2  and  S_3 
REMARK    2  A    between atoms: S_3  and  C_4 
REMARK    3  A    between atoms: C_4  and  C_5 
REMARK    4  A    between atoms: N_7  and  C_12 
REMARK    5  A    between atoms: N_7  and  C_8 
REMARK    6  A    between atoms: C_8  and  C_9 
REMARK    7  A    between atoms: C_9  and  C_10 
ROOT
HETATM    1  O   LIG     1      16.750  35.074  23.363  1.00  0.00    -0.260 OA
HETATM    2  C   LIG     1      16.924  36.109  22.666  1.00  0.00     0.281 C 
HETATM    3  N   LIG     1      16.877  37.416  23.281  1.00  0.00    -0.343 N 
ENDROOT
BRANCH   3   4
HETATM    4  C   LIG     1      16.867  38.639  22.463  1.00  0.00     0.122 C 
HETATM    5  C   LIG     1      18.290  39.113  22.179  1.00  0.00     0.026 C 
ENDBRANCH   3   4
BRANCH   3   6
HETATM    6  C   LIG     1      16.881  37.526  24.749  1.00  0.00     0.126 C 
BRANCH   6   7
HETATM    7  C   LIG     1      18.288  37.267  25.302  1.00  0.00     0.020 C 
BRANCH   7   8
HETATM    8  C   LIG     1      18.272  36.440  26.596  1.00  0.00    -0.003 C 
HETATM    9  C   LIG     1      18.380  34.937  26.340  1.00  0.00     0.005 C 
ENDBRANCH   7   8
ENDBRANCH   6   7
ENDBRANCH   3   6
BRANCH   2  10
HETATM   10  S   LIG     1      17.251  35.902  20.909  1.00  0.00    -0.069 SA
BRANCH  10  11
HETATM   11  C   LIG     1      15.611  35.181  20.572  1.00  0.00     0.084 C 
BRANCH  11  12
HETATM   12  C   LIG     1      15.717  33.658  20.519  1.00  0.00     0.006 C 
HETATM   13  C   LIG     1      15.310  33.124  19.149  1.00  0.00     0.006 C 
ENDBRANCH  11  12
ENDBRANCH  10  11
ENDBRANCH   2  10
TORSDOF 7
ENDMDL
MODEL 4
REMARK VINA RESULT:      -5.7      1.689      3.645
REMARK  7 active torsions:
REMARK  status: ('A' for Active; 'I' for Inactive)
REMARK       I    between atoms: C_2  and  N_7 
REMARK    1  A    between atoms: C_2  and  S_3 
REMARK    2  A    between atoms: S_3  and  C_4 
REMARK    3  A    between atoms: C_4  and  C_5 
REMARK    4  A    between atoms: N_7  and  C_12 
REMARK    5  A    between atoms: N_7  and  C_8 
REMARK    6  A    between atoms: C_8  and  C_9 
REMARK    7  A    between atoms: C_9  and  C_10 
ROOT
HETATM    1  O   LIG     1      16.985  35.241  23.758  1.00  0.00    -0.260 OA
HETATM    2  C   LIG     1      17.052  36.461  23.454  1.00  0.00     0.281 C 
HETATM    3  N   LIG     1      17.161  36.860  22.068  1.00  0.00    -0.343 N 
ENDROOT
BRANCH   3   4
HETATM    4  C   LIG     1      17.451  38.256  21.702  1.00  0.00     0.122 C 
HETATM    5  C   LIG     1      18.615  38.328  20.717  1.00  0.00     0.026 C 
ENDBRANCH   3   4
BRANCH   3   6
HETATM    6  C   LIG     1      16.939  35.865  21.008  1.00  0.00     0.126 C 
BRANCH   6   7
HETATM    7  C   LIG     1      15.438  35.594  20.835  1.00  0.00     0.020 C 
BRANCH   7   8
HETATM    8  C   LIG     1      15.058  34.141  21.160  1.00  0.00    -0.003 C 
HETATM    9  C   LIG     1      15.531  33.153  20.095  1.00  0.00     0.005 C 
ENDBRANCH   7   8
ENDBRANCH   6   7
ENDBRANCH   3   6
BRANCH   2  10
HETATM   10  S   LIG     1      16.985  37.671  24.784  1.00  0.00    -0.069 SA
BRANCH  10  11
HETATM   11  C   LIG     1      18.547  37.102  25.534  1.00  0.00     0.084 C 
BRANCH  11  12
HETATM   12  C   LIG     1      18.248  36.253  26.768  1.00  0.00     0.006 C 
HETATM   13  C   LIG     1      18.478  34.771  26.487  1.00  0.00     0.006 C 
ENDBRANCH  11  12
ENDBRANCH  10  11
ENDBRANCH   2  10
TORSDOF 7
ENDMDL
MODEL 5
REMARK VINA RESULT:      -5.6      1.436      2.183
REMARK  7 active torsions:
REMARK  status: ('A' for Active; 'I' for Inactive)
REMARK       I    between atoms: C_2  and  N_7 
REMARK    1  A    between atoms: C_2  and  S_3 
REMARK    2  A    between atoms: S_3  and  C_4 
REMARK    3  A    between atoms: C_4  and  C_5 
REMARK    4  A    between atoms: N_7  and  C_12 
REMARK    5  A    between atoms: N_7  and  C_8 
REMARK    6  A    between atoms: C_8  and  C_9 
REMARK    7  A    between atoms: C_9  and  C_10 
ROOT
HETATM    1  O   LIG     1      17.178  35.341  23.190  1.00  0.00    -0.260 OA
HETATM    2  C   LIG     1      17.113  36.599  23.158  1.00  0.00     0.281 C 
HETATM    3  N   LIG     1      17.318  37.307  21.914  1.00  0.00    -0.343 N 
ENDROOT
BRANCH   3   4
HETATM    4  C   LIG     1      17.455  38.772  21.890  1.00  0.00     0.122 C 
HETATM    5  C   LIG     1      18.860  39.192  22.315  1.00  0.00     0.026 C 
ENDBRANCH   3   4
BRANCH   3   6
HETATM    6  C   LIG     1      17.348  36.555  20.650  1.00  0.00     0.126 C 
BRANCH   6   7
HETATM    7  C   LIG     1      18.725  36.681  19.985  1.00  0.00     0.020 C 
BRANCH   7   8
HETATM    8  C   LIG     1      18.697  37.566  18.729  1.00  0.00    -0.003 C 
HETATM    9  C   LIG     1      19.583  38.804  18.859  1.00  0.00     0.005 C 
ENDBRANCH   7   8
ENDBRANCH   6   7
ENDBRANCH   3   6
BRANCH   2  10
HETATM   10  S   LIG     1      16.740  37.466  24.690  1.00  0.00    -0.069 SA
BRANCH  10  11
HETATM   11  C   LIG     1      18.395  37.170  25.395  1.00  0.00     0.084 C 
BRANCH  11  12
HETATM   12  C   LIG     1      18.271  36.344  26.674  1.00  0.00     0.006 C 
HETATM   13  C   LIG     1      18.278  34.849  26.368  1.00  0.00     0.006 C 
ENDBRANCH  11  12
ENDBRANCH  10  11
ENDBRANCH   2  10
TORSDOF 7
ENDMDL
MODEL 6
REMARK VINA RESULT:      -5.4      2.544      5.970
REMARK  7 active torsions:
REMARK  status: ('A' for Active; 'I' for Inactive)
REMARK       I    between atoms: C_2  and  N_7 
REMARK    1  A    between atoms: C_2  and  S_3 
REMARK    2  A    between atoms: S_3  and  C_4 
REMARK    3  A    between atoms: C_4  and  C_5 
REMARK    4  A    between atoms: N_7  and  C_12 
REMARK    5  A    between atoms: N_7  and  C_8 
REMARK    6  A    between atoms: C_8  and  C_9 
REMARK    7  A    between atoms: C_9  and  C_10 
ROOT
HETATM    1  O   LIG     1      18.605  36.477  19.829  1.00  0.00    -0.260 OA
HETATM    2  C   LIG     1      18.170  37.307  20.672  1.00  0.00     0.281 C 
HETATM    3  N   LIG     1      17.266  36.878  21.715  1.00  0.00    -0.343 N 
ENDROOT
BRANCH   3   4
HETATM    4  C   LIG     1      16.584  37.857  22.577  1.00  0.00     0.122 C 
HETATM    5  C   LIG     1      16.958  37.644  24.041  1.00  0.00     0.026 C 
ENDBRANCH   3   4
BRANCH   3   6
HETATM    6  C   LIG     1      17.057  35.440  21.946  1.00  0.00     0.126 C 
BRANCH   6   7
HETATM    7  C   LIG     1      15.660  35.019  21.472  1.00  0.00     0.020 C 
BRANCH   7   8
HETATM    8  C   LIG     1      15.672  34.413  20.060  1.00  0.00    -0.003 C 
HETATM    9  C   LIG     1      15.401  32.909  20.061  1.00  0.00     0.005 C 
ENDBRANCH   7   8
ENDBRANCH   6   7
ENDBRANCH   3   6
BRANCH   2  10
HETATM   10  S   LIG     1      18.725  39.013  20.544  1.00  0.00    -0.069 SA
BRANCH  10  11
HETATM   11  C   LIG     1      19.235  38.837  18.802  1.00  0.00     0.084 C 
BRANCH  11  12
HETATM   12  C   LIG     1      18.379  39.744  17.919  1.00  0.00     0.006 C 
HETATM   13  C   LIG     1      18.772  39.615  16.451  1.00  0.00     0.006 C 
ENDBRANCH  11  12
ENDBRANCH  10  11
ENDBRANCH   2  10
TORSDOF 7
ENDMDL
MODEL 7
REMARK VINA RESULT:      -5.3      1.937      5.353
REMARK  7 active torsions:
REMARK  status: ('A' for Active; 'I' for Inactive)
REMARK       I    between atoms: C_2  and  N_7 
REMARK    1  A    between atoms: C_2  and  S_3 
REMARK    2  A    between atoms: S_3  and  C_4 
REMARK    3  A    between atoms: C_4  and  C_5 
REMARK    4  A    between atoms: N_7  and  C_12 
REMARK    5  A    between atoms: N_7  and  C_8 
REMARK    6  A    between atoms: C_8  and  C_9 
REMARK    7  A    between atoms: C_9  and  C_10 
ROOT
HETATM    1  O   LIG     1      17.038  34.914  23.122  1.00  0.00    -0.260 OA
HETATM    2  C   LIG     1      16.786  35.996  22.527  1.00  0.00     0.281 C 
HETATM    3  N   LIG     1      16.500  37.193  23.286  1.00  0.00    -0.343 N 
ENDROOT
BRANCH   3   4
HETATM    4  C   LIG     1      16.000  38.409  22.624  1.00  0.00     0.122 C 
HETATM    5  C   LIG     1      17.143  39.378  22.335  1.00  0.00     0.026 C 
ENDBRANCH   3   4
BRANCH   3   6
HETATM    6  C   LIG     1      16.753  37.210  24.735  1.00  0.00     0.126 C 
BRANCH   6   7
HETATM    7  C   LIG     1      18.215  37.579  25.019  1.00  0.00     0.020 C 
BRANCH   7   8
HETATM    8  C   LIG     1      18.815  36.773  26.182  1.00  0.00    -0.003 C 
HETATM    9  C   LIG     1      18.107  35.437  26.401  1.00  0.00     0.005 C 
ENDBRANCH   7   8
ENDBRANCH   6   7
ENDBRANCH   3   6
BRANCH   2  10
HETATM   10  S   LIG     1      16.815  36.001  20.729  1.00  0.00    -0.069 SA
BRANCH  10  11
HETATM   11  C   LIG     1      18.534  36.604  20.644  1.00  0.00     0.084 C 
BRANCH  11  12
HETATM   12  C   LIG     1      18.830  37.127  19.240  1.00  0.00     0.006 C 
HETATM   13  C   LIG     1      19.557  38.467  19.292  1.00  0.00     0.006 C 
ENDBRANCH  11  12
ENDBRANCH  10  11
ENDBRANCH   2  10
TORSDOF 7
ENDMDL
MODEL 8
REMARK VINA RESULT:      -5.2      2.130      4.282
REMARK  7 active torsions:
REMARK  status: ('A' for Active; 'I' for Inactive)
REMARK       I    between atoms: C_2  and  N_7 
REMARK    1  A    between atoms: C_2  and  S_3 
REMARK    2  A    between atoms: S_3  and  C_4 
REMARK    3  A    between atoms: C_4  and  C_5 
REMARK    4  A    between atoms: N_7  and  C_12 
REMARK    5  A    between atoms: N_7  and  C_8 
REMARK    6  A    between atoms: C_8  and  C_9 
REMARK    7  A    between atoms: C_9  and  C_10 
ROOT
HETATM    1  O   LIG     1      17.966  36.061  20.470  1.00  0.00    -0.260 OA
HETATM    2  C   LIG     1      17.138  36.581  21.264  1.00  0.00     0.281 C 
HETATM    3  N   LIG     1      17.483  37.783  21.991  1.00  0.00    -0.343 N 
ENDROOT
BRANCH   3   4
HETATM    4  C   LIG     1      16.623  38.287  23.073  1.00  0.00     0.122 C 
HETATM    5  C   LIG     1      17.205  37.934  24.439  1.00  0.00     0.026 C 
ENDBRANCH   3   4
BRANCH   3   6
HETATM    6  C   LIG     1      18.691  38.534  21.616  1.00  0.00     0.126 C 
BRANCH   6   7
HETATM    7  C   LIG     1      18.392  39.477  20.443  1.00  0.00     0.020 C 
BRANCH   7   8
HETATM    8  C   LIG     1      19.147  39.088  19.163  1.00  0.00    -0.003 C 
HETATM    9  C   LIG     1      20.551  38.554  19.445  1.00  0.00     0.005 C 
ENDBRANCH   7   8
ENDBRANCH   6   7
ENDBRANCH   3   6
BRANCH   2  10
HETATM   10  S   LIG     1      15.528  35.799  21.441  1.00  0.00    -0.069 SA
BRANCH  10  11
HETATM   11  C   LIG     1      15.742  34.761  19.957  1.00  0.00     0.084 C 
BRANCH  11  12
HETATM   12  C   LIG     1      15.465  33.299  20.305  1.00  0.00     0.006 C 
HETATM   13  C   LIG     1      15.308  32.453  19.046  1.00  0.00     0.006 C 
ENDBRANCH  11  12
ENDBRANCH  10  11
ENDBRANCH   2  10
TORSDOF 7
ENDMDL
MODEL 9
REMARK VINA RESULT:      -5.2      1.988      4.848
REMARK  7 active torsions:
REMARK  status: ('A' for Active; 'I' for Inactive)
REMARK       I    between atoms: C_2  and  N_7 
REMARK    1  A    between atoms: C_2  and  S_3 
REMARK    2  A    between atoms: S_3  and  C_4 
REMARK    3  A    between atoms: C_4  and  C_5 
REMARK    4  A    between atoms: N_7  and  C_12 
REMARK    5  A    between atoms: N_7  and  C_8 
REMARK    6  A    between atoms: C_8  and  C_9 
REMARK    7  A    between atoms: C_9  and  C_10 
ROOT
HETATM    1  O   LIG     1      15.324  38.441  22.623  1.00  0.00    -0.260 OA
HETATM    2  C   LIG     1      16.286  37.648  22.806  1.00  0.00     0.281 C 
HETATM    3  N   LIG     1      16.181  36.268  22.388  1.00  0.00    -0.343 N 
ENDROOT
BRANCH   3   4
HETATM    4  C   LIG     1      17.199  35.279  22.776  1.00  0.00     0.122 C 
HETATM    5  C   LIG     1      17.152  35.014  24.278  1.00  0.00     0.026 C 
ENDBRANCH   3   4
BRANCH   3   6
HETATM    6  C   LIG     1      15.062  35.856  21.527  1.00  0.00     0.126 C 
BRANCH   6   7
HETATM    7  C   LIG     1      15.027  34.328  21.390  1.00  0.00     0.020 C 
BRANCH   7   8
HETATM    8  C   LIG     1      15.565  33.842  20.036  1.00  0.00    -0.003 C 
HETATM    9  C   LIG     1      15.306  32.356  19.796  1.00  0.00     0.005 C 
ENDBRANCH   7   8
ENDBRANCH   6   7
ENDBRANCH   3   6
BRANCH   2  10
HETATM   10  S   LIG     1      17.780  38.293  23.574  1.00  0.00    -0.069 SA
BRANCH  10  11
HETATM   11  C   LIG     1      18.226  39.305  22.124  1.00  0.00     0.084 C 
BRANCH  11  12
HETATM   12  C   LIG     1      18.559  38.397  20.942  1.00  0.00     0.006 C 
HETATM   13  C   LIG     1      19.319  39.156  19.860  1.00  0.00     0.006 C 
ENDBRANCH  11  12
ENDBRANCH  10  11
ENDBRANCH   2  10
TORSDOF 7
ENDMDL
MODEL 10
REMARK VINA RESULT:      -5.2      2.042      2.821
REMARK  7 active torsions:
REMARK  status: ('A' for Active; 'I' for Inactive)
REMARK       I    between atoms: C_2  and  N_7 
REMARK    1  A    between atoms: C_2  and  S_3 
REMARK    2  A    between atoms: S_3  and  C_4 
REMARK    3  A    between atoms: C_4  and  C_5 
REMARK    4  A    between atoms: N_7  and  C_12 
REMARK    5  A    between atoms: N_7  and  C_8 
REMARK    6  A    between atoms: C_8  and  C_9 
REMARK    7  A    between atoms: C_9  and  C_10 
ROOT
HETATM    1  O   LIG     1      17.978  35.985  20.051  1.00  0.00    -0.260 OA
HETATM    2  C   LIG     1      17.518  36.795  20.900  1.00  0.00     0.281 C 
HETATM    3  N   LIG     1      18.168  38.068  21.118  1.00  0.00    -0.343 N 
ENDROOT
BRANCH   3   4
HETATM    4  C   LIG     1      17.779  38.935  22.241  1.00  0.00     0.122 C 
HETATM    5  C   LIG     1      18.888  38.996  23.288  1.00  0.00     0.026 C 
ENDBRANCH   3   4
BRANCH   3   6
HETATM    6  C   LIG     1      19.206  38.521  20.178  1.00  0.00     0.126 C 
BRANCH   6   7
HETATM    7  C   LIG     1      18.597  39.440  19.111  1.00  0.00     0.020 C 
BRANCH   7   8
HETATM    8  C   LIG     1      18.938  38.994  17.681  1.00  0.00    -0.003 C 
HETATM    9  C   LIG     1      18.434  39.972  16.621  1.00  0.00     0.005 C 
ENDBRANCH   7   8
ENDBRANCH   6   7
ENDBRANCH   3   6
BRANCH   2  10
HETATM   10  S   LIG     1      16.032  36.326  21.799  1.00  0.00    -0.069 SA
BRANCH  10  11
HETATM   11  C   LIG     1      16.931  35.214  22.931  1.00  0.00     0.084 C 
BRANCH  11  12
HETATM   12  C   LIG     1      17.147  35.908  24.275  1.00  0.00     0.006 C 
HETATM   13  C   LIG     1      17.447  34.896  25.376  1.00  0.00     0.006 C 
ENDBRANCH  11  12
ENDBRANCH  10  11
ENDBRANCH   2  10
TORSDOF 7
ENDMDL
MODEL 11
REMARK VINA RESULT:      -5.1      2.229      6.095
REMARK  7 active torsions:
REMARK  status: ('A' for Active; 'I' for Inactive)
REMARK       I    between atoms: C_2  and  N_7 
REMARK    1  A    between atoms: C_2  and  S_3 
REMARK    2  A    between atoms: S_3  and  C_4 
REMARK    3  A    between atoms: C_4  and  C_5 
REMARK    4  A    between atoms: N_7  and  C_12 
REMARK    5  A    between atoms: N_7  and  C_8 
REMARK    6  A    between atoms: C_8  and  C_9 
REMARK    7  A    between atoms: C_9  and  C_10 
ROOT
HETATM    1  O   LIG     1      18.079  36.339  20.106  1.00  0.00    -0.260 OA
HETATM    2  C   LIG     1      17.943  37.307  20.900  1.00  0.00     0.281 C 
HETATM    3  N   LIG     1      17.015  37.216  22.005  1.00  0.00    -0.343 N 
ENDROOT
BRANCH   3   4
HETATM    4  C   LIG     1      16.684  38.398  22.817  1.00  0.00     0.122 C 
HETATM    5  C   LIG     1      17.508  38.421  24.101  1.00  0.00     0.026 C 
ENDBRANCH   3   4
BRANCH   3   6
HETATM    6  C   LIG     1      16.423  35.913  22.347  1.00  0.00     0.126 C 
BRANCH   6   7
HETATM    7  C   LIG     1      17.376  35.111  23.244  1.00  0.00     0.020 C 
BRANCH   7   8
HETATM    8  C   LIG     1      16.844  34.948  24.676  1.00  0.00    -0.003 C 
HETATM    9  C   LIG     1      17.952  34.994  25.727  1.00  0.00     0.005 C 
ENDBRANCH   7   8
ENDBRANCH   6   7
ENDBRANCH   3   6
BRANCH   2  10
HETATM   10  S   LIG     1      18.948  38.774  20.628  1.00  0.00    -0.069 SA
BRANCH  10  11
HETATM   11  C   LIG     1      19.100  38.478  18.836  1.00  0.00     0.084 C 
BRANCH  11  12
HETATM   12  C   LIG     1      18.465  39.634  18.065  1.00  0.00     0.006 C 
HETATM   13  C   LIG     1      18.835  39.581  16.586  1.00  0.00     0.006 C 
ENDBRANCH  11  12
ENDBRANCH  10  11
ENDBRANCH   2  10
TORSDOF 7
ENDMDL
MODEL 12
REMARK VINA RESULT:      -5.0      5.578      7.585
REMARK  7 active torsions:
REMARK  status: ('A' for Active; 'I' for Inactive)
REMARK       I    between atoms: C_2  and  N_7 
REMARK    1  A    between atoms: C_2  and  S_3 
REMARK    2  A    between atoms: S_3  and  C_4 
REMARK    3  A    between atoms: C_4  and  C_5 
REMARK    4  A    between atoms: N_7  and  C_12 
REMARK    5  A    between atoms: N_7  and  C_8 
REMARK    6  A    between atoms: C_8  and  C_9 
REMARK    7  A    between atoms: C_9  and  C_10 
ROOT
HETATM    1  O   LIG     1      15.285  32.299  20.143  1.00  0.00    -0.260 OA
HETATM    2  C   LIG     1      15.265  33.165  19.229  1.00  0.00     0.281 C 
HETATM    3  N   LIG     1      14.842  32.804  17.894  1.00  0.00    -0.343 N 
ENDROOT
BRANCH   3   4
HETATM    4  C   LIG     1      15.010  33.736  16.768  1.00  0.00     0.122 C 
HETATM    5  C   LIG     1      16.150  33.287  15.857  1.00  0.00     0.026 C 
ENDBRANCH   3   4
BRANCH   3   6
HETATM    6  C   LIG     1      14.198  31.501  17.666  1.00  0.00     0.126 C 
BRANCH   6   7
HETATM    7  C   LIG     1      13.021  31.649  16.693  1.00  0.00     0.020 C 
BRANCH   7   8
HETATM    8  C   LIG     1      12.935  30.490  15.688  1.00  0.00    -0.003 C 
HETATM    9  C   LIG     1      14.223  30.303  14.888  1.00  0.00     0.005 C 
ENDBRANCH   7   8
ENDBRANCH   6   7
ENDBRANCH   3   6
BRANCH   2  10
HETATM   10  S   LIG     1      15.754  34.846  19.643  1.00  0.00    -0.069 SA
BRANCH  10  11
HETATM   11  C   LIG     1      15.573  34.577  21.438  1.00  0.00     0.084 C 
BRANCH  11  12
HETATM   12  C   LIG     1      16.762  35.192  22.175  1.00  0.00     0.006 C 
HETATM   13  C   LIG     1      17.226  36.477  21.496  1.00  0.00     0.006 C 
ENDBRANCH  11  12
ENDBRANCH  10  11
ENDBRANCH   2  10
TORSDOF 7
ENDMDL
MODEL 13
REMARK VINA RESULT:      -5.0      3.180      5.285
REMARK  7 active torsions:
REMARK  status: ('A' for Active; 'I' for Inactive)
REMARK       I    between atoms: C_2  and  N_7 
REMARK    1  A    between atoms: C_2  and  S_3 
REMARK    2  A    between atoms: S_3  and  C_4 
REMARK    3  A    between atoms: C_4  and  C_5 
REMARK    4  A    between atoms: N_7  and  C_12 
REMARK    5  A    between atoms: N_7  and  C_8 
REMARK    6  A    between atoms: C_8  and  C_9 
REMARK    7  A    between atoms: C_9  and  C_10 
ROOT
HETATM    1  O   LIG     1      16.094  35.202  19.197  1.00  0.00    -0.260 OA
HETATM    2  C   LIG     1      16.049  34.937  20.428  1.00  0.00     0.281 C 
HETATM    3  N   LIG     1      16.824  35.716  21.368  1.00  0.00    -0.343 N 
ENDROOT
BRANCH   3   4
HETATM    4  C   LIG     1      16.953  35.298  22.773  1.00  0.00     0.122 C 
HETATM    5  C   LIG     1      17.057  36.512  23.692  1.00  0.00     0.026 C 
ENDBRANCH   3   4
BRANCH   3   6
HETATM    6  C   LIG     1      17.459  36.966  20.923  1.00  0.00     0.126 C 
BRANCH   6   7
HETATM    7  C   LIG     1      18.713  36.663  20.091  1.00  0.00     0.020 C 
BRANCH   7   8
HETATM    8  C   LIG     1      19.073  37.803  19.126  1.00  0.00    -0.003 C 
HETATM    9  C   LIG     1      20.018  38.829  19.750  1.00  0.00     0.005 C 
ENDBRANCH   7   8
ENDBRANCH   6   7
ENDBRANCH   3   6
BRANCH   2  10
HETATM   10  S   LIG     1      14.984  33.591  20.966  1.00  0.00    -0.069 SA
BRANCH  10  11
HETATM   11  C   LIG     1      15.693  32.403  19.777  1.00  0.00     0.084 C 
BRANCH  11  12
HETATM   12  C   LIG     1      14.592  31.867  18.864  1.00  0.00     0.006 C 
HETATM   13  C   LIG     1      14.744  32.405  17.444  1.00  0.00     0.006 C 
ENDBRANCH  11  12
ENDBRANCH  10  11
ENDBRANCH   2  10
TORSDOF 7
ENDMDL
MODEL 14
REMARK VINA RESULT:      -4.8      5.661      7.304
REMARK  7 active torsions:
REMARK  status: ('A' for Active; 'I' for Inactive)
REMARK       I    between atoms: C_2  and  N_7 
REMARK    1  A    between atoms: C_2  and  S_3 
REMARK    2  A    between atoms: S_3  and  C_4 
REMARK    3  A    between atoms: C_4  and  C_5 
REMARK    4  A    between atoms: N_7  and  C_12 
REMARK    5  A    between atoms: N_7  and  C_8 
REMARK    6  A    between atoms: C_8  and  C_9 
REMARK    7  A    between atoms: C_9  and  C_10 
ROOT
HETATM    1  O   LIG     1      15.852  34.845  18.240  1.00  0.00    -0.260 OA
HETATM    2  C   LIG     1      15.390  33.699  18.484  1.00  0.00     0.281 C 
HETATM    3  N   LIG     1      14.928  32.855  17.405  1.00  0.00    -0.343 N 
ENDROOT
BRANCH   3   4
HETATM    4  C   LIG     1      14.196  31.608  17.678  1.00  0.00     0.122 C 
HETATM    5  C   LIG     1      12.988  31.475  16.753  1.00  0.00     0.026 C 
ENDBRANCH   3   4
BRANCH   3   6
HETATM    6  C   LIG     1      15.230  33.228  16.014  1.00  0.00     0.126 C 
BRANCH   6   7
HETATM    7  C   LIG     1      16.303  32.298  15.432  1.00  0.00     0.020 C 
BRANCH   7   8
HETATM    8  C   LIG     1      15.997  31.873  13.987  1.00  0.00    -0.003 C 
HETATM    9  C   LIG     1      15.250  30.543  13.908  1.00  0.00     0.005 C 
ENDBRANCH   7   8
ENDBRANCH   6   7
ENDBRANCH   3   6
BRANCH   2  10
HETATM   10  S   LIG     1      15.348  33.151  20.197  1.00  0.00    -0.069 SA
BRANCH  10  11
HETATM   11  C   LIG     1      15.427  34.847  20.862  1.00  0.00     0.084 C 
BRANCH  11  12
HETATM   12  C   LIG     1      16.729  35.038  21.636  1.00  0.00     0.006 C 
HETATM   13  C   LIG     1      17.152  36.504  21.652  1.00  0.00     0.006 C 
ENDBRANCH  11  12
ENDBRANCH  10  11
ENDBRANCH   2  10
TORSDOF 7
ENDMDL
MODEL 15
REMARK VINA RESULT:      -4.8      8.466     10.385
REMARK  7 active torsions:
REMARK  status: ('A' for Active; 'I' for Inactive)
REMARK       I    between atoms: C_2  and  N_7 
REMARK    1  A    between atoms: C_2  and  S_3 
REMARK    2  A    between atoms: S_3  and  C_4 
REMARK    3  A    between atoms: C_4  and  C_5 
REMARK    4  A    between atoms: N_7  and  C_12 
REMARK    5  A    between atoms: N_7  and  C_8 
REMARK    6  A    between atoms: C_8  and  C_9 
REMARK    7  A    between atoms: C_9  and  C_10 
ROOT
HETATM    1  O   LIG     1      13.338  30.454  16.656  1.00  0.00    -0.260 OA
HETATM    2  C   LIG     1      14.235  31.268  16.310  1.00  0.00     0.281 C 
HETATM    3  N   LIG     1      14.989  31.047  15.096  1.00  0.00    -0.343 N 
ENDROOT
BRANCH   3   4
HETATM    4  C   LIG     1      16.174  31.860  14.781  1.00  0.00     0.122 C 
HETATM    5  C   LIG     1      16.176  32.269  13.310  1.00  0.00     0.026 C 
ENDBRANCH   3   4
BRANCH   3   6
HETATM    6  C   LIG     1      14.539  30.022  14.141  1.00  0.00     0.126 C 
BRANCH   6   7
HETATM    7  C   LIG     1      15.517  28.840  14.125  1.00  0.00     0.020 C 
BRANCH   7   8
HETATM    8  C   LIG     1      14.933  27.598  13.435  1.00  0.00    -0.003 C 
HETATM    9  C   LIG     1      15.808  27.091  12.290  1.00  0.00     0.005 C 
ENDBRANCH   7   8
ENDBRANCH   6   7
ENDBRANCH   3   6
BRANCH   2  10
HETATM   10  S   LIG     1      14.525  32.704  17.355  1.00  0.00    -0.069 SA
BRANCH  10  11
HETATM   11  C   LIG     1      14.492  31.732  18.897  1.00  0.00     0.084 C 
BRANCH  11  12
HETATM   12  C   LIG     1      15.686  32.110  19.772  1.00  0.00     0.006 C 
HETATM   13  C   LIG     1      15.583  33.555  20.250  1.00  0.00     0.006 C 
ENDBRANCH  11  12
ENDBRANCH  10  11
ENDBRANCH   2  10
TORSDOF 7
ENDMDL
MODEL 16
REMARK VINA RESULT:      -4.3      4.971      6.953
REMARK  7 active torsions:
REMARK  status: ('A' for Active; 'I' for Inactive)
REMARK       I    between atoms: C_2  and  N_7 
REMARK    1  A    between atoms: C_2  and  S_3 
REMARK    2  A    between atoms: S_3  and  C_4 
REMARK    3  A    between atoms: C_4  and  C_5 
REMARK    4  A    between atoms: N_7  and  C_12 
REMARK    5  A    between atoms: N_7  and  C_8 
REMARK    6  A    between atoms: C_8  and  C_9 
REMARK    7  A    between atoms: C_9  and  C_10 
ROOT
HETATM    1  O   LIG     1      15.690  35.079  18.521  1.00  0.00    -0.260 OA
HETATM    2  C   LIG     1      15.557  34.117  19.324  1.00  0.00     0.281 C 
HETATM    3  N   LIG     1      15.074  32.838  18.853  1.00  0.00    -0.343 N 
ENDROOT
BRANCH   3   4
HETATM    4  C   LIG     1      14.712  31.770  19.798  1.00  0.00     0.122 C 
HETATM    5  C   LIG     1      15.941  30.953  20.190  1.00  0.00     0.026 C 
ENDBRANCH   3   4
BRANCH   3   6
HETATM    6  C   LIG     1      14.984  32.587  17.406  1.00  0.00     0.126 C 
BRANCH   6   7
HETATM    7  C   LIG     1      13.555  32.178  17.022  1.00  0.00     0.020 C 
BRANCH   7   8
HETATM    8  C   LIG     1      13.495  30.798  16.349  1.00  0.00    -0.003 C 
HETATM    9  C   LIG     1      14.434  30.684  15.150  1.00  0.00     0.005 C 
ENDBRANCH   7   8
ENDBRANCH   6   7
ENDBRANCH   3   6
BRANCH   2  10
HETATM   10  S   LIG     1      16.003  34.383  21.046  1.00  0.00    -0.069 SA
BRANCH  10  11
HETATM   11  C   LIG     1      14.892  35.817  21.232  1.00  0.00     0.084 C 
BRANCH  11  12
HETATM   12  C   LIG     1      15.572  36.891  22.079  1.00  0.00     0.006 C 
HETATM   13  C   LIG     1      16.839  36.354  22.737  1.00  0.00     0.006 C 
ENDBRANCH  11  12
ENDBRANCH  10  11
ENDBRANCH   2  10
TORSDOF 7
ENDMDL
MODEL 17
REMARK VINA RESULT:      -4.1      2.506      4.771
REMARK  7 active torsions:
REMARK  status: ('A' for Active; 'I' for Inactive)
REMARK       I    between atoms: C_2  and  N_7 
REMARK    1  A    between atoms: C_2  and  S_3 
REMARK    2  A    between atoms: S_3  and  C_4 
REMARK    3  A    between atoms: C_4  and  C_5 
REMARK    4  A    between atoms: N_7  and  C_12 
REMARK    5  A    between atoms: N_7  and  C_8 
REMARK    6  A    between atoms: C_8  and  C_9 
REMARK    7  A    between atoms: C_9  and  C_10 
ROOT
HETATM    1  O   LIG     1      16.749  36.336  23.657  1.00  0.00    -0.260 OA
HETATM    2  C   LIG     1      16.851  36.839  22.507  1.00  0.00     0.281 C 
HETATM    3  N   LIG     1      17.012  35.986  21.351  1.00  0.00    -0.343 N 
ENDROOT
BRANCH   3   4
HETATM    4  C   LIG     1      17.342  36.550  20.033  1.00  0.00     0.122 C 
HETATM    5  C   LIG     1      18.845  36.483  19.775  1.00  0.00     0.026 C 
ENDBRANCH   3   4
BRANCH   3   6
HETATM    6  C   LIG     1      16.802  34.536  21.487  1.00  0.00     0.126 C 
BRANCH   6   7
HETATM    7  C   LIG     1      15.396  34.151  21.008  1.00  0.00     0.020 C 
BRANCH   7   8
HETATM    8  C   LIG     1      15.414  33.383  19.678  1.00  0.00    -0.003 C 
HETATM    9  C   LIG     1      15.468  31.868  19.871  1.00  0.00     0.005 C 
ENDBRANCH   7   8
ENDBRANCH   6   7
ENDBRANCH   3   6
BRANCH   2  10
HETATM   10  S   LIG     1      16.767  38.630  22.356  1.00  0.00    -0.069 SA
BRANCH  10  11
HETATM   11  C   LIG     1      18.423  38.883  23.078  1.00  0.00     0.084 C 
BRANCH  11  12
HETATM   12  C   LIG     1      19.424  39.212  21.972  1.00  0.00     0.006 C 
HETATM   13  C   LIG     1      18.718  39.748  20.730  1.00  0.00     0.006 C 
ENDBRANCH  11  12
ENDBRANCH  10  11
ENDBRANCH   2  10
TORSDOF 7
ENDMDL
MODEL 18
REMARK VINA RESULT:      -3.7      6.951      8.472
REMARK  7 active torsions:
REMARK  status: ('A' for Active; 'I' for Inactive)
REMARK       I    between atoms: C_2  and  N_7 
REMARK    1  A    between atoms: C_2  and  S_3 
REMARK    2  A    between atoms: S_3  and  C_4 
REMARK    3  A    between atoms: C_4  and  C_5 
REMARK    4  A    between atoms: N_7  and  C_12 
REMARK    5  A    between atoms: N_7  and  C_8 
REMARK    6  A    between atoms: C_8  and  C_9 
REMARK    7  A    between atoms: C_9  and  C_10 
ROOT
HETATM    1  O   LIG     1      15.147  33.802  16.241  1.00  0.00    -0.260 OA
HETATM    2  C   LIG     1      14.882  32.572  16.280  1.00  0.00     0.281 C 
HETATM    3  N   LIG     1      15.183  31.726  15.147  1.00  0.00    -0.343 N 
ENDROOT
BRANCH   3   4
HETATM    4  C   LIG     1      14.695  30.339  15.085  1.00  0.00     0.122 C 
HETATM    5  C   LIG     1      15.109  29.677  13.774  1.00  0.00     0.026 C 
ENDBRANCH   3   4
BRANCH   3   6
HETATM    6  C   LIG     1      16.023  32.248  14.057  1.00  0.00     0.126 C 
BRANCH   6   7
HETATM    7  C   LIG     1      17.415  32.617  14.586  1.00  0.00     0.020 C 
BRANCH   7   8
HETATM    8  C   LIG     1      18.040  33.800  13.830  1.00  0.00    -0.003 C 
HETATM    9  C   LIG     1      17.617  35.154  14.396  1.00  0.00     0.005 C 
ENDBRANCH   7   8
ENDBRANCH   6   7
ENDBRANCH   3   6
BRANCH   2  10
HETATM   10  S   LIG     1      14.148  31.911  17.784  1.00  0.00    -0.069 SA
BRANCH  10  11
HETATM   11  C   LIG     1      15.514  32.493  18.843  1.00  0.00     0.084 C 
BRANCH  11  12
HETATM   12  C   LIG     1      14.966  32.920  20.204  1.00  0.00     0.006 C 
HETATM   13  C   LIG     1      15.742  34.110  20.762  1.00  0.00     0.006 C 
ENDBRANCH  11  12
ENDBRANCH  10  11
ENDBRANCH   2  10
TORSDOF 7
ENDMDL
MODEL 19
REMARK VINA RESULT:      -3.4     15.950     16.789
REMARK  7 active torsions:
REMARK  status: ('A' for Active; 'I' for Inactive)
REMARK       I    between atoms: C_2  and  N_7 
REMARK    1  A    between atoms: C_2  and  S_3 
REMARK    2  A    between atoms: S_3  and  C_4 
REMARK    3  A    between atoms: C_4  and  C_5 
REMARK    4  A    between atoms: N_7  and  C_12 
REMARK    5  A    between atoms: N_7  and  C_8 
REMARK    6  A    between atoms: C_8  and  C_9 
REMARK    7  A    between atoms: C_9  and  C_10 
ROOT
HETATM    1  O   LIG     1      26.498  22.838  21.298  1.00  0.00    -0.260 OA
HETATM    2  C   LIG     1      25.900  22.016  20.553  1.00  0.00     0.281 C 
HETATM    3  N   LIG     1      25.892  22.206  19.120  1.00  0.00    -0.343 N 
ENDROOT
BRANCH   3   4
HETATM    4  C   LIG     1      25.033  21.386  18.252  1.00  0.00     0.122 C 
HETATM    5  C   LIG     1      23.604  21.924  18.239  1.00  0.00     0.026 C 
ENDBRANCH   3   4
BRANCH   3   6
HETATM    6  C   LIG     1      26.787  23.207  18.517  1.00  0.00     0.126 C 
BRANCH   6   7
HETATM    7  C   LIG     1      26.003  24.474  18.150  1.00  0.00     0.020 C 
BRANCH   7   8
HETATM    8  C   LIG     1      26.200  25.607  19.168  1.00  0.00    -0.003 C 
HETATM    9  C   LIG     1      27.673  25.884  19.466  1.00  0.00     0.005 C 
ENDBRANCH   7   8
ENDBRANCH   6   7
ENDBRANCH   3   6
BRANCH   2  10
HETATM   10  S   LIG     1      25.090  20.608  21.325  1.00  0.00    -0.069 SA
BRANCH  10  11
HETATM   11  C   LIG     1      24.093  21.648  22.443  1.00  0.00     0.084 C 
BRANCH  11  12
HETATM   12  C   LIG     1      22.628  21.613  22.012  1.00  0.00     0.006 C 
HETATM   13  C   LIG     1      22.193  22.954  21.430  1.00  0.00     0.006 C 
ENDBRANCH  11  12
ENDBRANCH  10  11
ENDBRANCH   2  10
TORSDOF 7
ENDMDL
MODEL 20
REMARK VINA RESULT:      -3.3     16.303     17.608
REMARK  7 active torsions:
REMARK  status: ('A' for Active; 'I' for Inactive)
REMARK       I    between atoms: C_2  and  N_7 
REMARK    1  A    between atoms: C_2  and  S_3 
REMARK    2  A    between atoms: S_3  and  C_4 
REMARK    3  A    between atoms: C_4  and  C_5 
REMARK    4  A    between atoms: N_7  and  C_12 
REMARK    5  A    between atoms: N_7  and  C_8 
REMARK    6  A    between atoms: C_8  and  C_9 
REMARK    7  A    between atoms: C_9  and  C_10 
ROOT
HETATM    1  O   LIG     1      26.248  27.642  32.692  1.00  0.00    -0.260 OA
HETATM    2  C   LIG     1      27.357  28.159  32.991  1.00  0.00     0.281 C 
HETATM    3  N   LIG     1      27.417  29.263  33.923  1.00  0.00    -0.343 N 
ENDROOT
BRANCH   3   4
HETATM    4  C   LIG     1      28.665  30.016  34.126  1.00  0.00     0.122 C 
HETATM    5  C   LIG     1      28.570  31.403  33.495  1.00  0.00     0.026 C 
ENDBRANCH   3   4
BRANCH   3   6
HETATM    6  C   LIG     1      26.224  29.611  34.710  1.00  0.00     0.126 C 
BRANCH   6   7
HETATM    7  C   LIG     1      26.594  29.800  36.188  1.00  0.00     0.020 C 
BRANCH   7   8
HETATM    8  C   LIG     1      25.942  31.045  36.807  1.00  0.00    -0.003 C 
HETATM    9  C   LIG     1      26.944  31.934  37.542  1.00  0.00     0.005 C 
ENDBRANCH   7   8
ENDBRANCH   6   7
ENDBRANCH   3   6
BRANCH   2  10
HETATM   10  S   LIG     1      28.842  27.471  32.243  1.00  0.00    -0.069 SA
BRANCH  10  11
HETATM   11  C   LIG     1      28.733  28.538  30.769  1.00  0.00     0.084 C 
BRANCH  11  12
HETATM   12  C   LIG     1      28.640  27.674  29.512  1.00  0.00     0.006 C 
HETATM   13  C   LIG     1      27.305  26.939  29.446  1.00  0.00     0.006 C 
ENDBRANCH  11  12
ENDBRANCH  10  11
ENDBRANCH   2  10
TORSDOF 7
ENDMDL
