REMARK  11 active torsions:
REMARK  status: ('A' for Active; 'I' for Inactive)
REMARK    1  A    between atoms: C_2  and  C_3 
REMARK    2  A    between atoms: C_3  and  C_4 
REMARK    3  A    between atoms: C_4  and  C_5 
REMARK    4  A    between atoms: C_5  and  C_6 
REMARK    5  A    between atoms: C_6  and  C_7 
REMARK    6  A    between atoms: C_7  and  C_8 
REMARK    7  A    between atoms: C_8  and  C_9 
REMARK    8  A    between atoms: C_9  and  C_10 
REMARK    9  A    between atoms: C_10  and  C_11 
REMARK   10  A    between atoms: C_11  and  C_12 
REMARK   11  A    between atoms: C_12  and  O_13 
ROOT
HETATM    1  C   LIG     1      -0.376  -0.676  -0.251  1.00  0.00     0.000 C 
ENDROOT
BRANCH   1   2
HETATM    2  C   LIG     1       0.952  -1.363  -0.606  1.00  0.00     0.000 C 
BRANCH   2   3
HETATM    3  C   LIG     1       2.015  -0.376  -1.116  1.00  0.00     0.000 C 
BRANCH   3   4
HETATM    4  C   LIG     1       2.623   0.472   0.014  1.00  0.00     0.000 C 
BRANCH   4   5
HETATM    5  C   LIG     1       3.624   1.523  -0.499  1.00  0.00    -0.000 C 
BRANCH   5   6
HETATM    6  C   LIG     1       4.883   0.947  -1.174  1.00  0.00    -0.005 C 
HETATM    7  C   LIG     1       5.721   0.080  -0.237  1.00  0.00     0.005 C 
ENDBRANCH   5   6
ENDBRANCH   4   5
ENDBRANCH   3   4
ENDBRANCH   2   3
ENDBRANCH   1   2
BRANCH   1   8
HETATM    8  C   LIG     1      -1.447  -1.714   0.117  1.00  0.00     0.000 C 
BRANCH   8   9
HETATM    9  C   LIG     1      -2.749  -1.069   0.617  1.00  0.00     0.000 C 
BRANCH   9  10
HETATM   10  C   LIG     1      -3.508  -0.327  -0.498  1.00  0.00     0.002 C 
BRANCH  10  11
HETATM   11  C   LIG     1      -4.925   0.087  -0.073  1.00  0.00     0.026 C 
BRANCH  11  12
HETATM   12  C   LIG     1      -4.926   1.194   0.984  1.00  0.00     0.164 C 
BRANCH  12  13
HETATM   13  O   LIG     1      -6.242   1.610   1.220  1.00  0.00    -0.401 OA
HETATM   14  H   LIG     1      -6.186   2.328   1.904  1.00  0.00     0.209 HD
ENDBRANCH  12  13
ENDBRANCH  11  12
ENDBRANCH  10  11
ENDBRANCH   9  10
ENDBRANCH   8   9
ENDBRANCH   1   8
TORSDOF 11
