REMARK  10 active torsions:
REMARK  status: ('A' for Active; 'I' for Inactive)
REMARK    1  A    between atoms: C_2  and  C_4 
REMARK    2  A    between atoms: C_2  and  O_3 
REMARK    3  A    between atoms: C_4  and  C_5 
REMARK    4  A    between atoms: C_5  and  C_6 
REMARK    5  A    between atoms: C_6  and  C_7 
REMARK    6  A    between atoms: C_7  and  C_8 
REMARK    7  A    between atoms: C_8  and  C_9 
REMARK    8  A    between atoms: C_9  and  C_10 
REMARK    9  A    between atoms: C_10  and  C_11 
REMARK   10  A    between atoms: C_11  and  C_12 
ROOT
HETATM    1  C   LIG     1       2.152  -0.537   1.146  1.00  0.00     0.001 C 
ENDROOT
BRANCH   1   2
HETATM    2  C   LIG     1       3.178   0.519   0.706  1.00  0.00     0.010 C 
BRANCH   2   3
HETATM    3  C   LIG     1       3.935   0.113  -0.565  1.00  0.00     0.110 C 
BRANCH   3   4
HETATM    4  C   LIG     1       5.006   1.114  -0.877  1.00  0.00     0.139 C 
HETATM    5  O   LIG     1       6.189   0.908  -0.500  1.00  0.00    -0.650 OA
BRANCH   4   6
HETATM    6  O   LIG     1       4.696   2.295  -1.545  1.00  0.00    -0.776 OA
HETATM    7  H   LIG     1       3.748   2.495  -1.842  1.00  0.00     0.167 HD
ENDBRANCH   4   6
ENDBRANCH   3   4
ENDBRANCH   2   3
ENDBRANCH   1   2
BRANCH   1   8
HETATM    8  C   LIG     1       0.942  -0.615   0.204  1.00  0.00     0.000 C 
BRANCH   8   9
HETATM    9  C   LIG     1      -0.129  -1.564   0.762  1.00  0.00     0.000 C 
BRANCH   9  10
HETATM   10  C   LIG     1      -1.271  -1.837  -0.233  1.00  0.00     0.000 C 
BRANCH  10  11
HETATM   11  C   LIG     1      -2.065  -0.593  -0.674  1.00  0.00     0.000 C 
BRANCH  11  12
HETATM   12  C   LIG     1      -2.784   0.103   0.494  1.00  0.00    -0.000 C 
BRANCH  12  13
HETATM   13  C   LIG     1      -3.650   1.286   0.030  1.00  0.00    -0.005 C 
HETATM   14  C   LIG     1      -4.936   0.843  -0.666  1.00  0.00     0.005 C 
ENDBRANCH  12  13
ENDBRANCH  11  12
ENDBRANCH  10  11
ENDBRANCH   9  10
ENDBRANCH   8   9
ENDBRANCH   1   8
TORSDOF 10
