MODEL 1
REMARK VINA RESULT:      -6.1      0.000      0.000
REMARK  9 active torsions:
REMARK  status: ('A' for Active; 'I' for Inactive)
REMARK    1  A    between atoms: C_2  and  C_3 
REMARK    2  A    between atoms: C_3  and  C_4 
REMARK    3  A    between atoms: C_4  and  C_5 
REMARK    4  A    between atoms: C_5  and  C_6 
REMARK    5  A    between atoms: C_6  and  C_7 
REMARK    6  A    between atoms: C_7  and  C_8 
REMARK    7  A    between atoms: C_8  and  C_9 
REMARK    8  A    between atoms: C_9  and  C_10 
REMARK    9  A    between atoms: C_10  and  O_11 
ROOT
HETATM    1  C   LIG     1      17.115  37.242  23.075  1.00  0.00     0.000 C 
ENDROOT
BRANCH   1   2
HETATM    2  C   LIG     1      17.007  38.439  24.033  1.00  0.00     0.000 C 
BRANCH   2   3
HETATM    3  C   LIG     1      17.299  38.010  25.479  1.00  0.00     0.000 C 
BRANCH   3   4
HETATM    4  C   LIG     1      18.503  37.061  25.584  1.00  0.00    -0.000 C 
BRANCH   4   5
HETATM    5  C   LIG     1      18.277  35.928  26.595  1.00  0.00    -0.005 C 
HETATM    6  C   LIG     1      17.441  34.806  25.987  1.00  0.00     0.005 C 
ENDBRANCH   4   5
ENDBRANCH   3   4
ENDBRANCH   2   3
ENDBRANCH   1   2
BRANCH   1   7
HETATM    7  C   LIG     1      17.672  37.632  21.696  1.00  0.00     0.000 C 
BRANCH   7   8
HETATM    8  C   LIG     1      18.448  38.960  21.726  1.00  0.00     0.002 C 
BRANCH   8   9
HETATM    9  C   LIG     1      18.842  39.448  20.320  1.00  0.00     0.026 C 
BRANCH   9  10
HETATM   10  C   LIG     1      19.995  38.655  19.695  1.00  0.00     0.164 C 
BRANCH  10  11
HETATM   11  O   LIG     1      20.795  39.498  18.913  1.00  0.00    -0.401 OA
HETATM   12  H   LIG     1      21.132  38.940  18.163  1.00  0.00     0.209 HD
ENDBRANCH  10  11
ENDBRANCH   9  10
ENDBRANCH   8   9
ENDBRANCH   7   8
ENDBRANCH   1   7
TORSDOF 9
ENDMDL
MODEL 2
REMARK VINA RESULT:      -6.0      2.777      3.559
REMARK  9 active torsions:
REMARK  status: ('A' for Active; 'I' for Inactive)
REMARK    1  A    between atoms: C_2  and  C_3 
REMARK    2  A    between atoms: C_3  and  C_4 
REMARK    3  A    between atoms: C_4  and  C_5 
REMARK    4  A    between atoms: C_5  and  C_6 
REMARK    5  A    between atoms: C_6  and  C_7 
REMARK    6  A    between atoms: C_7  and  C_8 
REMARK    7  A    between atoms: C_8  and  C_9 
REMARK    8  A    between atoms: C_9  and  C_10 
REMARK    9  A    between atoms: C_10  and  O_11 
ROOT
HETATM    1  C   LIG     1      16.846  37.895  22.840  1.00  0.00     0.000 C 
ENDROOT
BRANCH   1   2
HETATM    2  C   LIG     1      17.748  38.188  24.050  1.00  0.00     0.000 C 
BRANCH   2   3
HETATM    3  C   LIG     1      17.237  37.457  25.301  1.00  0.00     0.000 C 
BRANCH   3   4
HETATM    4  C   LIG     1      18.376  36.989  26.220  1.00  0.00    -0.000 C 
BRANCH   4   5
HETATM    5  C   LIG     1      18.401  35.465  26.402  1.00  0.00    -0.005 C 
HETATM    6  C   LIG     1      17.288  34.797  25.600  1.00  0.00     0.005 C 
ENDBRANCH   4   5
ENDBRANCH   3   4
ENDBRANCH   2   3
ENDBRANCH   1   2
BRANCH   1   7
HETATM    7  C   LIG     1      17.646  37.596  21.561  1.00  0.00     0.000 C 
BRANCH   7   8
HETATM    8  C   LIG     1      17.365  36.191  21.003  1.00  0.00     0.002 C 
BRANCH   8   9
HETATM    9  C   LIG     1      16.572  35.311  21.986  1.00  0.00     0.026 C 
BRANCH   9  10
HETATM   10  C   LIG     1      15.282  34.735  21.392  1.00  0.00     0.164 C 
BRANCH  10  11
HETATM   11  O   LIG     1      14.301  35.732  21.307  1.00  0.00    -0.401 OA
HETATM   12  H   LIG     1      14.745  36.521  20.899  1.00  0.00     0.209 HD
ENDBRANCH  10  11
ENDBRANCH   9  10
ENDBRANCH   8   9
ENDBRANCH   7   8
ENDBRANCH   1   7
TORSDOF 9
ENDMDL
MODEL 3
REMARK VINA RESULT:      -5.6      4.367      5.204
REMARK  9 active torsions:
REMARK  status: ('A' for Active; 'I' for Inactive)
REMARK    1  A    between atoms: C_2  and  C_3 
REMARK    2  A    between atoms: C_3  and  C_4 
REMARK    3  A    between atoms: C_4  and  C_5 
REMARK    4  A    between atoms: C_5  and  C_6 
REMARK    5  A    between atoms: C_6  and  C_7 
REMARK    6  A    between atoms: C_7  and  C_8 
REMARK    7  A    between atoms: C_8  and  C_9 
REMARK    8  A    between atoms: C_9  and  C_10 
REMARK    9  A    between atoms: C_10  and  O_11 
ROOT
HETATM    1  C   LIG     1      16.295  36.186  21.845  1.00  0.00     0.000 C 
ENDROOT
BRANCH   1   2
HETATM    2  C   LIG     1      17.004  35.210  22.797  1.00  0.00     0.000 C 
BRANCH   2   3
HETATM    3  C   LIG     1      17.220  35.852  24.176  1.00  0.00     0.000 C 
BRANCH   3   4
HETATM    4  C   LIG     1      17.152  34.831  25.322  1.00  0.00    -0.000 C 
BRANCH   4   5
HETATM    5  C   LIG     1      18.336  34.951  26.292  1.00  0.00    -0.005 C 
HETATM    6  C   LIG     1      18.514  36.390  26.768  1.00  0.00     0.005 C 
ENDBRANCH   4   5
ENDBRANCH   3   4
ENDBRANCH   2   3
ENDBRANCH   1   2
BRANCH   1   7
HETATM    7  C   LIG     1      14.989  35.613  21.271  1.00  0.00     0.000 C 
BRANCH   7   8
HETATM    8  C   LIG     1      14.967  34.075  21.273  1.00  0.00     0.002 C 
BRANCH   8   9
HETATM    9  C   LIG     1      15.606  33.472  20.009  1.00  0.00     0.026 C 
BRANCH   9  10
HETATM   10  C   LIG     1      15.268  31.993  19.795  1.00  0.00     0.164 C 
BRANCH  10  11
HETATM   11  O   LIG     1      14.071  31.868  19.077  1.00  0.00    -0.401 OA
HETATM   12  H   LIG     1      14.298  32.059  18.129  1.00  0.00     0.209 HD
ENDBRANCH  10  11
ENDBRANCH   9  10
ENDBRANCH   8   9
ENDBRANCH   7   8
ENDBRANCH   1   7
TORSDOF 9
ENDMDL
MODEL 4
REMARK VINA RESULT:      -5.4      2.701      5.819
REMARK  9 active torsions:
REMARK  status: ('A' for Active; 'I' for Inactive)
REMARK    1  A    between atoms: C_2  and  C_3 
REMARK    2  A    between atoms: C_3  and  C_4 
REMARK    3  A    between atoms: C_4  and  C_5 
REMARK    4  A    between atoms: C_5  and  C_6 
REMARK    5  A    between atoms: C_6  and  C_7 
REMARK    6  A    between atoms: C_7  and  C_8 
REMARK    7  A    between atoms: C_8  and  C_9 
REMARK    8  A    between atoms: C_9  and  C_10 
REMARK    9  A    between atoms: C_10  and  O_11 
ROOT
HETATM    1  C   LIG     1      17.242  35.157  22.213  1.00  0.00     0.000 C 
ENDROOT
BRANCH   1   2
HETATM    2  C   LIG     1      16.879  36.067  21.029  1.00  0.00     0.000 C 
BRANCH   2   3
HETATM    3  C   LIG     1      18.124  36.791  20.495  1.00  0.00     0.000 C 
BRANCH   3   4
HETATM    4  C   LIG     1      18.281  38.206  21.074  1.00  0.00    -0.000 C 
BRANCH   4   5
HETATM    5  C   LIG     1      18.845  39.204  20.052  1.00  0.00    -0.005 C 
HETATM    6  C   LIG     1      20.225  38.771  19.565  1.00  0.00     0.005 C 
ENDBRANCH   4   5
ENDBRANCH   3   4
ENDBRANCH   2   3
ENDBRANCH   1   2
BRANCH   1   7
HETATM    7  C   LIG     1      16.965  35.814  23.575  1.00  0.00     0.000 C 
BRANCH   7   8
HETATM    8  C   LIG     1      17.362  34.914  24.758  1.00  0.00     0.002 C 
BRANCH   8   9
HETATM    9  C   LIG     1      17.798  35.719  25.995  1.00  0.00     0.026 C 
BRANCH   9  10
HETATM   10  C   LIG     1      18.386  37.093  25.658  1.00  0.00     0.164 C 
BRANCH  10  11
HETATM   11  O   LIG     1      17.497  38.108  26.036  1.00  0.00    -0.401 OA
HETATM   12  H   LIG     1      17.140  37.843  26.925  1.00  0.00     0.209 HD
ENDBRANCH  10  11
ENDBRANCH   9  10
ENDBRANCH   8   9
ENDBRANCH   7   8
ENDBRANCH   1   7
TORSDOF 9
ENDMDL
MODEL 5
REMARK VINA RESULT:      -5.3      2.157      3.143
REMARK  9 active torsions:
REMARK  status: ('A' for Active; 'I' for Inactive)
REMARK    1  A    between atoms: C_2  and  C_3 
REMARK    2  A    between atoms: C_3  and  C_4 
REMARK    3  A    between atoms: C_4  and  C_5 
REMARK    4  A    between atoms: C_5  and  C_6 
REMARK    5  A    between atoms: C_6  and  C_7 
REMARK    6  A    between atoms: C_7  and  C_8 
REMARK    7  A    between atoms: C_8  and  C_9 
REMARK    8  A    between atoms: C_9  and  C_10 
REMARK    9  A    between atoms: C_10  and  O_11 
ROOT
HETATM    1  C   LIG     1      16.555  38.928  22.417  1.00  0.00     0.000 C 
ENDROOT
BRANCH   1   2
HETATM    2  C   LIG     1      15.927  37.616  22.911  1.00  0.00     0.000 C 
BRANCH   2   3
HETATM    3  C   LIG     1      16.995  36.522  23.063  1.00  0.00     0.000 C 
BRANCH   3   4
HETATM    4  C   LIG     1      16.569  35.186  22.433  1.00  0.00    -0.000 C 
BRANCH   4   5
HETATM    5  C   LIG     1      16.470  35.259  20.903  1.00  0.00    -0.005 C 
HETATM    6  C   LIG     1      15.738  34.044  20.341  1.00  0.00     0.005 C 
ENDBRANCH   4   5
ENDBRANCH   3   4
ENDBRANCH   2   3
ENDBRANCH   1   2
BRANCH   1   7
HETATM    7  C   LIG     1      18.089  38.932  22.527  1.00  0.00     0.000 C 
BRANCH   7   8
HETATM    8  C   LIG     1      18.775  39.331  21.209  1.00  0.00     0.002 C 
BRANCH   8   9
HETATM    9  C   LIG     1      18.844  38.169  20.202  1.00  0.00     0.026 C 
BRANCH   9  10
HETATM   10  C   LIG     1      20.081  38.213  19.297  1.00  0.00     0.164 C 
BRANCH  10  11
HETATM   11  O   LIG     1      20.571  39.522  19.209  1.00  0.00    -0.401 OA
HETATM   12  H   LIG     1      20.824  39.658  18.258  1.00  0.00     0.209 HD
ENDBRANCH  10  11
ENDBRANCH   9  10
ENDBRANCH   8   9
ENDBRANCH   7   8
ENDBRANCH   1   7
TORSDOF 9
ENDMDL
MODEL 6
REMARK VINA RESULT:      -5.3      3.639      5.595
REMARK  9 active torsions:
REMARK  status: ('A' for Active; 'I' for Inactive)
REMARK    1  A    between atoms: C_2  and  C_3 
REMARK    2  A    between atoms: C_3  and  C_4 
REMARK    3  A    between atoms: C_4  and  C_5 
REMARK    4  A    between atoms: C_5  and  C_6 
REMARK    5  A    between atoms: C_6  and  C_7 
REMARK    6  A    between atoms: C_7  and  C_8 
REMARK    7  A    between atoms: C_8  and  C_9 
REMARK    8  A    between atoms: C_9  and  C_10 
REMARK    9  A    between atoms: C_10  and  O_11 
ROOT
HETATM    1  C   LIG     1      17.650  38.412  22.963  1.00  0.00     0.000 C 
ENDROOT
BRANCH   1   2
HETATM    2  C   LIG     1      16.591  37.483  22.349  1.00  0.00     0.000 C 
BRANCH   2   3
HETATM    3  C   LIG     1      17.240  36.475  21.388  1.00  0.00     0.000 C 
BRANCH   3   4
HETATM    4  C   LIG     1      16.852  35.022  21.704  1.00  0.00    -0.000 C 
BRANCH   4   5
HETATM    5  C   LIG     1      15.460  34.653  21.172  1.00  0.00    -0.005 C 
HETATM    6  C   LIG     1      15.522  33.419  20.276  1.00  0.00     0.005 C 
ENDBRANCH   4   5
ENDBRANCH   3   4
ENDBRANCH   2   3
ENDBRANCH   1   2
BRANCH   1   7
HETATM    7  C   LIG     1      17.617  38.417  24.500  1.00  0.00     0.000 C 
BRANCH   7   8
HETATM    8  C   LIG     1      17.263  37.041  25.089  1.00  0.00     0.002 C 
BRANCH   8   9
HETATM    9  C   LIG     1      18.390  36.463  25.964  1.00  0.00     0.026 C 
BRANCH   9  10
HETATM   10  C   LIG     1      18.208  34.979  26.299  1.00  0.00     0.164 C 
BRANCH  10  11
HETATM   11  O   LIG     1      16.846  34.657  26.350  1.00  0.00    -0.401 OA
HETATM   12  H   LIG     1      16.389  35.296  25.742  1.00  0.00     0.209 HD
ENDBRANCH  10  11
ENDBRANCH   9  10
ENDBRANCH   8   9
ENDBRANCH   7   8
ENDBRANCH   1   7
TORSDOF 9
ENDMDL
MODEL 7
REMARK VINA RESULT:      -5.2      4.023      4.950
REMARK  9 active torsions:
REMARK  status: ('A' for Active; 'I' for Inactive)
REMARK    1  A    between atoms: C_2  and  C_3 
REMARK    2  A    between atoms: C_3  and  C_4 
REMARK    3  A    between atoms: C_4  and  C_5 
REMARK    4  A    between atoms: C_5  and  C_6 
REMARK    5  A    between atoms: C_6  and  C_7 
REMARK    6  A    between atoms: C_7  and  C_8 
REMARK    7  A    between atoms: C_8  and  C_9 
REMARK    8  A    between atoms: C_9  and  C_10 
REMARK    9  A    between atoms: C_10  and  O_11 
ROOT
HETATM    1  C   LIG     1      17.871  36.447  20.957  1.00  0.00     0.000 C 
ENDROOT
BRANCH   1   2
HETATM    2  C   LIG     1      17.713  37.861  21.537  1.00  0.00     0.000 C 
BRANCH   2   3
HETATM    3  C   LIG     1      16.949  37.823  22.869  1.00  0.00     0.000 C 
BRANCH   3   4
HETATM    4  C   LIG     1      17.818  38.252  24.062  1.00  0.00    -0.000 C 
BRANCH   4   5
HETATM    5  C   LIG     1      17.346  37.639  25.388  1.00  0.00    -0.005 C 
HETATM    6  C   LIG     1      18.458  36.827  26.046  1.00  0.00     0.005 C 
ENDBRANCH   4   5
ENDBRANCH   3   4
ENDBRANCH   2   3
ENDBRANCH   1   2
BRANCH   1   7
HETATM    7  C   LIG     1      16.817  35.464  21.491  1.00  0.00     0.000 C 
BRANCH   7   8
HETATM    8  C   LIG     1      15.820  35.021  20.406  1.00  0.00     0.002 C 
BRANCH   8   9
HETATM    9  C   LIG     1      15.130  33.687  20.745  1.00  0.00     0.026 C 
BRANCH   9  10
HETATM   10  C   LIG     1      15.406  32.576  19.727  1.00  0.00     0.164 C 
BRANCH  10  11
HETATM   11  O   LIG     1      14.208  31.958  19.346  1.00  0.00    -0.401 OA
HETATM   12  H   LIG     1      14.149  31.121  19.879  1.00  0.00     0.209 HD
ENDBRANCH  10  11
ENDBRANCH   9  10
ENDBRANCH   8   9
ENDBRANCH   7   8
ENDBRANCH   1   7
TORSDOF 9
ENDMDL
MODEL 8
REMARK VINA RESULT:      -5.2      1.960      3.088
REMARK  9 active torsions:
REMARK  status: ('A' for Active; 'I' for Inactive)
REMARK    1  A    between atoms: C_2  and  C_3 
REMARK    2  A    between atoms: C_3  and  C_4 
REMARK    3  A    between atoms: C_4  and  C_5 
REMARK    4  A    between atoms: C_5  and  C_6 
REMARK    5  A    between atoms: C_6  and  C_7 
REMARK    6  A    between atoms: C_7  and  C_8 
REMARK    7  A    between atoms: C_8  and  C_9 
REMARK    8  A    between atoms: C_9  and  C_10 
REMARK    9  A    between atoms: C_10  and  O_11 
ROOT
HETATM    1  C   LIG     1      18.638  39.407  20.969  1.00  0.00     0.000 C 
ENDROOT
BRANCH   1   2
HETATM    2  C   LIG     1      17.930  38.213  21.627  1.00  0.00     0.000 C 
BRANCH   2   3
HETATM    3  C   LIG     1      16.773  38.688  22.519  1.00  0.00     0.000 C 
BRANCH   3   4
HETATM    4  C   LIG     1      16.582  37.804  23.762  1.00  0.00    -0.000 C 
BRANCH   4   5
HETATM    5  C   LIG     1      17.454  38.251  24.945  1.00  0.00    -0.005 C 
HETATM    6  C   LIG     1      18.084  37.052  25.647  1.00  0.00     0.005 C 
ENDBRANCH   4   5
ENDBRANCH   3   4
ENDBRANCH   2   3
ENDBRANCH   1   2
BRANCH   1   7
HETATM    7  C   LIG     1      19.778  38.980  20.030  1.00  0.00     0.000 C 
BRANCH   7   8
HETATM    8  C   LIG     1      19.284  38.656  18.609  1.00  0.00     0.002 C 
BRANCH   8   9
HETATM    9  C   LIG     1      18.443  39.792  18.002  1.00  0.00     0.026 C 
BRANCH   9  10
HETATM   10  C   LIG     1      18.607  39.935  16.485  1.00  0.00     0.164 C 
BRANCH  10  11
HETATM   11  O   LIG     1      18.289  38.729  15.847  1.00  0.00    -0.401 OA
HETATM   12  H   LIG     1      18.275  38.928  14.874  1.00  0.00     0.209 HD
ENDBRANCH  10  11
ENDBRANCH   9  10
ENDBRANCH   8   9
ENDBRANCH   7   8
ENDBRANCH   1   7
TORSDOF 9
ENDMDL
MODEL 9
REMARK VINA RESULT:      -5.1      3.891      5.867
REMARK  9 active torsions:
REMARK  status: ('A' for Active; 'I' for Inactive)
REMARK    1  A    between atoms: C_2  and  C_3 
REMARK    2  A    between atoms: C_3  and  C_4 
REMARK    3  A    between atoms: C_4  and  C_5 
REMARK    4  A    between atoms: C_5  and  C_6 
REMARK    5  A    between atoms: C_6  and  C_7 
REMARK    6  A    between atoms: C_7  and  C_8 
REMARK    7  A    between atoms: C_8  and  C_9 
REMARK    8  A    between atoms: C_9  and  C_10 
REMARK    9  A    between atoms: C_10  and  O_11 
ROOT
HETATM    1  C   LIG     1      16.264  36.888  22.584  1.00  0.00     0.000 C 
ENDROOT
BRANCH   1   2
HETATM    2  C   LIG     1      17.297  37.768  23.306  1.00  0.00     0.000 C 
BRANCH   2   3
HETATM    3  C   LIG     1      17.765  38.916  22.400  1.00  0.00     0.000 C 
BRANCH   3   4
HETATM    4  C   LIG     1      18.204  38.433  21.009  1.00  0.00    -0.000 C 
BRANCH   4   5
HETATM    5  C   LIG     1      19.099  39.448  20.285  1.00  0.00    -0.005 C 
HETATM    6  C   LIG     1      20.245  38.750  19.558  1.00  0.00     0.005 C 
ENDBRANCH   4   5
ENDBRANCH   3   4
ENDBRANCH   2   3
ENDBRANCH   1   2
BRANCH   1   7
HETATM    7  C   LIG     1      16.731  35.432  22.425  1.00  0.00     0.000 C 
BRANCH   7   8
HETATM    8  C   LIG     1      16.485  34.884  21.008  1.00  0.00     0.002 C 
BRANCH   8   9
HETATM    9  C   LIG     1      15.246  33.975  20.931  1.00  0.00     0.026 C 
BRANCH   9  10
HETATM   10  C   LIG     1      15.392  32.820  19.935  1.00  0.00     0.164 C 
BRANCH  10  11
HETATM   11  O   LIG     1      14.218  32.055  19.905  1.00  0.00    -0.401 OA
HETATM   12  H   LIG     1      14.034  31.873  18.946  1.00  0.00     0.209 HD
ENDBRANCH  10  11
ENDBRANCH   9  10
ENDBRANCH   8   9
ENDBRANCH   7   8
ENDBRANCH   1   7
TORSDOF 9
ENDMDL
MODEL 10
REMARK VINA RESULT:      -5.0      8.606     10.285
REMARK  9 active torsions:
REMARK  status: ('A' for Active; 'I' for Inactive)
REMARK    1  A    between atoms: C_2  and  C_3 
REMARK    2  A    between atoms: C_3  and  C_4 
REMARK    3  A    between atoms: C_4  and  C_5 
REMARK    4  A    between atoms: C_5  and  C_6 
REMARK    5  A    between atoms: C_6  and  C_7 
REMARK    6  A    between atoms: C_7  and  C_8 
REMARK    7  A    between atoms: C_8  and  C_9 
REMARK    8  A    between atoms: C_9  and  C_10 
REMARK    9  A    between atoms: C_10  and  O_11 
ROOT
HETATM    1  C   LIG     1      14.605  32.488  17.681  1.00  0.00     0.000 C 
ENDROOT
BRANCH   1   2
HETATM    2  C   LIG     1      13.314  32.216  16.893  1.00  0.00     0.000 C 
BRANCH   2   3
HETATM    3  C   LIG     1      13.324  30.799  16.301  1.00  0.00     0.000 C 
BRANCH   3   4
HETATM    4  C   LIG     1      14.380  30.625  15.199  1.00  0.00    -0.000 C 
BRANCH   4   5
HETATM    5  C   LIG     1      14.033  29.494  14.220  1.00  0.00    -0.005 C 
HETATM    6  C   LIG     1      15.279  28.705  13.827  1.00  0.00     0.005 C 
ENDBRANCH   4   5
ENDBRANCH   3   4
ENDBRANCH   2   3
ENDBRANCH   1   2
BRANCH   1   7
HETATM    7  C   LIG     1      14.679  31.694  18.995  1.00  0.00     0.000 C 
BRANCH   7   8
HETATM    8  C   LIG     1      15.690  32.290  19.990  1.00  0.00     0.002 C 
BRANCH   8   9
HETATM    9  C   LIG     1      15.644  33.828  20.031  1.00  0.00     0.026 C 
BRANCH   9  10
HETATM   10  C   LIG     1      15.089  34.391  21.343  1.00  0.00     0.164 C 
BRANCH  10  11
HETATM   11  O   LIG     1      13.875  33.769  21.663  1.00  0.00    -0.401 OA
HETATM   12  H   LIG     1      13.820  32.961  21.088  1.00  0.00     0.209 HD
ENDBRANCH  10  11
ENDBRANCH   9  10
ENDBRANCH   8   9
ENDBRANCH   7   8
ENDBRANCH   1   7
TORSDOF 9
ENDMDL
MODEL 11
REMARK VINA RESULT:      -4.9      3.020      5.396
REMARK  9 active torsions:
REMARK  status: ('A' for Active; 'I' for Inactive)
REMARK    1  A    between atoms: C_2  and  C_3 
REMARK    2  A    between atoms: C_3  and  C_4 
REMARK    3  A    between atoms: C_4  and  C_5 
REMARK    4  A    between atoms: C_5  and  C_6 
REMARK    5  A    between atoms: C_6  and  C_7 
REMARK    6  A    between atoms: C_7  and  C_8 
REMARK    7  A    between atoms: C_8  and  C_9 
REMARK    8  A    between atoms: C_9  and  C_10 
REMARK    9  A    between atoms: C_10  and  O_11 
ROOT
HETATM    1  C   LIG     1      18.883  38.992  21.696  1.00  0.00     0.000 C 
ENDROOT
BRANCH   1   2
HETATM    2  C   LIG     1      18.631  39.172  20.191  1.00  0.00     0.000 C 
BRANCH   2   3
HETATM    3  C   LIG     1      19.158  37.965  19.400  1.00  0.00     0.000 C 
BRANCH   3   4
HETATM    4  C   LIG     1      18.827  36.624  20.075  1.00  0.00    -0.000 C 
BRANCH   4   5
HETATM    5  C   LIG     1      17.342  36.254  19.959  1.00  0.00    -0.005 C 
HETATM    6  C   LIG     1      16.923  35.302  21.075  1.00  0.00     0.005 C 
ENDBRANCH   4   5
ENDBRANCH   3   4
ENDBRANCH   2   3
ENDBRANCH   1   2
BRANCH   1   7
HETATM    7  C   LIG     1      17.604  39.141  22.536  1.00  0.00     0.000 C 
BRANCH   7   8
HETATM    8  C   LIG     1      17.270  37.870  23.335  1.00  0.00     0.002 C 
BRANCH   8   9
HETATM    9  C   LIG     1      17.272  38.109  24.856  1.00  0.00     0.026 C 
BRANCH   9  10
HETATM   10  C   LIG     1      18.203  37.165  25.625  1.00  0.00     0.164 C 
BRANCH  10  11
HETATM   11  O   LIG     1      17.531  36.609  26.721  1.00  0.00    -0.401 OA
HETATM   12  H   LIG     1      18.177  36.622  27.476  1.00  0.00     0.209 HD
ENDBRANCH  10  11
ENDBRANCH   9  10
ENDBRANCH   8   9
ENDBRANCH   7   8
ENDBRANCH   1   7
TORSDOF 9
ENDMDL
MODEL 12
REMARK VINA RESULT:      -4.9      9.267     10.663
REMARK  9 active torsions:
REMARK  status: ('A' for Active; 'I' for Inactive)
REMARK    1  A    between atoms: C_2  and  C_3 
REMARK    2  A    between atoms: C_3  and  C_4 
REMARK    3  A    between atoms: C_4  and  C_5 
REMARK    4  A    between atoms: C_5  and  C_6 
REMARK    5  A    between atoms: C_6  and  C_7 
REMARK    6  A    between atoms: C_7  and  C_8 
REMARK    7  A    between atoms: C_8  and  C_9 
REMARK    8  A    between atoms: C_9  and  C_10 
REMARK    9  A    between atoms: C_10  and  O_11 
ROOT
HETATM    1  C   LIG     1      15.280  30.611  13.474  1.00  0.00     0.000 C 
ENDROOT
BRANCH   1   2
HETATM    2  C   LIG     1      14.878  30.200  14.899  1.00  0.00     0.000 C 
BRANCH   2   3
HETATM    3  C   LIG     1      13.350  30.197  15.056  1.00  0.00     0.000 C 
BRANCH   3   4
HETATM    4  C   LIG     1      12.893  30.758  16.412  1.00  0.00    -0.000 C 
BRANCH   4   5
HETATM    5  C   LIG     1      13.647  32.035  16.808  1.00  0.00    -0.005 C 
HETATM    6  C   LIG     1      14.403  31.843  18.119  1.00  0.00     0.005 C 
ENDBRANCH   4   5
ENDBRANCH   3   4
ENDBRANCH   2   3
ENDBRANCH   1   2
BRANCH   1   7
HETATM    7  C   LIG     1      15.996  31.971  13.426  1.00  0.00     0.000 C 
BRANCH   7   8
HETATM    8  C   LIG     1      16.600  32.369  14.784  1.00  0.00     0.002 C 
BRANCH   8   9
HETATM    9  C   LIG     1      17.548  33.577  14.679  1.00  0.00     0.026 C 
BRANCH   9  10
HETATM   10  C   LIG     1      17.995  33.885  13.246  1.00  0.00     0.164 C 
BRANCH  10  11
HETATM   11  O   LIG     1      17.437  35.095  12.813  1.00  0.00    -0.401 OA
HETATM   12  H   LIG     1      17.605  35.750  13.540  1.00  0.00     0.209 HD
ENDBRANCH  10  11
ENDBRANCH   9  10
ENDBRANCH   8   9
ENDBRANCH   7   8
ENDBRANCH   1   7
TORSDOF 9
ENDMDL
MODEL 13
REMARK VINA RESULT:      -4.9      2.813      5.583
REMARK  9 active torsions:
REMARK  status: ('A' for Active; 'I' for Inactive)
REMARK    1  A    between atoms: C_2  and  C_3 
REMARK    2  A    between atoms: C_3  and  C_4 
REMARK    3  A    between atoms: C_4  and  C_5 
REMARK    4  A    between atoms: C_5  and  C_6 
REMARK    5  A    between atoms: C_6  and  C_7 
REMARK    6  A    between atoms: C_7  and  C_8 
REMARK    7  A    between atoms: C_8  and  C_9 
REMARK    8  A    between atoms: C_9  and  C_10 
REMARK    9  A    between atoms: C_10  and  O_11 
ROOT
HETATM    1  C   LIG     1      17.316  36.364  22.224  1.00  0.00     0.000 C 
ENDROOT
BRANCH   1   2
HETATM    2  C   LIG     1      17.067  35.631  20.897  1.00  0.00     0.000 C 
BRANCH   2   3
HETATM    3  C   LIG     1      17.578  36.460  19.709  1.00  0.00     0.000 C 
BRANCH   3   4
HETATM    4  C   LIG     1      19.070  36.809  19.829  1.00  0.00    -0.000 C 
BRANCH   4   5
HETATM    5  C   LIG     1      19.369  38.267  19.454  1.00  0.00    -0.005 C 
HETATM    6  C   LIG     1      19.283  39.178  20.675  1.00  0.00     0.005 C 
ENDBRANCH   4   5
ENDBRANCH   3   4
ENDBRANCH   2   3
ENDBRANCH   1   2
BRANCH   1   7
HETATM    7  C   LIG     1      16.356  37.545  22.441  1.00  0.00     0.000 C 
BRANCH   7   8
HETATM    8  C   LIG     1      16.392  38.079  23.883  1.00  0.00     0.002 C 
BRANCH   8   9
HETATM    9  C   LIG     1      17.767  37.895  24.548  1.00  0.00     0.026 C 
BRANCH   9  10
HETATM   10  C   LIG     1      17.698  37.241  25.932  1.00  0.00     0.164 C 
BRANCH  10  11
HETATM   11  O   LIG     1      18.970  37.209  26.518  1.00  0.00    -0.401 OA
HETATM   12  H   LIG     1      19.159  36.253  26.712  1.00  0.00     0.209 HD
ENDBRANCH  10  11
ENDBRANCH   9  10
ENDBRANCH   8   9
ENDBRANCH   7   8
ENDBRANCH   1   7
TORSDOF 9
ENDMDL
MODEL 14
REMARK VINA RESULT:      -4.9      3.785      4.917
REMARK  9 active torsions:
REMARK  status: ('A' for Active; 'I' for Inactive)
REMARK    1  A    between atoms: C_2  and  C_3 
REMARK    2  A    between atoms: C_3  and  C_4 
REMARK    3  A    between atoms: C_4  and  C_5 
REMARK    4  A    between atoms: C_5  and  C_6 
REMARK    5  A    between atoms: C_6  and  C_7 
REMARK    6  A    between atoms: C_7  and  C_8 
REMARK    7  A    between atoms: C_8  and  C_9 
REMARK    8  A    between atoms: C_9  and  C_10 
REMARK    9  A    between atoms: C_10  and  O_11 
ROOT
HETATM    1  C   LIG     1      16.689  35.568  21.662  1.00  0.00     0.000 C 
ENDROOT
BRANCH   1   2
HETATM    2  C   LIG     1      15.186  35.480  21.358  1.00  0.00     0.000 C 
BRANCH   2   3
HETATM    3  C   LIG     1      14.767  34.027  21.085  1.00  0.00     0.000 C 
BRANCH   3   4
HETATM    4  C   LIG     1      15.848  33.230  20.337  1.00  0.00    -0.000 C 
BRANCH   4   5
HETATM    5  C   LIG     1      15.340  31.870  19.838  1.00  0.00    -0.005 C 
HETATM    6  C   LIG     1      14.637  32.006  18.490  1.00  0.00     0.005 C 
ENDBRANCH   4   5
ENDBRANCH   3   4
ENDBRANCH   2   3
ENDBRANCH   1   2
BRANCH   1   7
HETATM    7  C   LIG     1      17.252  36.987  21.477  1.00  0.00     0.000 C 
BRANCH   7   8
HETATM    8  C   LIG     1      18.250  37.079  20.311  1.00  0.00     0.002 C 
BRANCH   8   9
HETATM    9  C   LIG     1      19.026  38.409  20.299  1.00  0.00     0.026 C 
BRANCH   9  10
HETATM   10  C   LIG     1      19.506  38.829  18.906  1.00  0.00     0.164 C 
BRANCH  10  11
HETATM   11  O   LIG     1      20.745  39.476  18.995  1.00  0.00    -0.401 OA
HETATM   12  H   LIG     1      21.257  39.202  18.189  1.00  0.00     0.209 HD
ENDBRANCH  10  11
ENDBRANCH   9  10
ENDBRANCH   8   9
ENDBRANCH   7   8
ENDBRANCH   1   7
TORSDOF 9
ENDMDL
MODEL 15
REMARK VINA RESULT:      -4.8      4.421      6.366
REMARK  9 active torsions:
REMARK  status: ('A' for Active; 'I' for Inactive)
REMARK    1  A    between atoms: C_2  and  C_3 
REMARK    2  A    between atoms: C_3  and  C_4 
REMARK    3  A    between atoms: C_4  and  C_5 
REMARK    4  A    between atoms: C_5  and  C_6 
REMARK    5  A    between atoms: C_6  and  C_7 
REMARK    6  A    between atoms: C_7  and  C_8 
REMARK    7  A    between atoms: C_8  and  C_9 
REMARK    8  A    between atoms: C_9  and  C_10 
REMARK    9  A    between atoms: C_10  and  O_11 
ROOT
HETATM    1  C   LIG     1      17.230  35.187  21.983  1.00  0.00     0.000 C 
ENDROOT
BRANCH   1   2
HETATM    2  C   LIG     1      16.025  35.231  21.031  1.00  0.00     0.000 C 
BRANCH   2   3
HETATM    3  C   LIG     1      15.525  33.812  20.718  1.00  0.00     0.000 C 
BRANCH   3   4
HETATM    4  C   LIG     1      15.338  33.568  19.212  1.00  0.00    -0.000 C 
BRANCH   4   5
HETATM    5  C   LIG     1      15.129  32.085  18.874  1.00  0.00    -0.005 C 
HETATM    6  C   LIG     1      14.845  31.270  20.132  1.00  0.00     0.005 C 
ENDBRANCH   4   5
ENDBRANCH   3   4
ENDBRANCH   2   3
ENDBRANCH   1   2
BRANCH   1   7
HETATM    7  C   LIG     1      16.925  35.806  23.357  1.00  0.00     0.000 C 
BRANCH   7   8
HETATM    8  C   LIG     1      17.186  34.829  24.516  1.00  0.00     0.002 C 
BRANCH   8   9
HETATM    9  C   LIG     1      17.774  35.525  25.756  1.00  0.00     0.026 C 
BRANCH   9  10
HETATM   10  C   LIG     1      17.621  37.049  25.736  1.00  0.00     0.164 C 
BRANCH  10  11
HETATM   11  O   LIG     1      18.877  37.661  25.622  1.00  0.00    -0.401 OA
HETATM   12  H   LIG     1      19.307  37.259  24.822  1.00  0.00     0.209 HD
ENDBRANCH  10  11
ENDBRANCH   9  10
ENDBRANCH   8   9
ENDBRANCH   7   8
ENDBRANCH   1   7
TORSDOF 9
ENDMDL
MODEL 16
REMARK VINA RESULT:      -4.8      3.138      4.118
REMARK  9 active torsions:
REMARK  status: ('A' for Active; 'I' for Inactive)
REMARK    1  A    between atoms: C_2  and  C_3 
REMARK    2  A    between atoms: C_3  and  C_4 
REMARK    3  A    between atoms: C_4  and  C_5 
REMARK    4  A    between atoms: C_5  and  C_6 
REMARK    5  A    between atoms: C_6  and  C_7 
REMARK    6  A    between atoms: C_7  and  C_8 
REMARK    7  A    between atoms: C_8  and  C_9 
REMARK    8  A    between atoms: C_9  and  C_10 
REMARK    9  A    between atoms: C_10  and  O_11 
ROOT
HETATM    1  C   LIG     1      18.061  38.338  21.258  1.00  0.00     0.000 C 
ENDROOT
BRANCH   1   2
HETATM    2  C   LIG     1      17.796  36.882  20.846  1.00  0.00     0.000 C 
BRANCH   2   3
HETATM    3  C   LIG     1      16.887  36.182  21.867  1.00  0.00     0.000 C 
BRANCH   3   4
HETATM    4  C   LIG     1      15.485  35.889  21.310  1.00  0.00    -0.000 C 
BRANCH   4   5
HETATM    5  C   LIG     1      15.098  34.408  21.431  1.00  0.00    -0.005 C 
HETATM    6  C   LIG     1      15.671  33.594  20.274  1.00  0.00     0.005 C 
ENDBRANCH   4   5
ENDBRANCH   3   4
ENDBRANCH   2   3
ENDBRANCH   1   2
BRANCH   1   7
HETATM    7  C   LIG     1      19.242  38.966  20.499  1.00  0.00     0.000 C 
BRANCH   7   8
HETATM    8  C   LIG     1      19.273  38.560  19.015  1.00  0.00     0.002 C 
BRANCH   8   9
HETATM    9  C   LIG     1      18.452  39.510  18.125  1.00  0.00     0.026 C 
BRANCH   9  10
HETATM   10  C   LIG     1      19.035  39.691  16.719  1.00  0.00     0.164 C 
BRANCH  10  11
HETATM   11  O   LIG     1      18.242  39.023  15.776  1.00  0.00    -0.401 OA
HETATM   12  H   LIG     1      18.831  38.344  15.354  1.00  0.00     0.209 HD
ENDBRANCH  10  11
ENDBRANCH   9  10
ENDBRANCH   8   9
ENDBRANCH   7   8
ENDBRANCH   1   7
TORSDOF 9
ENDMDL
MODEL 17
REMARK VINA RESULT:      -4.8      8.531      9.677
REMARK  9 active torsions:
REMARK  status: ('A' for Active; 'I' for Inactive)
REMARK    1  A    between atoms: C_2  and  C_3 
REMARK    2  A    between atoms: C_3  and  C_4 
REMARK    3  A    between atoms: C_4  and  C_5 
REMARK    4  A    between atoms: C_5  and  C_6 
REMARK    5  A    between atoms: C_6  and  C_7 
REMARK    6  A    between atoms: C_7  and  C_8 
REMARK    7  A    between atoms: C_8  and  C_9 
REMARK    8  A    between atoms: C_9  and  C_10 
REMARK    9  A    between atoms: C_10  and  O_11 
ROOT
HETATM    1  C   LIG     1      13.722  30.409  14.972  1.00  0.00     0.000 C 
ENDROOT
BRANCH   1   2
HETATM    2  C   LIG     1      13.394  30.530  16.468  1.00  0.00     0.000 C 
BRANCH   2   3
HETATM    3  C   LIG     1      13.177  31.999  16.862  1.00  0.00     0.000 C 
BRANCH   3   4
HETATM    4  C   LIG     1      14.358  32.581  17.655  1.00  0.00    -0.000 C 
BRANCH   4   5
HETATM    5  C   LIG     1      14.723  31.730  18.880  1.00  0.00    -0.005 C 
HETATM    6  C   LIG     1      15.482  32.555  19.915  1.00  0.00     0.005 C 
ENDBRANCH   4   5
ENDBRANCH   3   4
ENDBRANCH   2   3
ENDBRANCH   1   2
BRANCH   1   7
HETATM    7  C   LIG     1      15.234  30.372  14.695  1.00  0.00     0.000 C 
BRANCH   7   8
HETATM    8  C   LIG     1      15.780  31.728  14.215  1.00  0.00     0.002 C 
BRANCH   8   9
HETATM    9  C   LIG     1      16.829  32.318  15.175  1.00  0.00     0.026 C 
BRANCH   9  10
HETATM   10  C   LIG     1      17.334  33.703  14.757  1.00  0.00     0.164 C 
BRANCH  10  11
HETATM   11  O   LIG     1      16.847  34.681  15.634  1.00  0.00    -0.401 OA
HETATM   12  H   LIG     1      16.518  35.423  15.062  1.00  0.00     0.209 HD
ENDBRANCH  10  11
ENDBRANCH   9  10
ENDBRANCH   8   9
ENDBRANCH   7   8
ENDBRANCH   1   7
TORSDOF 9
ENDMDL
MODEL 18
REMARK VINA RESULT:      -4.8      9.520     11.462
REMARK  9 active torsions:
REMARK  status: ('A' for Active; 'I' for Inactive)
REMARK    1  A    between atoms: C_2  and  C_3 
REMARK    2  A    between atoms: C_3  and  C_4 
REMARK    3  A    between atoms: C_4  and  C_5 
REMARK    4  A    between atoms: C_5  and  C_6 
REMARK    5  A    between atoms: C_6  and  C_7 
REMARK    6  A    between atoms: C_7  and  C_8 
REMARK    7  A    between atoms: C_8  and  C_9 
REMARK    8  A    between atoms: C_9  and  C_10 
REMARK    9  A    between atoms: C_10  and  O_11 
ROOT
HETATM    1  C   LIG     1      13.046  30.460  15.158  1.00  0.00     0.000 C 
ENDROOT
BRANCH   1   2
HETATM    2  C   LIG     1      13.945  29.548  14.310  1.00  0.00     0.000 C 
BRANCH   2   3
HETATM    3  C   LIG     1      15.398  30.045  14.325  1.00  0.00     0.000 C 
BRANCH   3   4
HETATM    4  C   LIG     1      15.595  31.327  13.501  1.00  0.00    -0.000 C 
BRANCH   4   5
HETATM    5  C   LIG     1      16.368  32.410  14.267  1.00  0.00    -0.005 C 
HETATM    6  C   LIG     1      17.331  33.153  13.345  1.00  0.00     0.005 C 
ENDBRANCH   4   5
ENDBRANCH   3   4
ENDBRANCH   2   3
ENDBRANCH   1   2
BRANCH   1   7
HETATM    7  C   LIG     1      13.509  30.559  16.621  1.00  0.00     0.000 C 
BRANCH   7   8
HETATM    8  C   LIG     1      13.625  32.013  17.108  1.00  0.00     0.002 C 
BRANCH   8   9
HETATM    9  C   LIG     1      15.024  32.345  17.657  1.00  0.00     0.026 C 
BRANCH   9  10
HETATM   10  C   LIG     1      15.067  32.491  19.182  1.00  0.00     0.164 C 
BRANCH  10  11
HETATM   11  O   LIG     1      14.354  31.449  19.789  1.00  0.00    -0.401 OA
HETATM   12  H   LIG     1      14.406  30.679  19.164  1.00  0.00     0.209 HD
ENDBRANCH  10  11
ENDBRANCH   9  10
ENDBRANCH   8   9
ENDBRANCH   7   8
ENDBRANCH   1   7
TORSDOF 9
ENDMDL
MODEL 19
REMARK VINA RESULT:      -4.8      1.652      2.355
REMARK  9 active torsions:
REMARK  status: ('A' for Active; 'I' for Inactive)
REMARK    1  A    between atoms: C_2  and  C_3 
REMARK    2  A    between atoms: C_3  and  C_4 
REMARK    3  A    between atoms: C_4  and  C_5 
REMARK    4  A    between atoms: C_5  and  C_6 
REMARK    5  A    between atoms: C_6  and  C_7 
REMARK    6  A    between atoms: C_7  and  C_8 
REMARK    7  A    between atoms: C_8  and  C_9 
REMARK    8  A    between atoms: C_9  and  C_10 
REMARK    9  A    between atoms: C_10  and  O_11 
ROOT
HETATM    1  C   LIG     1      17.740  38.984  21.533  1.00  0.00     0.000 C 
ENDROOT
BRANCH   1   2
HETATM    2  C   LIG     1      17.283  37.810  22.413  1.00  0.00     0.000 C 
BRANCH   2   3
HETATM    3  C   LIG     1      16.541  38.317  23.659  1.00  0.00     0.000 C 
BRANCH   3   4
HETATM    4  C   LIG     1      16.814  37.455  24.902  1.00  0.00    -0.000 C 
BRANCH   4   5
HETATM    5  C   LIG     1      18.290  37.472  25.322  1.00  0.00    -0.005 C 
HETATM    6  C   LIG     1      18.582  36.384  26.350  1.00  0.00     0.005 C 
ENDBRANCH   4   5
ENDBRANCH   3   4
ENDBRANCH   2   3
ENDBRANCH   1   2
BRANCH   1   7
HETATM    7  C   LIG     1      19.267  39.165  21.527  1.00  0.00     0.000 C 
BRANCH   7   8
HETATM    8  C   LIG     1      19.861  39.121  20.109  1.00  0.00     0.002 C 
BRANCH   8   9
HETATM    9  C   LIG     1      19.034  38.250  19.147  1.00  0.00     0.026 C 
BRANCH   9  10
HETATM   10  C   LIG     1      19.155  36.747  19.419  1.00  0.00     0.164 C 
BRANCH  10  11
HETATM   11  O   LIG     1      17.886  36.152  19.428  1.00  0.00    -0.401 OA
HETATM   12  H   LIG     1      17.891  35.505  20.182  1.00  0.00     0.209 HD
ENDBRANCH  10  11
ENDBRANCH   9  10
ENDBRANCH   8   9
ENDBRANCH   7   8
ENDBRANCH   1   7
TORSDOF 9
ENDMDL
MODEL 20
REMARK VINA RESULT:      -4.7      9.868     11.107
REMARK  9 active torsions:
REMARK  status: ('A' for Active; 'I' for Inactive)
REMARK    1  A    between atoms: C_2  and  C_3 
REMARK    2  A    between atoms: C_3  and  C_4 
REMARK    3  A    between atoms: C_4  and  C_5 
REMARK    4  A    between atoms: C_5  and  C_6 
REMARK    5  A    between atoms: C_6  and  C_7 
REMARK    6  A    between atoms: C_7  and  C_8 
REMARK    7  A    between atoms: C_8  and  C_9 
REMARK    8  A    between atoms: C_9  and  C_10 
REMARK    9  A    between atoms: C_10  and  O_11 
ROOT
HETATM    1  C   LIG     1      15.887  32.091  13.663  1.00  0.00     0.000 C 
ENDROOT
BRANCH   1   2
HETATM    2  C   LIG     1      15.400  30.641  13.509  1.00  0.00     0.000 C 
BRANCH   2   3
HETATM    3  C   LIG     1      14.883  30.094  14.848  1.00  0.00     0.000 C 
BRANCH   3   4
HETATM    4  C   LIG     1      13.348  30.061  14.922  1.00  0.00    -0.000 C 
BRANCH   4   5
HETATM    5  C   LIG     1      12.800  30.783  16.162  1.00  0.00    -0.005 C 
HETATM    6  C   LIG     1      13.931  31.375  16.998  1.00  0.00     0.005 C 
ENDBRANCH   4   5
ENDBRANCH   3   4
ENDBRANCH   2   3
ENDBRANCH   1   2
BRANCH   1   7
HETATM    7  C   LIG     1      16.755  32.296  14.916  1.00  0.00     0.000 C 
BRANCH   7   8
HETATM    8  C   LIG     1      17.964  33.211  14.653  1.00  0.00     0.002 C 
BRANCH   8   9
HETATM    9  C   LIG     1      17.857  33.965  13.316  1.00  0.00     0.026 C 
BRANCH   9  10
HETATM   10  C   LIG     1      19.000  33.658  12.343  1.00  0.00     0.164 C 
BRANCH  10  11
HETATM   11  O   LIG     1      18.725  32.486  11.627  1.00  0.00    -0.401 OA
HETATM   12  H   LIG     1      18.133  31.940  12.209  1.00  0.00     0.209 HD
ENDBRANCH  10  11
ENDBRANCH   9  10
ENDBRANCH   8   9
ENDBRANCH   7   8
ENDBRANCH   1   7
TORSDOF 9
ENDMDL
