REMARK  13 active torsions:
REMARK  status: ('A' for Active; 'I' for Inactive)
REMARK    1  A    between atoms: C_2  and  C_3 
REMARK    2  A    between atoms: C_3  and  C_4 
REMARK    3  A    between atoms: C_4  and  C_5 
REMARK    4  A    between atoms: C_5  and  C_6 
REMARK    5  A    between atoms: C_6  and  C_7 
REMARK    6  A    between atoms: C_7  and  C_8 
REMARK    7  A    between atoms: C_8  and  C_9 
REMARK    8  A    between atoms: C_9  and  C_10 
REMARK    9  A    between atoms: C_10  and  C_11 
REMARK   10  A    between atoms: C_11  and  C_12 
REMARK   11  A    between atoms: C_12  and  C_13 
REMARK   12  A    between atoms: C_13  and  C_14 
REMARK   13  A    between atoms: C_14  and  O_15 
ROOT
HETATM    1  C   LIG     1      -0.518  -0.177  -0.335  1.00  0.00     0.000 C 
ENDROOT
BRANCH   1   2
HETATM    2  C   LIG     1       0.935  -0.631  -0.547  1.00  0.00     0.000 C 
BRANCH   2   3
HETATM    3  C   LIG     1       1.688  -0.838   0.779  1.00  0.00     0.000 C 
BRANCH   3   4
HETATM    4  C   LIG     1       3.144  -1.284   0.568  1.00  0.00     0.000 C 
BRANCH   4   5
HETATM    5  C   LIG     1       4.050  -0.144   0.079  1.00  0.00     0.000 C 
BRANCH   5   6
HETATM    6  C   LIG     1       5.513  -0.604  -0.002  1.00  0.00    -0.000 C 
BRANCH   6   7
HETATM    7  C   LIG     1       6.471   0.536  -0.382  1.00  0.00    -0.005 C 
HETATM    8  C   LIG     1       6.321   0.974  -1.839  1.00  0.00     0.005 C 
ENDBRANCH   6   7
ENDBRANCH   5   6
ENDBRANCH   4   5
ENDBRANCH   3   4
ENDBRANCH   2   3
ENDBRANCH   1   2
BRANCH   1   9
HETATM    9  C   LIG     1      -1.414  -1.297   0.225  1.00  0.00     0.000 C 
BRANCH   9  10
HETATM   10  C   LIG     1      -2.907  -0.933   0.180  1.00  0.00     0.000 C 
BRANCH  10  11
HETATM   11  C   LIG     1      -3.265   0.208   1.148  1.00  0.00     0.000 C 
BRANCH  11  12
HETATM   12  C   LIG     1      -4.783   0.397   1.302  1.00  0.00     0.002 C 
BRANCH  12  13
HETATM   13  C   LIG     1      -5.439   0.963   0.032  1.00  0.00     0.026 C 
BRANCH  13  14
HETATM   14  C   LIG     1      -6.927   1.248   0.244  1.00  0.00     0.164 C 
BRANCH  14  15
HETATM   15  O   LIG     1      -7.093   2.285   1.171  1.00  0.00    -0.401 OA
HETATM   16  H   LIG     1      -8.072   2.414   1.266  1.00  0.00     0.209 HD
ENDBRANCH  14  15
ENDBRANCH  13  14
ENDBRANCH  12  13
ENDBRANCH  11  12
ENDBRANCH  10  11
ENDBRANCH   9  10
ENDBRANCH   1   9
TORSDOF 13
