REMARK  9 active torsions:
REMARK  status: ('A' for Active; 'I' for Inactive)
REMARK    1  A    between atoms: C_2  and  C_3 
REMARK    2  A    between atoms: C_3  and  C_4 
REMARK    3  A    between atoms: C_4  and  C_5 
REMARK    4  A    between atoms: C_5  and  C_6 
REMARK    5  A    between atoms: C_6  and  C_7 
REMARK    6  A    between atoms: C_7  and  C_8 
REMARK    7  A    between atoms: C_8  and  C_9 
REMARK    8  A    between atoms: C_9  and  C_10 
REMARK    9  A    between atoms: C_10  and  O_11 
ROOT
HETATM    1  C   LIG     1      -0.484  -0.844  -0.976  1.00  0.00     0.000 C 
ENDROOT
BRANCH   1   2
HETATM    2  C   LIG     1       0.745  -0.313  -0.222  1.00  0.00     0.000 C 
BRANCH   2   3
HETATM    3  C   LIG     1       1.966  -1.213  -0.465  1.00  0.00     0.000 C 
BRANCH   3   4
HETATM    4  C   LIG     1       3.181  -0.805   0.383  1.00  0.00    -0.000 C 
BRANCH   4   5
HETATM    5  C   LIG     1       3.810   0.516  -0.082  1.00  0.00    -0.005 C 
HETATM    6  C   LIG     1       5.089   0.819   0.693  1.00  0.00     0.005 C 
ENDBRANCH   4   5
ENDBRANCH   3   4
ENDBRANCH   2   3
ENDBRANCH   1   2
BRANCH   1   7
HETATM    7  C   LIG     1      -1.692   0.103  -0.886  1.00  0.00     0.000 C 
BRANCH   7   8
HETATM    8  C   LIG     1      -2.351   0.090   0.504  1.00  0.00     0.002 C 
BRANCH   8   9
HETATM    9  C   LIG     1      -3.556   1.043   0.597  1.00  0.00     0.026 C 
BRANCH   9  10
HETATM   10  C   LIG     1      -4.790   0.550  -0.166  1.00  0.00     0.164 C 
BRANCH  10  11
HETATM   11  O   LIG     1      -5.208  -0.689   0.337  1.00  0.00    -0.401 OA
HETATM   12  H   LIG     1      -6.002  -0.950  -0.200  1.00  0.00     0.209 HD
ENDBRANCH  10  11
ENDBRANCH   9  10
ENDBRANCH   8   9
ENDBRANCH   7   8
ENDBRANCH   1   7
TORSDOF 9
