REMARK  10 active torsions:
REMARK  status: ('A' for Active; 'I' for Inactive)
REMARK    1  A    between atoms: C_2  and  C_4 
REMARK    2  A    between atoms: C_2  and  O_3 
REMARK    3  A    between atoms: C_4  and  C_5 
REMARK    4  A    between atoms: C_5  and  C_6 
REMARK    5  A    between atoms: C_6  and  C_7 
REMARK    6  A    between atoms: C_7  and  C_8 
REMARK    7  A    between atoms: C_8  and  C_9 
REMARK    8  A    between atoms: C_9  and  C_10 
REMARK    9  A    between atoms: C_10  and  C_11 
REMARK   10  A    between atoms: C_11  and  C_12 
ROOT
HETATM    1  C   LIG     1      -1.977  -0.389   0.607  1.00  0.00     0.001 C 
ENDROOT
BRANCH   1   2
HETATM    2  C   LIG     1      -3.387  -0.913   0.297  1.00  0.00     0.010 C 
BRANCH   2   3
HETATM    3  C   LIG     1      -4.483   0.053   0.765  1.00  0.00     0.110 C 
BRANCH   3   4
HETATM    4  C   LIG     1      -4.496   1.316  -0.046  1.00  0.00     0.139 C 
HETATM    5  O   LIG     1      -5.066   1.334  -1.169  1.00  0.00    -0.650 OA
BRANCH   4   6
HETATM    6  O   LIG     1      -3.853   2.462   0.413  1.00  0.00    -0.776 OA
HETATM    7  H   LIG     1      -3.370   2.473   1.303  1.00  0.00     0.167 HD
ENDBRANCH   4   6
ENDBRANCH   3   4
ENDBRANCH   2   3
ENDBRANCH   1   2
BRANCH   1   8
HETATM    8  C   LIG     1      -0.907  -1.407   0.182  1.00  0.00     0.000 C 
BRANCH   8   9
HETATM    9  C   LIG     1       0.513  -0.981   0.589  1.00  0.00     0.000 C 
BRANCH   9  10
HETATM   10  C   LIG     1       1.055   0.171  -0.277  1.00  0.00     0.000 C 
BRANCH  10  11
HETATM   11  C   LIG     1       2.479   0.590   0.123  1.00  0.00     0.004 C 
BRANCH  11  12
HETATM   12  C   LIG     1       3.544  -0.421  -0.331  1.00  0.00     0.026 C 
BRANCH  12  13
HETATM   13  C   LIG     1       4.930   0.062  -0.001  1.00  0.00    -0.037 C 
HETATM   14  C   LIG     1       5.490   1.090  -0.645  1.00  0.00     0.007 C 
ENDBRANCH  12  13
ENDBRANCH  11  12
ENDBRANCH  10  11
ENDBRANCH   9  10
ENDBRANCH   8   9
ENDBRANCH   1   8
TORSDOF 10
