MODEL 1
REMARK VINA RESULT:      -6.3      0.000      0.000
REMARK  11 active torsions:
REMARK  status: ('A' for Active; 'I' for Inactive)
REMARK    1  A    between atoms: C_2  and  C_3 
REMARK    2  A    between atoms: C_3  and  C_4 
REMARK    3  A    between atoms: C_4  and  C_5 
REMARK    4  A    between atoms: C_5  and  C_6 
REMARK    5  A    between atoms: C_6  and  C_7 
REMARK    6  A    between atoms: C_7  and  C_8 
REMARK    7  A    between atoms: C_8  and  C_9 
REMARK    8  A    between atoms: C_9  and  C_10 
REMARK    9  A    between atoms: C_10  and  C_11 
REMARK   10  A    between atoms: C_11  and  C_12 
REMARK   11  A    between atoms: C_12  and  O_13 
ROOT
HETATM    1  C   LIG     1      16.042  36.620  22.337  1.00  0.00     0.000 C 
ENDROOT
BRANCH   1   2
HETATM    2  C   LIG     1      16.235  38.022  22.936  1.00  0.00     0.000 C 
BRANCH   2   3
HETATM    3  C   LIG     1      17.543  38.153  23.734  1.00  0.00     0.000 C 
BRANCH   3   4
HETATM    4  C   LIG     1      17.348  37.881  25.235  1.00  0.00     0.000 C 
BRANCH   4   5
HETATM    5  C   LIG     1      18.548  37.158  25.873  1.00  0.00    -0.000 C 
BRANCH   5   6
HETATM    6  C   LIG     1      18.224  35.787  26.497  1.00  0.00    -0.005 C 
HETATM    7  C   LIG     1      17.395  34.892  25.579  1.00  0.00     0.005 C 
ENDBRANCH   5   6
ENDBRANCH   4   5
ENDBRANCH   3   4
ENDBRANCH   2   3
ENDBRANCH   1   2
BRANCH   1   8
HETATM    8  C   LIG     1      17.366  36.077  21.778  1.00  0.00     0.000 C 
BRANCH   8   9
HETATM    9  C   LIG     1      17.482  36.254  20.256  1.00  0.00     0.000 C 
BRANCH   9  10
HETATM   10  C   LIG     1      18.892  36.688  19.817  1.00  0.00     0.002 C 
BRANCH  10  11
HETATM   11  C   LIG     1      18.942  38.151  19.353  1.00  0.00     0.026 C 
BRANCH  11  12
HETATM   12  C   LIG     1      20.193  38.885  19.841  1.00  0.00     0.164 C 
BRANCH  12  13
HETATM   13  O   LIG     1      20.749  39.612  18.782  1.00  0.00    -0.401 OA
HETATM   14  H   LIG     1      20.165  39.444  17.996  1.00  0.00     0.209 HD
ENDBRANCH  12  13
ENDBRANCH  11  12
ENDBRANCH  10  11
ENDBRANCH   9  10
ENDBRANCH   8   9
ENDBRANCH   1   8
TORSDOF 11
ENDMDL
MODEL 2
REMARK VINA RESULT:      -6.0      1.764      2.201
REMARK  11 active torsions:
REMARK  status: ('A' for Active; 'I' for Inactive)
REMARK    1  A    between atoms: C_2  and  C_3 
REMARK    2  A    between atoms: C_3  and  C_4 
REMARK    3  A    between atoms: C_4  and  C_5 
REMARK    4  A    between atoms: C_5  and  C_6 
REMARK    5  A    between atoms: C_6  and  C_7 
REMARK    6  A    between atoms: C_7  and  C_8 
REMARK    7  A    between atoms: C_8  and  C_9 
REMARK    8  A    between atoms: C_9  and  C_10 
REMARK    9  A    between atoms: C_10  and  C_11 
REMARK   10  A    between atoms: C_11  and  C_12 
REMARK   11  A    between atoms: C_12  and  O_13 
ROOT
HETATM    1  C   LIG     1      17.417  38.998  22.303  1.00  0.00     0.000 C 
ENDROOT
BRANCH   1   2
HETATM    2  C   LIG     1      17.386  37.833  23.303  1.00  0.00     0.000 C 
BRANCH   2   3
HETATM    3  C   LIG     1      18.225  38.106  24.562  1.00  0.00     0.000 C 
BRANCH   3   4
HETATM    4  C   LIG     1      17.602  37.497  25.830  1.00  0.00     0.000 C 
BRANCH   4   5
HETATM    5  C   LIG     1      18.578  36.591  26.601  1.00  0.00    -0.000 C 
BRANCH   5   6
HETATM    6  C   LIG     1      18.371  35.080  26.386  1.00  0.00    -0.005 C 
HETATM    7  C   LIG     1      17.189  34.762  25.472  1.00  0.00     0.005 C 
ENDBRANCH   5   6
ENDBRANCH   4   5
ENDBRANCH   3   4
ENDBRANCH   2   3
ENDBRANCH   1   2
BRANCH   1   8
HETATM    8  C   LIG     1      18.044  38.559  20.971  1.00  0.00     0.000 C 
BRANCH   8   9
HETATM    9  C   LIG     1      19.454  39.133  20.762  1.00  0.00     0.000 C 
BRANCH   9  10
HETATM   10  C   LIG     1      19.971  38.924  19.327  1.00  0.00     0.002 C 
BRANCH  10  11
HETATM   11  C   LIG     1      18.840  38.643  18.327  1.00  0.00     0.026 C 
BRANCH  11  12
HETATM   12  C   LIG     1      18.863  39.592  17.126  1.00  0.00     0.164 C 
BRANCH  12  13
HETATM   13  O   LIG     1      18.431  38.907  15.984  1.00  0.00    -0.401 OA
HETATM   14  H   LIG     1      18.245  37.975  16.275  1.00  0.00     0.209 HD
ENDBRANCH  12  13
ENDBRANCH  11  12
ENDBRANCH  10  11
ENDBRANCH   9  10
ENDBRANCH   8   9
ENDBRANCH   1   8
TORSDOF 11
ENDMDL
MODEL 3
REMARK VINA RESULT:      -6.0      3.648      4.518
REMARK  11 active torsions:
REMARK  status: ('A' for Active; 'I' for Inactive)
REMARK    1  A    between atoms: C_2  and  C_3 
REMARK    2  A    between atoms: C_3  and  C_4 
REMARK    3  A    between atoms: C_4  and  C_5 
REMARK    4  A    between atoms: C_5  and  C_6 
REMARK    5  A    between atoms: C_6  and  C_7 
REMARK    6  A    between atoms: C_7  and  C_8 
REMARK    7  A    between atoms: C_8  and  C_9 
REMARK    8  A    between atoms: C_9  and  C_10 
REMARK    9  A    between atoms: C_10  and  C_11 
REMARK   10  A    between atoms: C_11  and  C_12 
REMARK   11  A    between atoms: C_12  and  O_13 
ROOT
HETATM    1  C   LIG     1      17.606  37.080  21.262  1.00  0.00     0.000 C 
ENDROOT
BRANCH   1   2
HETATM    2  C   LIG     1      17.421  37.990  22.487  1.00  0.00     0.000 C 
BRANCH   2   3
HETATM    3  C   LIG     1      16.703  37.285  23.649  1.00  0.00     0.000 C 
BRANCH   3   4
HETATM    4  C   LIG     1      17.108  37.848  25.022  1.00  0.00     0.000 C 
BRANCH   4   5
HETATM    5  C   LIG     1      18.440  37.271  25.535  1.00  0.00    -0.000 C 
BRANCH   5   6
HETATM    6  C   LIG     1      18.307  36.248  26.679  1.00  0.00    -0.005 C 
HETATM    7  C   LIG     1      17.973  34.841  26.189  1.00  0.00     0.005 C 
ENDBRANCH   5   6
ENDBRANCH   4   5
ENDBRANCH   3   4
ENDBRANCH   2   3
ENDBRANCH   1   2
BRANCH   1   8
HETATM    8  C   LIG     1      17.046  35.676  21.535  1.00  0.00     0.000 C 
BRANCH   8   9
HETATM    9  C   LIG     1      15.760  35.389  20.744  1.00  0.00     0.000 C 
BRANCH   9  10
HETATM   10  C   LIG     1      15.206  33.977  21.008  1.00  0.00     0.002 C 
BRANCH  10  11
HETATM   11  C   LIG     1      15.587  32.977  19.906  1.00  0.00     0.026 C 
BRANCH  11  12
HETATM   12  C   LIG     1      14.814  31.661  20.007  1.00  0.00     0.164 C 
BRANCH  12  13
HETATM   13  O   LIG     1      14.024  31.496  18.863  1.00  0.00    -0.401 OA
HETATM   14  H   LIG     1      14.067  30.530  18.634  1.00  0.00     0.209 HD
ENDBRANCH  12  13
ENDBRANCH  11  12
ENDBRANCH  10  11
ENDBRANCH   9  10
ENDBRANCH   8   9
ENDBRANCH   1   8
TORSDOF 11
ENDMDL
MODEL 4
REMARK VINA RESULT:      -5.9      2.863      6.050
REMARK  11 active torsions:
REMARK  status: ('A' for Active; 'I' for Inactive)
REMARK    1  A    between atoms: C_2  and  C_3 
REMARK    2  A    between atoms: C_3  and  C_4 
REMARK    3  A    between atoms: C_4  and  C_5 
REMARK    4  A    between atoms: C_5  and  C_6 
REMARK    5  A    between atoms: C_6  and  C_7 
REMARK    6  A    between atoms: C_7  and  C_8 
REMARK    7  A    between atoms: C_8  and  C_9 
REMARK    8  A    between atoms: C_9  and  C_10 
REMARK    9  A    between atoms: C_10  and  C_11 
REMARK   10  A    between atoms: C_11  and  C_12 
REMARK   11  A    between atoms: C_12  and  O_13 
ROOT
HETATM    1  C   LIG     1      16.893  36.294  22.958  1.00  0.00     0.000 C 
ENDROOT
BRANCH   1   2
HETATM    2  C   LIG     1      16.070  36.214  21.663  1.00  0.00     0.000 C 
BRANCH   2   3
HETATM    3  C   LIG     1      16.930  35.890  20.430  1.00  0.00     0.000 C 
BRANCH   3   4
HETATM    4  C   LIG     1      18.337  36.506  20.515  1.00  0.00     0.000 C 
BRANCH   4   5
HETATM    5  C   LIG     1      18.763  37.208  19.213  1.00  0.00    -0.000 C 
BRANCH   5   6
HETATM    6  C   LIG     1      19.214  38.671  19.381  1.00  0.00    -0.005 C 
HETATM    7  C   LIG     1      18.808  39.272  20.725  1.00  0.00     0.005 C 
ENDBRANCH   5   6
ENDBRANCH   4   5
ENDBRANCH   3   4
ENDBRANCH   2   3
ENDBRANCH   1   2
BRANCH   1   8
HETATM    8  C   LIG     1      16.845  37.711  23.549  1.00  0.00     0.000 C 
BRANCH   8   9
HETATM    9  C   LIG     1      17.938  37.950  24.603  1.00  0.00     0.000 C 
BRANCH   9  10
HETATM   10  C   LIG     1      17.549  37.410  25.991  1.00  0.00     0.002 C 
BRANCH  10  11
HETATM   11  C   LIG     1      18.581  36.418  26.549  1.00  0.00     0.026 C 
BRANCH  11  12
HETATM   12  C   LIG     1      18.247  34.963  26.210  1.00  0.00     0.164 C 
BRANCH  12  13
HETATM   13  O   LIG     1      16.870  34.758  26.354  1.00  0.00    -0.401 OA
HETATM   14  H   LIG     1      16.606  35.229  27.187  1.00  0.00     0.209 HD
ENDBRANCH  12  13
ENDBRANCH  11  12
ENDBRANCH  10  11
ENDBRANCH   9  10
ENDBRANCH   8   9
ENDBRANCH   1   8
TORSDOF 11
ENDMDL
MODEL 5
REMARK VINA RESULT:      -5.7      2.253      5.741
REMARK  11 active torsions:
REMARK  status: ('A' for Active; 'I' for Inactive)
REMARK    1  A    between atoms: C_2  and  C_3 
REMARK    2  A    between atoms: C_3  and  C_4 
REMARK    3  A    between atoms: C_4  and  C_5 
REMARK    4  A    between atoms: C_5  and  C_6 
REMARK    5  A    between atoms: C_6  and  C_7 
REMARK    6  A    between atoms: C_7  and  C_8 
REMARK    7  A    between atoms: C_8  and  C_9 
REMARK    8  A    between atoms: C_9  and  C_10 
REMARK    9  A    between atoms: C_10  and  C_11 
REMARK   10  A    between atoms: C_11  and  C_12 
REMARK   11  A    between atoms: C_12  and  O_13 
ROOT
HETATM    1  C   LIG     1      16.700  35.836  22.963  1.00  0.00     0.000 C 
ENDROOT
BRANCH   1   2
HETATM    2  C   LIG     1      16.171  35.143  21.697  1.00  0.00     0.000 C 
BRANCH   2   3
HETATM    3  C   LIG     1      16.763  35.729  20.405  1.00  0.00     0.000 C 
BRANCH   3   4
HETATM    4  C   LIG     1      17.905  36.723  20.678  1.00  0.00     0.000 C 
BRANCH   4   5
HETATM    5  C   LIG     1      18.801  36.957  19.448  1.00  0.00    -0.000 C 
BRANCH   5   6
HETATM    6  C   LIG     1      19.722  38.188  19.538  1.00  0.00    -0.005 C 
HETATM    7  C   LIG     1      19.102  39.343  20.322  1.00  0.00     0.005 C 
ENDBRANCH   5   6
ENDBRANCH   4   5
ENDBRANCH   3   4
ENDBRANCH   2   3
ENDBRANCH   1   2
BRANCH   1   8
HETATM    8  C   LIG     1      17.434  34.835  23.868  1.00  0.00     0.000 C 
BRANCH   8   9
HETATM    9  C   LIG     1      17.032  34.969  25.345  1.00  0.00     0.000 C 
BRANCH   9  10
HETATM   10  C   LIG     1      18.249  35.035  26.285  1.00  0.00     0.002 C 
BRANCH  10  11
HETATM   11  C   LIG     1      18.612  36.474  26.682  1.00  0.00     0.026 C 
BRANCH  11  12
HETATM   12  C   LIG     1      17.675  37.513  26.060  1.00  0.00     0.164 C 
BRANCH  12  13
HETATM   13  O   LIG     1      18.350  38.196  25.041  1.00  0.00    -0.401 OA
HETATM   14  H   LIG     1      18.314  37.607  24.242  1.00  0.00     0.209 HD
ENDBRANCH  12  13
ENDBRANCH  11  12
ENDBRANCH  10  11
ENDBRANCH   9  10
ENDBRANCH   8   9
ENDBRANCH   1   8
TORSDOF 11
ENDMDL
MODEL 6
REMARK VINA RESULT:      -5.7      2.460      3.317
REMARK  11 active torsions:
REMARK  status: ('A' for Active; 'I' for Inactive)
REMARK    1  A    between atoms: C_2  and  C_3 
REMARK    2  A    between atoms: C_3  and  C_4 
REMARK    3  A    between atoms: C_4  and  C_5 
REMARK    4  A    between atoms: C_5  and  C_6 
REMARK    5  A    between atoms: C_6  and  C_7 
REMARK    6  A    between atoms: C_7  and  C_8 
REMARK    7  A    between atoms: C_8  and  C_9 
REMARK    8  A    between atoms: C_9  and  C_10 
REMARK    9  A    between atoms: C_10  and  C_11 
REMARK   10  A    between atoms: C_11  and  C_12 
REMARK   11  A    between atoms: C_12  and  O_13 
ROOT
HETATM    1  C   LIG     1      18.184  38.209  22.239  1.00  0.00     0.000 C 
ENDROOT
BRANCH   1   2
HETATM    2  C   LIG     1      16.816  38.753  22.678  1.00  0.00     0.000 C 
BRANCH   2   3
HETATM    3  C   LIG     1      16.224  37.984  23.871  1.00  0.00     0.000 C 
BRANCH   3   4
HETATM    4  C   LIG     1      17.219  36.981  24.478  1.00  0.00     0.000 C 
BRANCH   4   5
HETATM    5  C   LIG     1      17.761  37.431  25.847  1.00  0.00    -0.000 C 
BRANCH   5   6
HETATM    6  C   LIG     1      18.304  36.296  26.736  1.00  0.00    -0.005 C 
HETATM    7  C   LIG     1      18.081  34.908  26.139  1.00  0.00     0.005 C 
ENDBRANCH   5   6
ENDBRANCH   4   5
ENDBRANCH   3   4
ENDBRANCH   2   3
ENDBRANCH   1   2
BRANCH   1   8
HETATM    8  C   LIG     1      18.267  38.108  20.708  1.00  0.00     0.000 C 
BRANCH   8   9
HETATM    9  C   LIG     1      18.129  36.663  20.203  1.00  0.00     0.000 C 
BRANCH   9  10
HETATM   10  C   LIG     1      17.441  35.741  21.225  1.00  0.00     0.002 C 
BRANCH  10  11
HETATM   11  C   LIG     1      15.959  35.503  20.902  1.00  0.00     0.026 C 
BRANCH  11  12
HETATM   12  C   LIG     1      15.700  34.121  20.295  1.00  0.00     0.164 C 
BRANCH  12  13
HETATM   13  O   LIG     1      15.436  34.257  18.927  1.00  0.00    -0.401 OA
HETATM   14  H   LIG     1      16.184  33.805  18.456  1.00  0.00     0.209 HD
ENDBRANCH  12  13
ENDBRANCH  11  12
ENDBRANCH  10  11
ENDBRANCH   9  10
ENDBRANCH   8   9
ENDBRANCH   1   8
TORSDOF 11
ENDMDL
MODEL 7
REMARK VINA RESULT:      -5.7      2.504      5.311
REMARK  11 active torsions:
REMARK  status: ('A' for Active; 'I' for Inactive)
REMARK    1  A    between atoms: C_2  and  C_3 
REMARK    2  A    between atoms: C_3  and  C_4 
REMARK    3  A    between atoms: C_4  and  C_5 
REMARK    4  A    between atoms: C_5  and  C_6 
REMARK    5  A    between atoms: C_6  and  C_7 
REMARK    6  A    between atoms: C_7  and  C_8 
REMARK    7  A    between atoms: C_8  and  C_9 
REMARK    8  A    between atoms: C_9  and  C_10 
REMARK    9  A    between atoms: C_10  and  C_11 
REMARK   10  A    between atoms: C_11  and  C_12 
REMARK   11  A    between atoms: C_12  and  O_13 
ROOT
HETATM    1  C   LIG     1      16.539  35.860  20.629  1.00  0.00     0.000 C 
ENDROOT
BRANCH   1   2
HETATM    2  C   LIG     1      18.058  36.094  20.648  1.00  0.00     0.000 C 
BRANCH   2   3
HETATM    3  C   LIG     1      18.546  36.926  19.450  1.00  0.00     0.000 C 
BRANCH   3   4
HETATM    4  C   LIG     1      19.474  38.078  19.872  1.00  0.00     0.000 C 
BRANCH   4   5
HETATM    5  C   LIG     1      18.711  39.270  20.477  1.00  0.00    -0.000 C 
BRANCH   5   6
HETATM    6  C   LIG     1      18.533  39.221  22.006  1.00  0.00    -0.005 C 
HETATM    7  C   LIG     1      17.073  39.095  22.435  1.00  0.00     0.005 C 
ENDBRANCH   5   6
ENDBRANCH   4   5
ENDBRANCH   3   4
ENDBRANCH   2   3
ENDBRANCH   1   2
BRANCH   1   8
HETATM    8  C   LIG     1      16.036  35.425  22.014  1.00  0.00     0.000 C 
BRANCH   8   9
HETATM    9  C   LIG     1      17.183  35.097  22.984  1.00  0.00     0.000 C 
BRANCH   9  10
HETATM   10  C   LIG     1      17.119  35.927  24.278  1.00  0.00     0.002 C 
BRANCH  10  11
HETATM   11  C   LIG     1      17.628  35.151  25.503  1.00  0.00     0.026 C 
BRANCH  11  12
HETATM   12  C   LIG     1      18.162  36.070  26.605  1.00  0.00     0.164 C 
BRANCH  12  13
HETATM   13  O   LIG     1      18.843  37.146  26.023  1.00  0.00    -0.401 OA
HETATM   14  H   LIG     1      19.167  37.707  26.777  1.00  0.00     0.209 HD
ENDBRANCH  12  13
ENDBRANCH  11  12
ENDBRANCH  10  11
ENDBRANCH   9  10
ENDBRANCH   8   9
ENDBRANCH   1   8
TORSDOF 11
ENDMDL
MODEL 8
REMARK VINA RESULT:      -5.7      3.018      5.713
REMARK  11 active torsions:
REMARK  status: ('A' for Active; 'I' for Inactive)
REMARK    1  A    between atoms: C_2  and  C_3 
REMARK    2  A    between atoms: C_3  and  C_4 
REMARK    3  A    between atoms: C_4  and  C_5 
REMARK    4  A    between atoms: C_5  and  C_6 
REMARK    5  A    between atoms: C_6  and  C_7 
REMARK    6  A    between atoms: C_7  and  C_8 
REMARK    7  A    between atoms: C_8  and  C_9 
REMARK    8  A    between atoms: C_9  and  C_10 
REMARK    9  A    between atoms: C_10  and  C_11 
REMARK   10  A    between atoms: C_11  and  C_12 
REMARK   11  A    between atoms: C_12  and  O_13 
ROOT
HETATM    1  C   LIG     1      17.068  39.187  22.459  1.00  0.00     0.000 C 
ENDROOT
BRANCH   1   2
HETATM    2  C   LIG     1      18.471  38.732  22.027  1.00  0.00     0.000 C 
BRANCH   2   3
HETATM    3  C   LIG     1      18.788  39.087  20.565  1.00  0.00     0.000 C 
BRANCH   3   4
HETATM    4  C   LIG     1      18.652  37.879  19.622  1.00  0.00     0.000 C 
BRANCH   4   5
HETATM    5  C   LIG     1      18.430  36.555  20.374  1.00  0.00    -0.000 C 
BRANCH   5   6
HETATM    6  C   LIG     1      16.999  35.991  20.288  1.00  0.00    -0.005 C 
HETATM    7  C   LIG     1      16.671  35.016  21.417  1.00  0.00     0.005 C 
ENDBRANCH   5   6
ENDBRANCH   4   5
ENDBRANCH   3   4
ENDBRANCH   2   3
ENDBRANCH   1   2
BRANCH   1   8
HETATM    8  C   LIG     1      16.442  38.178  23.434  1.00  0.00     0.000 C 
BRANCH   8   9
HETATM    9  C   LIG     1      17.491  37.295  24.126  1.00  0.00     0.000 C 
BRANCH   9  10
HETATM   10  C   LIG     1      17.592  37.570  25.638  1.00  0.00     0.002 C 
BRANCH  10  11
HETATM   11  C   LIG     1      18.050  36.338  26.433  1.00  0.00     0.026 C 
BRANCH  11  12
HETATM   12  C   LIG     1      17.640  35.021  25.771  1.00  0.00     0.164 C 
BRANCH  12  13
HETATM   13  O   LIG     1      16.724  34.353  26.593  1.00  0.00    -0.401 OA
HETATM   14  H   LIG     1      15.823  34.581  26.243  1.00  0.00     0.209 HD
ENDBRANCH  12  13
ENDBRANCH  11  12
ENDBRANCH  10  11
ENDBRANCH   9  10
ENDBRANCH   8   9
ENDBRANCH   1   8
TORSDOF 11
ENDMDL
MODEL 9
REMARK VINA RESULT:      -5.6      1.488      2.350
REMARK  11 active torsions:
REMARK  status: ('A' for Active; 'I' for Inactive)
REMARK    1  A    between atoms: C_2  and  C_3 
REMARK    2  A    between atoms: C_3  and  C_4 
REMARK    3  A    between atoms: C_4  and  C_5 
REMARK    4  A    between atoms: C_5  and  C_6 
REMARK    5  A    between atoms: C_6  and  C_7 
REMARK    6  A    between atoms: C_7  and  C_8 
REMARK    7  A    between atoms: C_8  and  C_9 
REMARK    8  A    between atoms: C_9  and  C_10 
REMARK    9  A    between atoms: C_10  and  C_11 
REMARK   10  A    between atoms: C_11  and  C_12 
REMARK   11  A    between atoms: C_12  and  O_13 
ROOT
HETATM    1  C   LIG     1      17.130  35.957  20.331  1.00  0.00     0.000 C 
ENDROOT
BRANCH   1   2
HETATM    2  C   LIG     1      16.454  36.277  21.674  1.00  0.00     0.000 C 
BRANCH   2   3
HETATM    3  C   LIG     1      16.763  35.233  22.760  1.00  0.00     0.000 C 
BRANCH   3   4
HETATM    4  C   LIG     1      17.147  35.875  24.103  1.00  0.00     0.000 C 
BRANCH   4   5
HETATM    5  C   LIG     1      17.552  34.839  25.168  1.00  0.00    -0.000 C 
BRANCH   5   6
HETATM    6  C   LIG     1      18.081  35.434  26.486  1.00  0.00    -0.005 C 
HETATM    7  C   LIG     1      18.590  36.866  26.335  1.00  0.00     0.005 C 
ENDBRANCH   5   6
ENDBRANCH   4   5
ENDBRANCH   3   4
ENDBRANCH   2   3
ENDBRANCH   1   2
BRANCH   1   8
HETATM    8  C   LIG     1      18.416  36.779  20.157  1.00  0.00     0.000 C 
BRANCH   8   9
HETATM    9  C   LIG     1      18.358  38.129  20.888  1.00  0.00     0.000 C 
BRANCH   9  10
HETATM   10  C   LIG     1      19.371  39.147  20.331  1.00  0.00     0.002 C 
BRANCH  10  11
HETATM   11  C   LIG     1      19.654  38.940  18.835  1.00  0.00     0.026 C 
BRANCH  11  12
HETATM   12  C   LIG     1      18.614  39.614  17.938  1.00  0.00     0.164 C 
BRANCH  12  13
HETATM   13  O   LIG     1      18.529  38.923  16.724  1.00  0.00    -0.401 OA
HETATM   14  H   LIG     1      18.835  37.996  16.912  1.00  0.00     0.209 HD
ENDBRANCH  12  13
ENDBRANCH  11  12
ENDBRANCH  10  11
ENDBRANCH   9  10
ENDBRANCH   8   9
ENDBRANCH   1   8
TORSDOF 11
ENDMDL
MODEL 10
REMARK VINA RESULT:      -5.4      2.250      3.790
REMARK  11 active torsions:
REMARK  status: ('A' for Active; 'I' for Inactive)
REMARK    1  A    between atoms: C_2  and  C_3 
REMARK    2  A    between atoms: C_3  and  C_4 
REMARK    3  A    between atoms: C_4  and  C_5 
REMARK    4  A    between atoms: C_5  and  C_6 
REMARK    5  A    between atoms: C_6  and  C_7 
REMARK    6  A    between atoms: C_7  and  C_8 
REMARK    7  A    between atoms: C_8  and  C_9 
REMARK    8  A    between atoms: C_9  and  C_10 
REMARK    9  A    between atoms: C_10  and  C_11 
REMARK   10  A    between atoms: C_11  and  C_12 
REMARK   11  A    between atoms: C_12  and  O_13 
ROOT
HETATM    1  C   LIG     1      17.799  39.126  22.257  1.00  0.00     0.000 C 
ENDROOT
BRANCH   1   2
HETATM    2  C   LIG     1      16.613  38.252  22.693  1.00  0.00     0.000 C 
BRANCH   2   3
HETATM    3  C   LIG     1      17.052  36.975  23.429  1.00  0.00     0.000 C 
BRANCH   3   4
HETATM    4  C   LIG     1      16.784  35.701  22.610  1.00  0.00     0.000 C 
BRANCH   4   5
HETATM    5  C   LIG     1      15.702  35.898  21.534  1.00  0.00    -0.000 C 
BRANCH   5   6
HETATM    6  C   LIG     1      15.947  35.137  20.218  1.00  0.00    -0.005 C 
HETATM    7  C   LIG     1      15.613  33.650  20.315  1.00  0.00     0.005 C 
ENDBRANCH   5   6
ENDBRANCH   4   5
ENDBRANCH   3   4
ENDBRANCH   2   3
ENDBRANCH   1   2
BRANCH   1   8
HETATM    8  C   LIG     1      18.198  38.819  20.805  1.00  0.00     0.000 C 
BRANCH   8   9
HETATM    9  C   LIG     1      19.707  38.981  20.560  1.00  0.00     0.000 C 
BRANCH   9  10
HETATM   10  C   LIG     1      20.062  39.010  19.062  1.00  0.00     0.002 C 
BRANCH  10  11
HETATM   11  C   LIG     1      18.823  38.922  18.159  1.00  0.00     0.026 C 
BRANCH  11  12
HETATM   12  C   LIG     1      19.022  39.617  16.810  1.00  0.00     0.164 C 
BRANCH  12  13
HETATM   13  O   LIG     1      18.226  38.992  15.843  1.00  0.00    -0.401 OA
HETATM   14  H   LIG     1      18.042  38.078  16.185  1.00  0.00     0.209 HD
ENDBRANCH  12  13
ENDBRANCH  11  12
ENDBRANCH  10  11
ENDBRANCH   9  10
ENDBRANCH   8   9
ENDBRANCH   1   8
TORSDOF 11
ENDMDL
MODEL 11
REMARK VINA RESULT:      -5.3      1.470      2.167
REMARK  11 active torsions:
REMARK  status: ('A' for Active; 'I' for Inactive)
REMARK    1  A    between atoms: C_2  and  C_3 
REMARK    2  A    between atoms: C_3  and  C_4 
REMARK    3  A    between atoms: C_4  and  C_5 
REMARK    4  A    between atoms: C_5  and  C_6 
REMARK    5  A    between atoms: C_6  and  C_7 
REMARK    6  A    between atoms: C_7  and  C_8 
REMARK    7  A    between atoms: C_8  and  C_9 
REMARK    8  A    between atoms: C_9  and  C_10 
REMARK    9  A    between atoms: C_10  and  C_11 
REMARK   10  A    between atoms: C_11  and  C_12 
REMARK   11  A    between atoms: C_12  and  O_13 
ROOT
HETATM    1  C   LIG     1      16.441  35.560  21.201  1.00  0.00     0.000 C 
ENDROOT
BRANCH   1   2
HETATM    2  C   LIG     1      16.704  34.751  22.481  1.00  0.00     0.000 C 
BRANCH   2   3
HETATM    3  C   LIG     1      17.183  35.627  23.650  1.00  0.00     0.000 C 
BRANCH   3   4
HETATM    4  C   LIG     1      17.298  34.841  24.967  1.00  0.00     0.000 C 
BRANCH   4   5
HETATM    5  C   LIG     1      17.924  35.668  26.105  1.00  0.00    -0.000 C 
BRANCH   5   6
HETATM    6  C   LIG     1      18.443  37.057  25.689  1.00  0.00    -0.005 C 
HETATM    7  C   LIG     1      17.359  38.132  25.708  1.00  0.00     0.005 C 
ENDBRANCH   5   6
ENDBRANCH   4   5
ENDBRANCH   3   4
ENDBRANCH   2   3
ENDBRANCH   1   2
BRANCH   1   8
HETATM    8  C   LIG     1      17.499  36.659  21.022  1.00  0.00     0.000 C 
BRANCH   8   9
HETATM    9  C   LIG     1      18.230  36.563  19.674  1.00  0.00     0.000 C 
BRANCH   9  10
HETATM   10  C   LIG     1      19.516  37.408  19.637  1.00  0.00     0.002 C 
BRANCH  10  11
HETATM   11  C   LIG     1      19.243  38.885  19.316  1.00  0.00     0.026 C 
BRANCH  11  12
HETATM   12  C   LIG     1      18.824  39.691  20.549  1.00  0.00     0.164 C 
BRANCH  12  13
HETATM   13  O   LIG     1      19.622  39.321  21.639  1.00  0.00    -0.401 OA
HETATM   14  H   LIG     1      20.458  38.947  21.255  1.00  0.00     0.209 HD
ENDBRANCH  12  13
ENDBRANCH  11  12
ENDBRANCH  10  11
ENDBRANCH   9  10
ENDBRANCH   8   9
ENDBRANCH   1   8
TORSDOF 11
ENDMDL
MODEL 12
REMARK VINA RESULT:      -5.3      4.024      5.687
REMARK  11 active torsions:
REMARK  status: ('A' for Active; 'I' for Inactive)
REMARK    1  A    between atoms: C_2  and  C_3 
REMARK    2  A    between atoms: C_3  and  C_4 
REMARK    3  A    between atoms: C_4  and  C_5 
REMARK    4  A    between atoms: C_5  and  C_6 
REMARK    5  A    between atoms: C_6  and  C_7 
REMARK    6  A    between atoms: C_7  and  C_8 
REMARK    7  A    between atoms: C_8  and  C_9 
REMARK    8  A    between atoms: C_9  and  C_10 
REMARK    9  A    between atoms: C_10  and  C_11 
REMARK   10  A    between atoms: C_11  and  C_12 
REMARK   11  A    between atoms: C_12  and  O_13 
ROOT
HETATM    1  C   LIG     1      17.141  35.489  21.389  1.00  0.00     0.000 C 
ENDROOT
BRANCH   1   2
HETATM    2  C   LIG     1      16.606  36.159  22.664  1.00  0.00     0.000 C 
BRANCH   2   3
HETATM    3  C   LIG     1      17.363  37.450  23.021  1.00  0.00     0.000 C 
BRANCH   3   4
HETATM    4  C   LIG     1      17.292  38.503  21.902  1.00  0.00     0.000 C 
BRANCH   4   5
HETATM    5  C   LIG     1      18.601  39.300  21.747  1.00  0.00    -0.000 C 
BRANCH   5   6
HETATM    6  C   LIG     1      19.212  39.277  20.334  1.00  0.00    -0.005 C 
HETATM    7  C   LIG     1      19.237  37.882  19.715  1.00  0.00     0.005 C 
ENDBRANCH   5   6
ENDBRANCH   4   5
ENDBRANCH   3   4
ENDBRANCH   2   3
ENDBRANCH   1   2
BRANCH   1   8
HETATM    8  C   LIG     1      15.994  35.165  20.420  1.00  0.00     0.000 C 
BRANCH   8   9
HETATM    9  C   LIG     1      15.231  33.890  20.811  1.00  0.00     0.000 C 
BRANCH   9  10
HETATM   10  C   LIG     1      15.469  32.732  19.824  1.00  0.00     0.002 C 
BRANCH  10  11
HETATM   11  C   LIG     1      15.333  33.170  18.357  1.00  0.00     0.026 C 
BRANCH  11  12
HETATM   12  C   LIG     1      14.478  32.207  17.530  1.00  0.00     0.164 C 
BRANCH  12  13
HETATM   13  O   LIG     1      13.803  31.330  18.388  1.00  0.00    -0.401 OA
HETATM   14  H   LIG     1      14.491  30.959  19.001  1.00  0.00     0.209 HD
ENDBRANCH  12  13
ENDBRANCH  11  12
ENDBRANCH  10  11
ENDBRANCH   9  10
ENDBRANCH   8   9
ENDBRANCH   1   8
TORSDOF 11
ENDMDL
MODEL 13
REMARK VINA RESULT:      -5.3      4.291      5.143
REMARK  11 active torsions:
REMARK  status: ('A' for Active; 'I' for Inactive)
REMARK    1  A    between atoms: C_2  and  C_3 
REMARK    2  A    between atoms: C_3  and  C_4 
REMARK    3  A    between atoms: C_4  and  C_5 
REMARK    4  A    between atoms: C_5  and  C_6 
REMARK    5  A    between atoms: C_6  and  C_7 
REMARK    6  A    between atoms: C_7  and  C_8 
REMARK    7  A    between atoms: C_8  and  C_9 
REMARK    8  A    between atoms: C_9  and  C_10 
REMARK    9  A    between atoms: C_10  and  C_11 
REMARK   10  A    between atoms: C_11  and  C_12 
REMARK   11  A    between atoms: C_12  and  O_13 
ROOT
HETATM    1  C   LIG     1      15.053  35.574  20.886  1.00  0.00     0.000 C 
ENDROOT
BRANCH   1   2
HETATM    2  C   LIG     1      15.465  36.486  22.052  1.00  0.00     0.000 C 
BRANCH   2   3
HETATM    3  C   LIG     1      16.957  36.363  22.406  1.00  0.00     0.000 C 
BRANCH   3   4
HETATM    4  C   LIG     1      17.383  37.342  23.513  1.00  0.00     0.000 C 
BRANCH   4   5
HETATM    5  C   LIG     1      17.171  36.774  24.928  1.00  0.00    -0.000 C 
BRANCH   5   6
HETATM    6  C   LIG     1      17.418  35.260  25.065  1.00  0.00    -0.005 C 
HETATM    7  C   LIG     1      18.267  34.900  26.282  1.00  0.00     0.005 C 
ENDBRANCH   5   6
ENDBRANCH   4   5
ENDBRANCH   3   4
ENDBRANCH   2   3
ENDBRANCH   1   2
BRANCH   1   8
HETATM    8  C   LIG     1      15.847  34.259  20.914  1.00  0.00     0.000 C 
BRANCH   8   9
HETATM    9  C   LIG     1      14.978  33.036  20.586  1.00  0.00     0.000 C 
BRANCH   9  10
HETATM   10  C   LIG     1      15.552  32.193  19.433  1.00  0.00     0.002 C 
BRANCH  10  11
HETATM   11  C   LIG     1      15.021  32.631  18.060  1.00  0.00     0.026 C 
BRANCH  11  12
HETATM   12  C   LIG     1      14.102  31.588  17.420  1.00  0.00     0.164 C 
BRANCH  12  13
HETATM   13  O   LIG     1      12.794  32.084  17.378  1.00  0.00    -0.401 OA
HETATM   14  H   LIG     1      12.311  31.534  16.706  1.00  0.00     0.209 HD
ENDBRANCH  12  13
ENDBRANCH  11  12
ENDBRANCH  10  11
ENDBRANCH   9  10
ENDBRANCH   8   9
ENDBRANCH   1   8
TORSDOF 11
ENDMDL
MODEL 14
REMARK VINA RESULT:      -5.3      2.605      5.065
REMARK  11 active torsions:
REMARK  status: ('A' for Active; 'I' for Inactive)
REMARK    1  A    between atoms: C_2  and  C_3 
REMARK    2  A    between atoms: C_3  and  C_4 
REMARK    3  A    between atoms: C_4  and  C_5 
REMARK    4  A    between atoms: C_5  and  C_6 
REMARK    5  A    between atoms: C_6  and  C_7 
REMARK    6  A    between atoms: C_7  and  C_8 
REMARK    7  A    between atoms: C_8  and  C_9 
REMARK    8  A    between atoms: C_9  and  C_10 
REMARK    9  A    between atoms: C_10  and  C_11 
REMARK   10  A    between atoms: C_11  and  C_12 
REMARK   11  A    between atoms: C_12  and  O_13 
ROOT
HETATM    1  C   LIG     1      19.173  38.224  19.166  1.00  0.00     0.000 C 
ENDROOT
BRANCH   1   2
HETATM    2  C   LIG     1      19.043  36.750  19.579  1.00  0.00     0.000 C 
BRANCH   2   3
HETATM    3  C   LIG     1      17.631  36.392  20.071  1.00  0.00     0.000 C 
BRANCH   3   4
HETATM    4  C   LIG     1      17.650  35.561  21.365  1.00  0.00     0.000 C 
BRANCH   4   5
HETATM    5  C   LIG     1      16.240  35.188  21.858  1.00  0.00    -0.000 C 
BRANCH   5   6
HETATM    6  C   LIG     1      15.261  34.746  20.754  1.00  0.00    -0.005 C 
HETATM    7  C   LIG     1      15.512  33.321  20.267  1.00  0.00     0.005 C 
ENDBRANCH   5   6
ENDBRANCH   4   5
ENDBRANCH   3   4
ENDBRANCH   2   3
ENDBRANCH   1   2
BRANCH   1   8
HETATM    8  C   LIG     1      19.601  39.090  20.360  1.00  0.00     0.000 C 
BRANCH   8   9
HETATM    9  C   LIG     1      18.419  39.481  21.261  1.00  0.00     0.000 C 
BRANCH   9  10
HETATM   10  C   LIG     1      18.562  38.936  22.694  1.00  0.00     0.002 C 
BRANCH  10  11
HETATM   11  C   LIG     1      17.205  38.649  23.355  1.00  0.00     0.026 C 
BRANCH  11  12
HETATM   12  C   LIG     1      17.342  38.133  24.789  1.00  0.00     0.164 C 
BRANCH  12  13
HETATM   13  O   LIG     1      17.251  36.736  24.791  1.00  0.00    -0.401 OA
HETATM   14  H   LIG     1      16.743  36.491  23.973  1.00  0.00     0.209 HD
ENDBRANCH  12  13
ENDBRANCH  11  12
ENDBRANCH  10  11
ENDBRANCH   9  10
ENDBRANCH   8   9
ENDBRANCH   1   8
TORSDOF 11
ENDMDL
MODEL 15
REMARK VINA RESULT:      -5.2      3.422      4.445
REMARK  11 active torsions:
REMARK  status: ('A' for Active; 'I' for Inactive)
REMARK    1  A    between atoms: C_2  and  C_3 
REMARK    2  A    between atoms: C_3  and  C_4 
REMARK    3  A    between atoms: C_4  and  C_5 
REMARK    4  A    between atoms: C_5  and  C_6 
REMARK    5  A    between atoms: C_6  and  C_7 
REMARK    6  A    between atoms: C_7  and  C_8 
REMARK    7  A    between atoms: C_8  and  C_9 
REMARK    8  A    between atoms: C_9  and  C_10 
REMARK    9  A    between atoms: C_10  and  C_11 
REMARK   10  A    between atoms: C_11  and  C_12 
REMARK   11  A    between atoms: C_12  and  O_13 
ROOT
HETATM    1  C   LIG     1      15.303  35.491  21.190  1.00  0.00     0.000 C 
ENDROOT
BRANCH   1   2
HETATM    2  C   LIG     1      16.557  35.580  22.074  1.00  0.00     0.000 C 
BRANCH   2   3
HETATM    3  C   LIG     1      17.334  36.892  21.875  1.00  0.00     0.000 C 
BRANCH   3   4
HETATM    4  C   LIG     1      16.808  38.030  22.767  1.00  0.00     0.000 C 
BRANCH   4   5
HETATM    5  C   LIG     1      17.726  38.322  23.968  1.00  0.00    -0.000 C 
BRANCH   5   6
HETATM    6  C   LIG     1      17.298  37.657  25.289  1.00  0.00    -0.005 C 
HETATM    7  C   LIG     1      18.418  36.851  25.944  1.00  0.00     0.005 C 
ENDBRANCH   5   6
ENDBRANCH   4   5
ENDBRANCH   3   4
ENDBRANCH   2   3
ENDBRANCH   1   2
BRANCH   1   8
HETATM    8  C   LIG     1      15.594  34.695  19.908  1.00  0.00     0.000 C 
BRANCH   8   9
HETATM    9  C   LIG     1      15.561  33.176  20.135  1.00  0.00     0.000 C 
BRANCH   9  10
HETATM   10  C   LIG     1      15.311  32.389  18.836  1.00  0.00     0.002 C 
BRANCH  10  11
HETATM   11  C   LIG     1      14.731  33.266  17.717  1.00  0.00     0.026 C 
BRANCH  11  12
HETATM   12  C   LIG     1      15.550  33.197  16.426  1.00  0.00     0.164 C 
BRANCH  12  13
HETATM   13  O   LIG     1      16.095  34.458  16.154  1.00  0.00    -0.401 OA
HETATM   14  H   LIG     1      17.035  34.427  16.475  1.00  0.00     0.209 HD
ENDBRANCH  12  13
ENDBRANCH  11  12
ENDBRANCH  10  11
ENDBRANCH   9  10
ENDBRANCH   8   9
ENDBRANCH   1   8
TORSDOF 11
ENDMDL
MODEL 16
REMARK VINA RESULT:      -5.1      6.710      8.216
REMARK  11 active torsions:
REMARK  status: ('A' for Active; 'I' for Inactive)
REMARK    1  A    between atoms: C_2  and  C_3 
REMARK    2  A    between atoms: C_3  and  C_4 
REMARK    3  A    between atoms: C_4  and  C_5 
REMARK    4  A    between atoms: C_5  and  C_6 
REMARK    5  A    between atoms: C_6  and  C_7 
REMARK    6  A    between atoms: C_7  and  C_8 
REMARK    7  A    between atoms: C_8  and  C_9 
REMARK    8  A    between atoms: C_9  and  C_10 
REMARK    9  A    between atoms: C_10  and  C_11 
REMARK   10  A    between atoms: C_11  and  C_12 
REMARK   11  A    between atoms: C_12  and  O_13 
ROOT
HETATM    1  C   LIG     1      13.429  32.065  16.872  1.00  0.00     0.000 C 
ENDROOT
BRANCH   1   2
HETATM    2  C   LIG     1      14.739  32.290  17.643  1.00  0.00     0.000 C 
BRANCH   2   3
HETATM    3  C   LIG     1      14.635  31.891  19.124  1.00  0.00     0.000 C 
BRANCH   3   4
HETATM    4  C   LIG     1      15.727  32.541  19.989  1.00  0.00     0.000 C 
BRANCH   4   5
HETATM    5  C   LIG     1      15.572  34.069  20.100  1.00  0.00    -0.000 C 
BRANCH   5   6
HETATM    6  C   LIG     1      15.537  34.616  21.539  1.00  0.00    -0.005 C 
HETATM    7  C   LIG     1      16.894  35.130  22.017  1.00  0.00     0.005 C 
ENDBRANCH   5   6
ENDBRANCH   4   5
ENDBRANCH   3   4
ENDBRANCH   2   3
ENDBRANCH   1   2
BRANCH   1   8
HETATM    8  C   LIG     1      13.244  30.578  16.531  1.00  0.00     0.000 C 
BRANCH   8   9
HETATM    9  C   LIG     1      13.378  30.296  15.027  1.00  0.00     0.000 C 
BRANCH   9  10
HETATM   10  C   LIG     1      14.809  29.894  14.625  1.00  0.00     0.002 C 
BRANCH  10  11
HETATM   11  C   LIG     1      15.395  30.806  13.536  1.00  0.00     0.026 C 
BRANCH  11  12
HETATM   12  C   LIG     1      16.034  32.074  14.108  1.00  0.00     0.164 C 
BRANCH  12  13
HETATM   13  O   LIG     1      17.035  31.718  15.020  1.00  0.00    -0.401 OA
HETATM   14  H   LIG     1      17.143  30.734  14.942  1.00  0.00     0.209 HD
ENDBRANCH  12  13
ENDBRANCH  11  12
ENDBRANCH  10  11
ENDBRANCH   9  10
ENDBRANCH   8   9
ENDBRANCH   1   8
TORSDOF 11
ENDMDL
MODEL 17
REMARK VINA RESULT:      -5.1      6.922      9.878
REMARK  11 active torsions:
REMARK  status: ('A' for Active; 'I' for Inactive)
REMARK    1  A    between atoms: C_2  and  C_3 
REMARK    2  A    between atoms: C_3  and  C_4 
REMARK    3  A    between atoms: C_4  and  C_5 
REMARK    4  A    between atoms: C_5  and  C_6 
REMARK    5  A    between atoms: C_6  and  C_7 
REMARK    6  A    between atoms: C_7  and  C_8 
REMARK    7  A    between atoms: C_8  and  C_9 
REMARK    8  A    between atoms: C_9  and  C_10 
REMARK    9  A    between atoms: C_10  and  C_11 
REMARK   10  A    between atoms: C_11  and  C_12 
REMARK   11  A    between atoms: C_12  and  O_13 
ROOT
HETATM    1  C   LIG     1      13.326  32.029  16.839  1.00  0.00     0.000 C 
ENDROOT
BRANCH   1   2
HETATM    2  C   LIG     1      13.290  30.526  16.518  1.00  0.00     0.000 C 
BRANCH   2   3
HETATM    3  C   LIG     1      13.380  30.237  15.011  1.00  0.00     0.000 C 
BRANCH   3   4
HETATM    4  C   LIG     1      14.805  29.868  14.565  1.00  0.00     0.000 C 
BRANCH   4   5
HETATM    5  C   LIG     1      15.405  30.885  13.578  1.00  0.00    -0.000 C 
BRANCH   5   6
HETATM    6  C   LIG     1      16.068  32.113  14.231  1.00  0.00    -0.005 C 
HETATM    7  C   LIG     1      16.979  32.880  13.275  1.00  0.00     0.005 C 
ENDBRANCH   5   6
ENDBRANCH   4   5
ENDBRANCH   3   4
ENDBRANCH   2   3
ENDBRANCH   1   2
BRANCH   1   8
HETATM    8  C   LIG     1      14.620  32.399  17.579  1.00  0.00     0.000 C 
BRANCH   8   9
HETATM    9  C   LIG     1      14.677  31.813  18.999  1.00  0.00     0.000 C 
BRANCH   9  10
HETATM   10  C   LIG     1      15.645  32.580  19.917  1.00  0.00     0.002 C 
BRANCH  10  11
HETATM   11  C   LIG     1      14.914  33.462  20.940  1.00  0.00     0.026 C 
BRANCH  11  12
HETATM   12  C   LIG     1      15.373  34.922  20.899  1.00  0.00     0.164 C 
BRANCH  12  13
HETATM   13  O   LIG     1      14.288  35.759  21.185  1.00  0.00    -0.401 OA
HETATM   14  H   LIG     1      14.511  36.218  22.037  1.00  0.00     0.209 HD
ENDBRANCH  12  13
ENDBRANCH  11  12
ENDBRANCH  10  11
ENDBRANCH   9  10
ENDBRANCH   8   9
ENDBRANCH   1   8
TORSDOF 11
ENDMDL
MODEL 18
REMARK VINA RESULT:      -5.1      5.299      6.745
REMARK  11 active torsions:
REMARK  status: ('A' for Active; 'I' for Inactive)
REMARK    1  A    between atoms: C_2  and  C_3 
REMARK    2  A    between atoms: C_3  and  C_4 
REMARK    3  A    between atoms: C_4  and  C_5 
REMARK    4  A    between atoms: C_5  and  C_6 
REMARK    5  A    between atoms: C_6  and  C_7 
REMARK    6  A    between atoms: C_7  and  C_8 
REMARK    7  A    between atoms: C_8  and  C_9 
REMARK    8  A    between atoms: C_9  and  C_10 
REMARK    9  A    between atoms: C_10  and  C_11 
REMARK   10  A    between atoms: C_11  and  C_12 
REMARK   11  A    between atoms: C_12  and  O_13 
ROOT
HETATM    1  C   LIG     1      15.337  34.310  19.893  1.00  0.00     0.000 C 
ENDROOT
BRANCH   1   2
HETATM    2  C   LIG     1      15.197  35.041  21.238  1.00  0.00     0.000 C 
BRANCH   2   3
HETATM    3  C   LIG     1      16.518  35.101  22.022  1.00  0.00     0.000 C 
BRANCH   3   4
HETATM    4  C   LIG     1      16.906  36.537  22.415  1.00  0.00     0.000 C 
BRANCH   4   5
HETATM    5  C   LIG     1      17.556  37.318  21.258  1.00  0.00    -0.000 C 
BRANCH   5   6
HETATM    6  C   LIG     1      17.885  38.790  21.572  1.00  0.00    -0.005 C 
HETATM    7  C   LIG     1      18.949  39.376  20.646  1.00  0.00     0.005 C 
ENDBRANCH   5   6
ENDBRANCH   4   5
ENDBRANCH   3   4
ENDBRANCH   2   3
ENDBRANCH   1   2
BRANCH   1   8
HETATM    8  C   LIG     1      15.632  32.818  20.111  1.00  0.00     0.000 C 
BRANCH   8   9
HETATM    9  C   LIG     1      14.786  31.909  19.205  1.00  0.00     0.000 C 
BRANCH   9  10
HETATM   10  C   LIG     1      14.899  32.288  17.717  1.00  0.00     0.002 C 
BRANCH  10  11
HETATM   11  C   LIG     1      13.550  32.214  16.985  1.00  0.00     0.026 C 
BRANCH  11  12
HETATM   12  C   LIG     1      13.384  30.924  16.179  1.00  0.00     0.164 C 
BRANCH  12  13
HETATM   13  O   LIG     1      12.288  30.205  16.673  1.00  0.00    -0.401 OA
HETATM   14  H   LIG     1      12.355  30.247  17.664  1.00  0.00     0.209 HD
ENDBRANCH  12  13
ENDBRANCH  11  12
ENDBRANCH  10  11
ENDBRANCH   9  10
ENDBRANCH   8   9
ENDBRANCH   1   8
TORSDOF 11
ENDMDL
MODEL 19
REMARK VINA RESULT:      -5.1      3.034      5.292
REMARK  11 active torsions:
REMARK  status: ('A' for Active; 'I' for Inactive)
REMARK    1  A    between atoms: C_2  and  C_3 
REMARK    2  A    between atoms: C_3  and  C_4 
REMARK    3  A    between atoms: C_4  and  C_5 
REMARK    4  A    between atoms: C_5  and  C_6 
REMARK    5  A    between atoms: C_6  and  C_7 
REMARK    6  A    between atoms: C_7  and  C_8 
REMARK    7  A    between atoms: C_8  and  C_9 
REMARK    8  A    between atoms: C_9  and  C_10 
REMARK    9  A    between atoms: C_10  and  C_11 
REMARK   10  A    between atoms: C_11  and  C_12 
REMARK   11  A    between atoms: C_12  and  O_13 
ROOT
HETATM    1  C   LIG     1      16.862  36.281  22.456  1.00  0.00     0.000 C 
ENDROOT
BRANCH   1   2
HETATM    2  C   LIG     1      15.732  35.522  21.744  1.00  0.00     0.000 C 
BRANCH   2   3
HETATM    3  C   LIG     1      16.240  34.654  20.580  1.00  0.00     0.000 C 
BRANCH   3   4
HETATM    4  C   LIG     1      15.382  33.396  20.365  1.00  0.00     0.000 C 
BRANCH   4   5
HETATM    5  C   LIG     1      15.400  32.902  18.907  1.00  0.00    -0.000 C 
BRANCH   5   6
HETATM    6  C   LIG     1      14.482  31.699  18.617  1.00  0.00    -0.005 C 
HETATM    7  C   LIG     1      13.816  31.773  17.244  1.00  0.00     0.005 C 
ENDBRANCH   5   6
ENDBRANCH   4   5
ENDBRANCH   3   4
ENDBRANCH   2   3
ENDBRANCH   1   2
BRANCH   1   8
HETATM    8  C   LIG     1      16.712  37.797  22.257  1.00  0.00     0.000 C 
BRANCH   8   9
HETATM    9  C   LIG     1      18.053  38.542  22.352  1.00  0.00     0.000 C 
BRANCH   9  10
HETATM   10  C   LIG     1      18.446  39.224  21.029  1.00  0.00     0.002 C 
BRANCH  10  11
HETATM   11  C   LIG     1      18.947  38.225  19.976  1.00  0.00     0.026 C 
BRANCH  11  12
HETATM   12  C   LIG     1      20.431  38.405  19.647  1.00  0.00     0.164 C 
BRANCH  12  13
HETATM   13  O   LIG     1      20.605  39.588  18.918  1.00  0.00    -0.401 OA
HETATM   14  H   LIG     1      21.470  39.972  19.218  1.00  0.00     0.209 HD
ENDBRANCH  12  13
ENDBRANCH  11  12
ENDBRANCH  10  11
ENDBRANCH   9  10
ENDBRANCH   8   9
ENDBRANCH   1   8
TORSDOF 11
ENDMDL
MODEL 20
REMARK VINA RESULT:      -4.9      4.855      7.524
REMARK  11 active torsions:
REMARK  status: ('A' for Active; 'I' for Inactive)
REMARK    1  A    between atoms: C_2  and  C_3 
REMARK    2  A    between atoms: C_3  and  C_4 
REMARK    3  A    between atoms: C_4  and  C_5 
REMARK    4  A    between atoms: C_5  and  C_6 
REMARK    5  A    between atoms: C_6  and  C_7 
REMARK    6  A    between atoms: C_7  and  C_8 
REMARK    7  A    between atoms: C_8  and  C_9 
REMARK    8  A    between atoms: C_9  and  C_10 
REMARK    9  A    between atoms: C_10  and  C_11 
REMARK   10  A    between atoms: C_11  and  C_12 
REMARK   11  A    between atoms: C_12  and  O_13 
ROOT
HETATM    1  C   LIG     1      16.014  34.091  20.552  1.00  0.00     0.000 C 
ENDROOT
BRANCH   1   2
HETATM    2  C   LIG     1      14.952  32.984  20.459  1.00  0.00     0.000 C 
BRANCH   2   3
HETATM    3  C   LIG     1      15.085  32.137  19.183  1.00  0.00     0.000 C 
BRANCH   3   4
HETATM    4  C   LIG     1      15.158  32.996  17.910  1.00  0.00     0.000 C 
BRANCH   4   5
HETATM    5  C   LIG     1      14.664  32.252  16.656  1.00  0.00    -0.000 C 
BRANCH   5   6
HETATM    6  C   LIG     1      13.481  31.294  16.893  1.00  0.00    -0.005 C 
HETATM    7  C   LIG     1      13.078  30.519  15.640  1.00  0.00     0.005 C 
ENDBRANCH   5   6
ENDBRANCH   4   5
ENDBRANCH   3   4
ENDBRANCH   2   3
ENDBRANCH   1   2
BRANCH   1   8
HETATM    8  C   LIG     1      15.437  35.348  21.222  1.00  0.00     0.000 C 
BRANCH   8   9
HETATM    9  C   LIG     1      16.522  36.371  21.593  1.00  0.00     0.000 C 
BRANCH   9  10
HETATM   10  C   LIG     1      16.790  36.426  23.108  1.00  0.00     0.002 C 
BRANCH  10  11
HETATM   11  C   LIG     1      16.822  37.862  23.650  1.00  0.00     0.026 C 
BRANCH  11  12
HETATM   12  C   LIG     1      17.191  37.927  25.134  1.00  0.00     0.164 C 
BRANCH  12  13
HETATM   13  O   LIG     1      17.221  36.630  25.662  1.00  0.00    -0.401 OA
HETATM   14  H   LIG     1      17.684  36.068  24.987  1.00  0.00     0.209 HD
ENDBRANCH  12  13
ENDBRANCH  11  12
ENDBRANCH  10  11
ENDBRANCH   9  10
ENDBRANCH   8   9
ENDBRANCH   1   8
TORSDOF 11
ENDMDL
