MODEL 1
REMARK VINA RESULT:      -6.4      0.000      0.000
REMARK  13 active torsions:
REMARK  status: ('A' for Active; 'I' for Inactive)
REMARK    1  A    between atoms: C_2  and  C_3 
REMARK    2  A    between atoms: C_3  and  C_4 
REMARK    3  A    between atoms: C_4  and  C_5 
REMARK    4  A    between atoms: C_5  and  C_6 
REMARK    5  A    between atoms: C_6  and  C_7 
REMARK    6  A    between atoms: C_7  and  C_8 
REMARK    7  A    between atoms: C_8  and  C_9 
REMARK    8  A    between atoms: C_9  and  C_10 
REMARK    9  A    between atoms: C_10  and  C_11 
REMARK   10  A    between atoms: C_11  and  C_12 
REMARK   11  A    between atoms: C_12  and  C_13 
REMARK   12  A    between atoms: C_13  and  C_14 
REMARK   13  A    between atoms: C_14  and  O_15 
ROOT
HETATM    1  C   LIG     1      19.624  38.965  20.514  1.00  0.00     0.000 C 
ENDROOT
BRANCH   1   2
HETATM    2  C   LIG     1      18.548  39.526  21.457  1.00  0.00     0.000 C 
BRANCH   2   3
HETATM    3  C   LIG     1      18.436  38.726  22.767  1.00  0.00     0.000 C 
BRANCH   3   4
HETATM    4  C   LIG     1      16.981  38.548  23.228  1.00  0.00     0.000 C 
BRANCH   4   5
HETATM    5  C   LIG     1      16.855  37.644  24.464  1.00  0.00     0.000 C 
BRANCH   5   6
HETATM    6  C   LIG     1      18.166  37.625  25.263  1.00  0.00    -0.000 C 
BRANCH   6   7
HETATM    7  C   LIG     1      18.322  36.354  26.113  1.00  0.00    -0.005 C 
HETATM    8  C   LIG     1      17.502  35.180  25.578  1.00  0.00     0.005 C 
ENDBRANCH   6   7
ENDBRANCH   5   6
ENDBRANCH   4   5
ENDBRANCH   3   4
ENDBRANCH   2   3
ENDBRANCH   1   2
BRANCH   1   9
HETATM    9  C   LIG     1      19.031  38.119  19.372  1.00  0.00     0.000 C 
BRANCH   9  10
HETATM   10  C   LIG     1      18.883  36.637  19.755  1.00  0.00     0.000 C 
BRANCH  10  11
HETATM   11  C   LIG     1      17.447  36.278  20.174  1.00  0.00     0.000 C 
BRANCH  11  12
HETATM   12  C   LIG     1      17.404  35.381  21.423  1.00  0.00     0.002 C 
BRANCH  12  13
HETATM   13  C   LIG     1      15.972  35.145  21.930  1.00  0.00     0.026 C 
BRANCH  13  14
HETATM   14  C   LIG     1      15.241  34.096  21.089  1.00  0.00     0.164 C 
BRANCH  14  15
HETATM   15  O   LIG     1      13.947  33.895  21.586  1.00  0.00    -0.401 OA
HETATM   16  H   LIG     1      13.937  34.291  22.495  1.00  0.00     0.209 HD
ENDBRANCH  14  15
ENDBRANCH  13  14
ENDBRANCH  12  13
ENDBRANCH  11  12
ENDBRANCH  10  11
ENDBRANCH   9  10
ENDBRANCH   1   9
TORSDOF 13
ENDMDL
MODEL 2
REMARK VINA RESULT:      -6.1      0.861      4.263
REMARK  13 active torsions:
REMARK  status: ('A' for Active; 'I' for Inactive)
REMARK    1  A    between atoms: C_2  and  C_3 
REMARK    2  A    between atoms: C_3  and  C_4 
REMARK    3  A    between atoms: C_4  and  C_5 
REMARK    4  A    between atoms: C_5  and  C_6 
REMARK    5  A    between atoms: C_6  and  C_7 
REMARK    6  A    between atoms: C_7  and  C_8 
REMARK    7  A    between atoms: C_8  and  C_9 
REMARK    8  A    between atoms: C_9  and  C_10 
REMARK    9  A    between atoms: C_10  and  C_11 
REMARK   10  A    between atoms: C_11  and  C_12 
REMARK   11  A    between atoms: C_12  and  C_13 
REMARK   12  A    between atoms: C_13  and  C_14 
REMARK   13  A    between atoms: C_14  and  O_15 
ROOT
HETATM    1  C   LIG     1      18.330  37.183  25.344  1.00  0.00     0.000 C 
ENDROOT
BRANCH   1   2
HETATM    2  C   LIG     1      17.351  38.356  25.174  1.00  0.00     0.000 C 
BRANCH   2   3
HETATM    3  C   LIG     1      16.977  38.603  23.702  1.00  0.00     0.000 C 
BRANCH   3   4
HETATM    4  C   LIG     1      18.207  38.852  22.814  1.00  0.00     0.000 C 
BRANCH   4   5
HETATM    5  C   LIG     1      17.900  38.694  21.317  1.00  0.00     0.000 C 
BRANCH   5   6
HETATM    6  C   LIG     1      18.984  39.368  20.462  1.00  0.00    -0.000 C 
BRANCH   6   7
HETATM    7  C   LIG     1      19.868  38.353  19.720  1.00  0.00    -0.005 C 
HETATM    8  C   LIG     1      19.177  37.004  19.518  1.00  0.00     0.005 C 
ENDBRANCH   6   7
ENDBRANCH   5   6
ENDBRANCH   4   5
ENDBRANCH   3   4
ENDBRANCH   2   3
ENDBRANCH   1   2
BRANCH   1   9
HETATM    9  C   LIG     1      17.637  35.899  25.836  1.00  0.00     0.000 C 
BRANCH   9  10
HETATM   10  C   LIG     1      17.541  34.826  24.739  1.00  0.00     0.000 C 
BRANCH  10  11
HETATM   11  C   LIG     1      16.574  35.223  23.610  1.00  0.00     0.000 C 
BRANCH  11  12
HETATM   12  C   LIG     1      17.231  35.161  22.222  1.00  0.00     0.002 C 
BRANCH  12  13
HETATM   13  C   LIG     1      16.206  35.256  21.079  1.00  0.00     0.026 C 
BRANCH  13  14
HETATM   14  C   LIG     1      15.312  34.017  21.019  1.00  0.00     0.164 C 
BRANCH  14  15
HETATM   15  O   LIG     1      14.023  34.329  21.472  1.00  0.00    -0.401 OA
HETATM   16  H   LIG     1      13.828  35.241  21.135  1.00  0.00     0.209 HD
ENDBRANCH  14  15
ENDBRANCH  13  14
ENDBRANCH  12  13
ENDBRANCH  11  12
ENDBRANCH  10  11
ENDBRANCH   9  10
ENDBRANCH   1   9
TORSDOF 13
ENDMDL
MODEL 3
REMARK VINA RESULT:      -6.1      1.926      2.989
REMARK  13 active torsions:
REMARK  status: ('A' for Active; 'I' for Inactive)
REMARK    1  A    between atoms: C_2  and  C_3 
REMARK    2  A    between atoms: C_3  and  C_4 
REMARK    3  A    between atoms: C_4  and  C_5 
REMARK    4  A    between atoms: C_5  and  C_6 
REMARK    5  A    between atoms: C_6  and  C_7 
REMARK    6  A    between atoms: C_7  and  C_8 
REMARK    7  A    between atoms: C_8  and  C_9 
REMARK    8  A    between atoms: C_9  and  C_10 
REMARK    9  A    between atoms: C_10  and  C_11 
REMARK   10  A    between atoms: C_11  and  C_12 
REMARK   11  A    between atoms: C_12  and  C_13 
REMARK   12  A    between atoms: C_13  and  C_14 
REMARK   13  A    between atoms: C_14  and  O_15 
ROOT
HETATM    1  C   LIG     1      17.504  36.296  21.614  1.00  0.00     0.000 C 
ENDROOT
BRANCH   1   2
HETATM    2  C   LIG     1      17.297  37.811  21.775  1.00  0.00     0.000 C 
BRANCH   2   3
HETATM    3  C   LIG     1      16.765  38.189  23.169  1.00  0.00     0.000 C 
BRANCH   3   4
HETATM    4  C   LIG     1      17.886  38.314  24.214  1.00  0.00     0.000 C 
BRANCH   4   5
HETATM    5  C   LIG     1      17.470  37.789  25.597  1.00  0.00     0.000 C 
BRANCH   5   6
HETATM    6  C   LIG     1      18.508  36.797  26.140  1.00  0.00    -0.000 C 
BRANCH   6   7
HETATM    7  C   LIG     1      17.936  35.381  26.318  1.00  0.00    -0.005 C 
HETATM    8  C   LIG     1      17.277  34.846  25.047  1.00  0.00     0.005 C 
ENDBRANCH   6   7
ENDBRANCH   5   6
ENDBRANCH   4   5
ENDBRANCH   3   4
ENDBRANCH   2   3
ENDBRANCH   1   2
BRANCH   1   9
HETATM    9  C   LIG     1      16.521  35.667  20.610  1.00  0.00     0.000 C 
BRANCH   9  10
HETATM   10  C   LIG     1      15.165  35.326  21.250  1.00  0.00     0.000 C 
BRANCH  10  11
HETATM   11  C   LIG     1      14.845  33.823  21.188  1.00  0.00     0.000 C 
BRANCH  11  12
HETATM   12  C   LIG     1      15.614  33.101  20.069  1.00  0.00     0.002 C 
BRANCH  12  13
HETATM   13  C   LIG     1      14.856  31.879  19.526  1.00  0.00     0.026 C 
BRANCH  13  14
HETATM   14  C   LIG     1      14.582  32.005  18.026  1.00  0.00     0.164 C 
BRANCH  14  15
HETATM   15  O   LIG     1      13.208  31.900  17.775  1.00  0.00    -0.401 OA
HETATM   16  H   LIG     1      13.007  30.929  17.752  1.00  0.00     0.209 HD
ENDBRANCH  14  15
ENDBRANCH  13  14
ENDBRANCH  12  13
ENDBRANCH  11  12
ENDBRANCH  10  11
ENDBRANCH   9  10
ENDBRANCH   1   9
TORSDOF 13
ENDMDL
MODEL 4
REMARK VINA RESULT:      -6.0      2.715      4.201
REMARK  13 active torsions:
REMARK  status: ('A' for Active; 'I' for Inactive)
REMARK    1  A    between atoms: C_2  and  C_3 
REMARK    2  A    between atoms: C_3  and  C_4 
REMARK    3  A    between atoms: C_4  and  C_5 
REMARK    4  A    between atoms: C_5  and  C_6 
REMARK    5  A    between atoms: C_6  and  C_7 
REMARK    6  A    between atoms: C_7  and  C_8 
REMARK    7  A    between atoms: C_8  and  C_9 
REMARK    8  A    between atoms: C_9  and  C_10 
REMARK    9  A    between atoms: C_10  and  C_11 
REMARK   10  A    between atoms: C_11  and  C_12 
REMARK   11  A    between atoms: C_12  and  C_13 
REMARK   12  A    between atoms: C_13  and  C_14 
REMARK   13  A    between atoms: C_14  and  O_15 
ROOT
HETATM    1  C   LIG     1      17.505  36.048  21.350  1.00  0.00     0.000 C 
ENDROOT
BRANCH   1   2
HETATM    2  C   LIG     1      16.365  36.774  22.083  1.00  0.00     0.000 C 
BRANCH   2   3
HETATM    3  C   LIG     1      16.683  38.257  22.345  1.00  0.00     0.000 C 
BRANCH   3   4
HETATM    4  C   LIG     1      17.869  38.447  23.304  1.00  0.00     0.000 C 
BRANCH   4   5
HETATM    5  C   LIG     1      17.474  38.280  24.779  1.00  0.00     0.000 C 
BRANCH   5   6
HETATM    6  C   LIG     1      18.288  37.158  25.440  1.00  0.00    -0.000 C 
BRANCH   6   7
HETATM    7  C   LIG     1      17.553  35.808  25.426  1.00  0.00    -0.005 C 
HETATM    8  C   LIG     1      18.193  34.777  26.356  1.00  0.00     0.005 C 
ENDBRANCH   6   7
ENDBRANCH   5   6
ENDBRANCH   4   5
ENDBRANCH   3   4
ENDBRANCH   2   3
ENDBRANCH   1   2
BRANCH   1   9
HETATM    9  C   LIG     1      17.794  36.647  19.962  1.00  0.00     0.000 C 
BRANCH   9  10
HETATM   10  C   LIG     1      19.293  36.904  19.733  1.00  0.00     0.000 C 
BRANCH  10  11
HETATM   11  C   LIG     1      19.668  38.388  19.892  1.00  0.00     0.000 C 
BRANCH  11  12
HETATM   12  C   LIG     1      18.823  39.309  18.996  1.00  0.00     0.002 C 
BRANCH  12  13
HETATM   13  C   LIG     1      19.159  39.152  17.504  1.00  0.00     0.026 C 
BRANCH  13  14
HETATM   14  C   LIG     1      18.237  39.998  16.625  1.00  0.00     0.164 C 
BRANCH  14  15
HETATM   15  O   LIG     1      17.968  39.330  15.423  1.00  0.00    -0.401 OA
HETATM   16  H   LIG     1      16.984  39.207  15.391  1.00  0.00     0.209 HD
ENDBRANCH  14  15
ENDBRANCH  13  14
ENDBRANCH  12  13
ENDBRANCH  11  12
ENDBRANCH  10  11
ENDBRANCH   9  10
ENDBRANCH   1   9
TORSDOF 13
ENDMDL
MODEL 5
REMARK VINA RESULT:      -6.0      1.538      4.430
REMARK  13 active torsions:
REMARK  status: ('A' for Active; 'I' for Inactive)
REMARK    1  A    between atoms: C_2  and  C_3 
REMARK    2  A    between atoms: C_3  and  C_4 
REMARK    3  A    between atoms: C_4  and  C_5 
REMARK    4  A    between atoms: C_5  and  C_6 
REMARK    5  A    between atoms: C_6  and  C_7 
REMARK    6  A    between atoms: C_7  and  C_8 
REMARK    7  A    between atoms: C_8  and  C_9 
REMARK    8  A    between atoms: C_9  and  C_10 
REMARK    9  A    between atoms: C_10  and  C_11 
REMARK   10  A    between atoms: C_11  and  C_12 
REMARK   11  A    between atoms: C_12  and  C_13 
REMARK   12  A    between atoms: C_13  and  C_14 
REMARK   13  A    between atoms: C_14  and  O_15 
ROOT
HETATM    1  C   LIG     1      18.357  39.485  21.481  1.00  0.00     0.000 C 
ENDROOT
BRANCH   1   2
HETATM    2  C   LIG     1      19.560  39.068  20.620  1.00  0.00     0.000 C 
BRANCH   2   3
HETATM    3  C   LIG     1      19.150  38.221  19.403  1.00  0.00     0.000 C 
BRANCH   3   4
HETATM    4  C   LIG     1      19.065  36.721  19.729  1.00  0.00     0.000 C 
BRANCH   4   5
HETATM    5  C   LIG     1      17.617  36.217  19.833  1.00  0.00     0.000 C 
BRANCH   5   6
HETATM    6  C   LIG     1      17.363  35.564  21.199  1.00  0.00    -0.000 C 
BRANCH   6   7
HETATM    7  C   LIG     1      16.022  34.815  21.256  1.00  0.00    -0.005 C 
HETATM    8  C   LIG     1      14.827  35.753  21.429  1.00  0.00     0.005 C 
ENDBRANCH   6   7
ENDBRANCH   5   6
ENDBRANCH   4   5
ENDBRANCH   3   4
ENDBRANCH   2   3
ENDBRANCH   1   2
BRANCH   1   9
HETATM    9  C   LIG     1      18.324  38.765  22.842  1.00  0.00     0.000 C 
BRANCH   9  10
HETATM   10  C   LIG     1      16.916  38.265  23.208  1.00  0.00     0.000 C 
BRANCH  10  11
HETATM   11  C   LIG     1      16.848  37.687  24.632  1.00  0.00     0.000 C 
BRANCH  11  12
HETATM   12  C   LIG     1      18.236  37.354  25.201  1.00  0.00     0.002 C 
BRANCH  12  13
HETATM   13  C   LIG     1      18.193  36.214  26.233  1.00  0.00     0.026 C 
BRANCH  13  14
HETATM   14  C   LIG     1      17.557  34.950  25.651  1.00  0.00     0.164 C 
BRANCH  14  15
HETATM   15  O   LIG     1      16.641  34.408  26.562  1.00  0.00    -0.401 OA
HETATM   16  H   LIG     1      16.859  34.809  27.443  1.00  0.00     0.209 HD
ENDBRANCH  14  15
ENDBRANCH  13  14
ENDBRANCH  12  13
ENDBRANCH  11  12
ENDBRANCH  10  11
ENDBRANCH   9  10
ENDBRANCH   1   9
TORSDOF 13
ENDMDL
MODEL 6
REMARK VINA RESULT:      -5.9      2.268      3.846
REMARK  13 active torsions:
REMARK  status: ('A' for Active; 'I' for Inactive)
REMARK    1  A    between atoms: C_2  and  C_3 
REMARK    2  A    between atoms: C_3  and  C_4 
REMARK    3  A    between atoms: C_4  and  C_5 
REMARK    4  A    between atoms: C_5  and  C_6 
REMARK    5  A    between atoms: C_6  and  C_7 
REMARK    6  A    between atoms: C_7  and  C_8 
REMARK    7  A    between atoms: C_8  and  C_9 
REMARK    8  A    between atoms: C_9  and  C_10 
REMARK    9  A    between atoms: C_10  and  C_11 
REMARK   10  A    between atoms: C_11  and  C_12 
REMARK   11  A    between atoms: C_12  and  C_13 
REMARK   12  A    between atoms: C_13  and  C_14 
REMARK   13  A    between atoms: C_14  and  O_15 
ROOT
HETATM    1  C   LIG     1      16.833  35.601  22.641  1.00  0.00     0.000 C 
ENDROOT
BRANCH   1   2
HETATM    2  C   LIG     1      15.907  36.743  23.087  1.00  0.00     0.000 C 
BRANCH   2   3
HETATM    3  C   LIG     1      16.577  38.124  22.978  1.00  0.00     0.000 C 
BRANCH   3   4
HETATM    4  C   LIG     1      17.740  38.296  23.970  1.00  0.00     0.000 C 
BRANCH   4   5
HETATM    5  C   LIG     1      17.409  37.761  25.371  1.00  0.00     0.000 C 
BRANCH   5   6
HETATM    6  C   LIG     1      18.632  37.076  25.998  1.00  0.00    -0.000 C 
BRANCH   6   7
HETATM    7  C   LIG     1      18.261  35.813  26.791  1.00  0.00    -0.005 C 
HETATM    8  C   LIG     1      17.426  34.826  25.974  1.00  0.00     0.005 C 
ENDBRANCH   6   7
ENDBRANCH   5   6
ENDBRANCH   4   5
ENDBRANCH   3   4
ENDBRANCH   2   3
ENDBRANCH   1   2
BRANCH   1   9
HETATM    9  C   LIG     1      16.426  35.003  21.282  1.00  0.00     0.000 C 
BRANCH   9  10
HETATM   10  C   LIG     1      16.917  35.851  20.097  1.00  0.00     0.000 C 
BRANCH  10  11
HETATM   11  C   LIG     1      18.318  36.440  20.334  1.00  0.00     0.000 C 
BRANCH  11  12
HETATM   12  C   LIG     1      18.872  37.163  19.095  1.00  0.00     0.002 C 
BRANCH  12  13
HETATM   13  C   LIG     1      19.661  38.432  19.456  1.00  0.00     0.026 C 
BRANCH  13  14
HETATM   14  C   LIG     1      18.760  39.497  20.084  1.00  0.00     0.164 C 
BRANCH  14  15
HETATM   15  O   LIG     1      19.226  39.832  21.362  1.00  0.00    -0.401 OA
HETATM   16  H   LIG     1      18.510  40.375  21.782  1.00  0.00     0.209 HD
ENDBRANCH  14  15
ENDBRANCH  13  14
ENDBRANCH  12  13
ENDBRANCH  11  12
ENDBRANCH  10  11
ENDBRANCH   9  10
ENDBRANCH   1   9
TORSDOF 13
ENDMDL
MODEL 7
REMARK VINA RESULT:      -5.8      2.939      6.212
REMARK  13 active torsions:
REMARK  status: ('A' for Active; 'I' for Inactive)
REMARK    1  A    between atoms: C_2  and  C_3 
REMARK    2  A    between atoms: C_3  and  C_4 
REMARK    3  A    between atoms: C_4  and  C_5 
REMARK    4  A    between atoms: C_5  and  C_6 
REMARK    5  A    between atoms: C_6  and  C_7 
REMARK    6  A    between atoms: C_7  and  C_8 
REMARK    7  A    between atoms: C_8  and  C_9 
REMARK    8  A    between atoms: C_9  and  C_10 
REMARK    9  A    between atoms: C_10  and  C_11 
REMARK   10  A    between atoms: C_11  and  C_12 
REMARK   11  A    between atoms: C_12  and  C_13 
REMARK   12  A    between atoms: C_13  and  C_14 
REMARK   13  A    between atoms: C_14  and  O_15 
ROOT
HETATM    1  C   LIG     1      17.063  36.513  23.103  1.00  0.00     0.000 C 
ENDROOT
BRANCH   1   2
HETATM    2  C   LIG     1      16.756  35.242  22.294  1.00  0.00     0.000 C 
BRANCH   2   3
HETATM    3  C   LIG     1      16.823  35.479  20.775  1.00  0.00     0.000 C 
BRANCH   3   4
HETATM    4  C   LIG     1      15.692  34.767  20.016  1.00  0.00     0.000 C 
BRANCH   4   5
HETATM    5  C   LIG     1      15.130  33.560  20.782  1.00  0.00     0.000 C 
BRANCH   5   6
HETATM    6  C   LIG     1      15.122  32.305  19.896  1.00  0.00    -0.000 C 
BRANCH   6   7
HETATM    7  C   LIG     1      15.165  32.640  18.397  1.00  0.00    -0.005 C 
HETATM    8  C   LIG     1      14.170  31.816  17.578  1.00  0.00     0.005 C 
ENDBRANCH   6   7
ENDBRANCH   5   6
ENDBRANCH   4   5
ENDBRANCH   3   4
ENDBRANCH   2   3
ENDBRANCH   1   2
BRANCH   1   9
HETATM    9  C   LIG     1      16.017  37.622  22.885  1.00  0.00     0.000 C 
BRANCH   9  10
HETATM   10  C   LIG     1      16.660  38.978  22.551  1.00  0.00     0.000 C 
BRANCH  10  11
HETATM   11  C   LIG     1      18.181  38.875  22.346  1.00  0.00     0.000 C 
BRANCH  11  12
HETATM   12  C   LIG     1      18.629  39.407  20.975  1.00  0.00     0.002 C 
BRANCH  12  13
HETATM   13  C   LIG     1      18.998  38.281  19.996  1.00  0.00     0.026 C 
BRANCH  13  14
HETATM   14  C   LIG     1      19.568  38.834  18.688  1.00  0.00     0.164 C 
BRANCH  14  15
HETATM   15  O   LIG     1      20.776  39.501  18.932  1.00  0.00    -0.401 OA
HETATM   16  H   LIG     1      21.259  39.519  18.065  1.00  0.00     0.209 HD
ENDBRANCH  14  15
ENDBRANCH  13  14
ENDBRANCH  12  13
ENDBRANCH  11  12
ENDBRANCH  10  11
ENDBRANCH   9  10
ENDBRANCH   1   9
TORSDOF 13
ENDMDL
MODEL 8
REMARK VINA RESULT:      -5.8      1.636      4.239
REMARK  13 active torsions:
REMARK  status: ('A' for Active; 'I' for Inactive)
REMARK    1  A    between atoms: C_2  and  C_3 
REMARK    2  A    between atoms: C_3  and  C_4 
REMARK    3  A    between atoms: C_4  and  C_5 
REMARK    4  A    between atoms: C_5  and  C_6 
REMARK    5  A    between atoms: C_6  and  C_7 
REMARK    6  A    between atoms: C_7  and  C_8 
REMARK    7  A    between atoms: C_8  and  C_9 
REMARK    8  A    between atoms: C_9  and  C_10 
REMARK    9  A    between atoms: C_10  and  C_11 
REMARK   10  A    between atoms: C_11  and  C_12 
REMARK   11  A    between atoms: C_12  and  C_13 
REMARK   12  A    between atoms: C_13  and  C_14 
REMARK   13  A    between atoms: C_14  and  O_15 
ROOT
HETATM    1  C   LIG     1      17.190  36.507  24.350  1.00  0.00     0.000 C 
ENDROOT
BRANCH   1   2
HETATM    2  C   LIG     1      16.392  37.618  23.650  1.00  0.00     0.000 C 
BRANCH   2   3
HETATM    3  C   LIG     1      17.189  38.928  23.524  1.00  0.00     0.000 C 
BRANCH   3   4
HETATM    4  C   LIG     1      18.394  38.798  22.578  1.00  0.00     0.000 C 
BRANCH   4   5
HETATM    5  C   LIG     1      17.996  38.861  21.096  1.00  0.00     0.000 C 
BRANCH   5   6
HETATM    6  C   LIG     1      19.162  39.372  20.237  1.00  0.00    -0.000 C 
BRANCH   6   7
HETATM    7  C   LIG     1      19.955  38.233  19.578  1.00  0.00    -0.005 C 
HETATM    8  C   LIG     1      19.167  36.924  19.514  1.00  0.00     0.005 C 
ENDBRANCH   6   7
ENDBRANCH   5   6
ENDBRANCH   4   5
ENDBRANCH   3   4
ENDBRANCH   2   3
ENDBRANCH   1   2
BRANCH   1   9
HETATM    9  C   LIG     1      17.165  35.178  23.572  1.00  0.00     0.000 C 
BRANCH   9  10
HETATM   10  C   LIG     1      16.904  35.381  22.071  1.00  0.00     0.000 C 
BRANCH  10  11
HETATM   11  C   LIG     1      15.649  34.637  21.585  1.00  0.00     0.000 C 
BRANCH  11  12
HETATM   12  C   LIG     1      15.808  34.076  20.162  1.00  0.00     0.002 C 
BRANCH  12  13
HETATM   13  C   LIG     1      15.209  32.668  20.012  1.00  0.00     0.026 C 
BRANCH  13  14
HETATM   14  C   LIG     1      14.966  32.312  18.544  1.00  0.00     0.164 C 
BRANCH  14  15
HETATM   15  O   LIG     1      13.820  31.514  18.424  1.00  0.00    -0.401 OA
HETATM   16  H   LIG     1      13.478  31.662  17.504  1.00  0.00     0.209 HD
ENDBRANCH  14  15
ENDBRANCH  13  14
ENDBRANCH  12  13
ENDBRANCH  11  12
ENDBRANCH  10  11
ENDBRANCH   9  10
ENDBRANCH   1   9
TORSDOF 13
ENDMDL
MODEL 9
REMARK VINA RESULT:      -5.7      3.937      7.625
REMARK  13 active torsions:
REMARK  status: ('A' for Active; 'I' for Inactive)
REMARK    1  A    between atoms: C_2  and  C_3 
REMARK    2  A    between atoms: C_3  and  C_4 
REMARK    3  A    between atoms: C_4  and  C_5 
REMARK    4  A    between atoms: C_5  and  C_6 
REMARK    5  A    between atoms: C_6  and  C_7 
REMARK    6  A    between atoms: C_7  and  C_8 
REMARK    7  A    between atoms: C_8  and  C_9 
REMARK    8  A    between atoms: C_9  and  C_10 
REMARK    9  A    between atoms: C_10  and  C_11 
REMARK   10  A    between atoms: C_11  and  C_12 
REMARK   11  A    between atoms: C_12  and  C_13 
REMARK   12  A    between atoms: C_13  and  C_14 
REMARK   13  A    between atoms: C_14  and  O_15 
ROOT
HETATM    1  C   LIG     1      15.572  34.582  21.583  1.00  0.00     0.000 C 
ENDROOT
BRANCH   1   2
HETATM    2  C   LIG     1      15.639  34.076  20.134  1.00  0.00     0.000 C 
BRANCH   2   3
HETATM    3  C   LIG     1      15.530  32.545  20.038  1.00  0.00     0.000 C 
BRANCH   3   4
HETATM    4  C   LIG     1      14.773  32.084  18.781  1.00  0.00     0.000 C 
BRANCH   4   5
HETATM    5  C   LIG     1      15.365  32.660  17.486  1.00  0.00     0.000 C 
BRANCH   5   6
HETATM    6  C   LIG     1      14.603  32.141  16.258  1.00  0.00    -0.000 C 
BRANCH   6   7
HETATM    7  C   LIG     1      13.690  30.950  16.588  1.00  0.00    -0.005 C 
HETATM    8  C   LIG     1      13.087  30.303  15.341  1.00  0.00     0.005 C 
ENDBRANCH   6   7
ENDBRANCH   5   6
ENDBRANCH   4   5
ENDBRANCH   3   4
ENDBRANCH   2   3
ENDBRANCH   1   2
BRANCH   1   9
HETATM    9  C   LIG     1      16.875  35.269  22.034  1.00  0.00     0.000 C 
BRANCH   9  10
HETATM   10  C   LIG     1      16.727  36.795  22.143  1.00  0.00     0.000 C 
BRANCH  10  11
HETATM   11  C   LIG     1      17.761  37.550  21.289  1.00  0.00     0.000 C 
BRANCH  11  12
HETATM   12  C   LIG     1      18.289  36.705  20.118  1.00  0.00     0.002 C 
BRANCH  12  13
HETATM   13  C   LIG     1      19.494  37.354  19.419  1.00  0.00     0.026 C 
BRANCH  13  14
HETATM   14  C   LIG     1      19.409  38.881  19.447  1.00  0.00     0.164 C 
BRANCH  14  15
HETATM   15  O   LIG     1      20.649  39.440  19.112  1.00  0.00    -0.401 OA
HETATM   16  H   LIG     1      21.332  38.890  19.575  1.00  0.00     0.209 HD
ENDBRANCH  14  15
ENDBRANCH  13  14
ENDBRANCH  12  13
ENDBRANCH  11  12
ENDBRANCH  10  11
ENDBRANCH   9  10
ENDBRANCH   1   9
TORSDOF 13
ENDMDL
MODEL 10
REMARK VINA RESULT:      -5.6      2.665      3.993
REMARK  13 active torsions:
REMARK  status: ('A' for Active; 'I' for Inactive)
REMARK    1  A    between atoms: C_2  and  C_3 
REMARK    2  A    between atoms: C_3  and  C_4 
REMARK    3  A    between atoms: C_4  and  C_5 
REMARK    4  A    between atoms: C_5  and  C_6 
REMARK    5  A    between atoms: C_6  and  C_7 
REMARK    6  A    between atoms: C_7  and  C_8 
REMARK    7  A    between atoms: C_8  and  C_9 
REMARK    8  A    between atoms: C_9  and  C_10 
REMARK    9  A    between atoms: C_10  and  C_11 
REMARK   10  A    between atoms: C_11  and  C_12 
REMARK   11  A    between atoms: C_12  and  C_13 
REMARK   12  A    between atoms: C_13  and  C_14 
REMARK   13  A    between atoms: C_14  and  O_15 
ROOT
HETATM    1  C   LIG     1      16.442  34.980  22.085  1.00  0.00     0.000 C 
ENDROOT
BRANCH   1   2
HETATM    2  C   LIG     1      17.251  36.285  22.147  1.00  0.00     0.000 C 
BRANCH   2   3
HETATM    3  C   LIG     1      16.466  37.436  22.799  1.00  0.00     0.000 C 
BRANCH   3   4
HETATM    4  C   LIG     1      17.337  38.287  23.739  1.00  0.00     0.000 C 
BRANCH   4   5
HETATM    5  C   LIG     1      17.232  37.847  25.207  1.00  0.00     0.000 C 
BRANCH   5   6
HETATM    6  C   LIG     1      18.526  37.159  25.666  1.00  0.00    -0.000 C 
BRANCH   6   7
HETATM    7  C   LIG     1      18.261  35.934  26.555  1.00  0.00    -0.005 C 
HETATM    8  C   LIG     1      17.433  34.860  25.851  1.00  0.00     0.005 C 
ENDBRANCH   6   7
ENDBRANCH   5   6
ENDBRANCH   4   5
ENDBRANCH   3   4
ENDBRANCH   2   3
ENDBRANCH   1   2
BRANCH   1   9
HETATM    9  C   LIG     1      15.611  34.857  20.795  1.00  0.00     0.000 C 
BRANCH   9  10
HETATM   10  C   LIG     1      15.247  33.400  20.467  1.00  0.00     0.000 C 
BRANCH  10  11
HETATM   11  C   LIG     1      15.421  33.071  18.974  1.00  0.00     0.000 C 
BRANCH  11  12
HETATM   12  C   LIG     1      14.566  31.873  18.530  1.00  0.00     0.002 C 
BRANCH  12  13
HETATM   13  C   LIG     1      14.461  31.758  17.000  1.00  0.00     0.026 C 
BRANCH  13  14
HETATM   14  C   LIG     1      13.067  31.306  16.562  1.00  0.00     0.164 C 
BRANCH  14  15
HETATM   15  O   LIG     1      12.087  32.078  17.200  1.00  0.00    -0.401 OA
HETATM   16  H   LIG     1      11.434  31.434  17.578  1.00  0.00     0.209 HD
ENDBRANCH  14  15
ENDBRANCH  13  14
ENDBRANCH  12  13
ENDBRANCH  11  12
ENDBRANCH  10  11
ENDBRANCH   9  10
ENDBRANCH   1   9
TORSDOF 13
ENDMDL
MODEL 11
REMARK VINA RESULT:      -5.4      4.728      6.463
REMARK  13 active torsions:
REMARK  status: ('A' for Active; 'I' for Inactive)
REMARK    1  A    between atoms: C_2  and  C_3 
REMARK    2  A    between atoms: C_3  and  C_4 
REMARK    3  A    between atoms: C_4  and  C_5 
REMARK    4  A    between atoms: C_5  and  C_6 
REMARK    5  A    between atoms: C_6  and  C_7 
REMARK    6  A    between atoms: C_7  and  C_8 
REMARK    7  A    between atoms: C_8  and  C_9 
REMARK    8  A    between atoms: C_9  and  C_10 
REMARK    9  A    between atoms: C_10  and  C_11 
REMARK   10  A    between atoms: C_11  and  C_12 
REMARK   11  A    between atoms: C_12  and  C_13 
REMARK   12  A    between atoms: C_13  and  C_14 
REMARK   13  A    between atoms: C_14  and  O_15 
ROOT
HETATM    1  C   LIG     1      15.692  32.469  20.022  1.00  0.00     0.000 C 
ENDROOT
BRANCH   1   2
HETATM    2  C   LIG     1      15.077  33.693  20.720  1.00  0.00     0.000 C 
BRANCH   2   3
HETATM    3  C   LIG     1      15.908  34.971  20.511  1.00  0.00     0.000 C 
BRANCH   3   4
HETATM    4  C   LIG     1      16.116  35.759  21.814  1.00  0.00     0.000 C 
BRANCH   4   5
HETATM    5  C   LIG     1      17.075  35.058  22.787  1.00  0.00     0.000 C 
BRANCH   5   6
HETATM    6  C   LIG     1      17.142  35.807  24.126  1.00  0.00    -0.000 C 
BRANCH   6   7
HETATM    7  C   LIG     1      17.489  34.883  25.304  1.00  0.00    -0.005 C 
HETATM    8  C   LIG     1      18.194  35.617  26.444  1.00  0.00     0.005 C 
ENDBRANCH   6   7
ENDBRANCH   5   6
ENDBRANCH   4   5
ENDBRANCH   3   4
ENDBRANCH   2   3
ENDBRANCH   1   2
BRANCH   1   9
HETATM    9  C   LIG     1      14.680  31.718  19.138  1.00  0.00     0.000 C 
BRANCH   9  10
HETATM   10  C   LIG     1      14.614  32.284  17.710  1.00  0.00     0.000 C 
BRANCH  10  11
HETATM   11  C   LIG     1      13.787  31.398  16.762  1.00  0.00     0.000 C 
BRANCH  11  12
HETATM   12  C   LIG     1      14.543  31.047  15.471  1.00  0.00     0.002 C 
BRANCH  12  13
HETATM   13  C   LIG     1      13.906  29.870  14.715  1.00  0.00     0.026 C 
BRANCH  13  14
HETATM   14  C   LIG     1      14.963  28.996  14.036  1.00  0.00     0.164 C 
BRANCH  14  15
HETATM   15  O   LIG     1      15.627  29.725  13.042  1.00  0.00    -0.401 OA
HETATM   16  H   LIG     1      16.481  30.027  13.446  1.00  0.00     0.209 HD
ENDBRANCH  14  15
ENDBRANCH  13  14
ENDBRANCH  12  13
ENDBRANCH  11  12
ENDBRANCH  10  11
ENDBRANCH   9  10
ENDBRANCH   1   9
TORSDOF 13
ENDMDL
MODEL 12
REMARK VINA RESULT:      -5.3      3.051      5.111
REMARK  13 active torsions:
REMARK  status: ('A' for Active; 'I' for Inactive)
REMARK    1  A    between atoms: C_2  and  C_3 
REMARK    2  A    between atoms: C_3  and  C_4 
REMARK    3  A    between atoms: C_4  and  C_5 
REMARK    4  A    between atoms: C_5  and  C_6 
REMARK    5  A    between atoms: C_6  and  C_7 
REMARK    6  A    between atoms: C_7  and  C_8 
REMARK    7  A    between atoms: C_8  and  C_9 
REMARK    8  A    between atoms: C_9  and  C_10 
REMARK    9  A    between atoms: C_10  and  C_11 
REMARK   10  A    between atoms: C_11  and  C_12 
REMARK   11  A    between atoms: C_12  and  C_13 
REMARK   12  A    between atoms: C_13  and  C_14 
REMARK   13  A    between atoms: C_14  and  O_15 
ROOT
HETATM    1  C   LIG     1      15.515  35.017  21.337  1.00  0.00     0.000 C 
ENDROOT
BRANCH   1   2
HETATM    2  C   LIG     1      16.535  36.155  21.500  1.00  0.00     0.000 C 
BRANCH   2   3
HETATM    3  C   LIG     1      16.903  36.412  22.972  1.00  0.00     0.000 C 
BRANCH   3   4
HETATM    4  C   LIG     1      17.234  37.888  23.249  1.00  0.00     0.000 C 
BRANCH   4   5
HETATM    5  C   LIG     1      17.358  38.721  21.964  1.00  0.00     0.000 C 
BRANCH   5   6
HETATM    6  C   LIG     1      18.823  39.094  21.694  1.00  0.00    -0.000 C 
BRANCH   6   7
HETATM    7  C   LIG     1      19.148  39.164  20.193  1.00  0.00    -0.005 C 
HETATM    8  C   LIG     1      19.345  37.784  19.566  1.00  0.00     0.005 C 
ENDBRANCH   6   7
ENDBRANCH   5   6
ENDBRANCH   4   5
ENDBRANCH   3   4
ENDBRANCH   2   3
ENDBRANCH   1   2
BRANCH   1   9
HETATM    9  C   LIG     1      15.595  34.341  19.956  1.00  0.00     0.000 C 
BRANCH   9  10
HETATM   10  C   LIG     1      15.521  32.808  20.046  1.00  0.00     0.000 C 
BRANCH  10  11
HETATM   11  C   LIG     1      14.898  32.173  18.791  1.00  0.00     0.000 C 
BRANCH  11  12
HETATM   12  C   LIG     1      15.011  33.078  17.554  1.00  0.00     0.002 C 
BRANCH  12  13
HETATM   13  C   LIG     1      15.158  32.277  16.249  1.00  0.00     0.026 C 
BRANCH  13  14
HETATM   14  C   LIG     1      16.316  32.797  15.396  1.00  0.00     0.164 C 
BRANCH  14  15
HETATM   15  O   LIG     1      16.540  34.154  15.659  1.00  0.00    -0.401 OA
HETATM   16  H   LIG     1      16.864  34.202  16.596  1.00  0.00     0.209 HD
ENDBRANCH  14  15
ENDBRANCH  13  14
ENDBRANCH  12  13
ENDBRANCH  11  12
ENDBRANCH  10  11
ENDBRANCH   9  10
ENDBRANCH   1   9
TORSDOF 13
ENDMDL
MODEL 13
REMARK VINA RESULT:      -5.3      3.394      7.209
REMARK  13 active torsions:
REMARK  status: ('A' for Active; 'I' for Inactive)
REMARK    1  A    between atoms: C_2  and  C_3 
REMARK    2  A    between atoms: C_3  and  C_4 
REMARK    3  A    between atoms: C_4  and  C_5 
REMARK    4  A    between atoms: C_5  and  C_6 
REMARK    5  A    between atoms: C_6  and  C_7 
REMARK    6  A    between atoms: C_7  and  C_8 
REMARK    7  A    between atoms: C_8  and  C_9 
REMARK    8  A    between atoms: C_9  and  C_10 
REMARK    9  A    between atoms: C_10  and  C_11 
REMARK   10  A    between atoms: C_11  and  C_12 
REMARK   11  A    between atoms: C_12  and  C_13 
REMARK   12  A    between atoms: C_13  and  C_14 
REMARK   13  A    between atoms: C_14  and  O_15 
ROOT
HETATM    1  C   LIG     1      15.963  35.295  21.160  1.00  0.00     0.000 C 
ENDROOT
BRANCH   1   2
HETATM    2  C   LIG     1      15.681  34.357  19.976  1.00  0.00     0.000 C 
BRANCH   2   3
HETATM    3  C   LIG     1      15.219  32.960  20.426  1.00  0.00     0.000 C 
BRANCH   3   4
HETATM    4  C   LIG     1      15.106  31.969  19.256  1.00  0.00     0.000 C 
BRANCH   4   5
HETATM    5  C   LIG     1      14.894  32.667  17.905  1.00  0.00     0.000 C 
BRANCH   5   6
HETATM    6  C   LIG     1      13.737  32.021  17.130  1.00  0.00    -0.000 C 
BRANCH   6   7
HETATM    7  C   LIG     1      14.223  31.101  15.999  1.00  0.00    -0.005 C 
HETATM    8  C   LIG     1      13.086  30.323  15.338  1.00  0.00     0.005 C 
ENDBRANCH   6   7
ENDBRANCH   5   6
ENDBRANCH   4   5
ENDBRANCH   3   4
ENDBRANCH   2   3
ENDBRANCH   1   2
BRANCH   1   9
HETATM    9  C   LIG     1      17.201  36.182  20.933  1.00  0.00     0.000 C 
BRANCH   9  10
HETATM   10  C   LIG     1      17.387  37.227  22.045  1.00  0.00     0.000 C 
BRANCH  10  11
HETATM   11  C   LIG     1      16.831  36.752  23.399  1.00  0.00     0.000 C 
BRANCH  11  12
HETATM   12  C   LIG     1      17.444  37.511  24.588  1.00  0.00     0.002 C 
BRANCH  12  13
HETATM   13  C   LIG     1      17.939  36.569  25.697  1.00  0.00     0.026 C 
BRANCH  13  14
HETATM   14  C   LIG     1      17.568  35.113  25.410  1.00  0.00     0.164 C 
BRANCH  14  15
HETATM   15  O   LIG     1      16.760  34.609  26.437  1.00  0.00    -0.401 OA
HETATM   16  H   LIG     1      16.252  35.384  26.792  1.00  0.00     0.209 HD
ENDBRANCH  14  15
ENDBRANCH  13  14
ENDBRANCH  12  13
ENDBRANCH  11  12
ENDBRANCH  10  11
ENDBRANCH   9  10
ENDBRANCH   1   9
TORSDOF 13
ENDMDL
MODEL 14
REMARK VINA RESULT:      -5.3      4.171      8.194
REMARK  13 active torsions:
REMARK  status: ('A' for Active; 'I' for Inactive)
REMARK    1  A    between atoms: C_2  and  C_3 
REMARK    2  A    between atoms: C_3  and  C_4 
REMARK    3  A    between atoms: C_4  and  C_5 
REMARK    4  A    between atoms: C_5  and  C_6 
REMARK    5  A    between atoms: C_6  and  C_7 
REMARK    6  A    between atoms: C_7  and  C_8 
REMARK    7  A    between atoms: C_8  and  C_9 
REMARK    8  A    between atoms: C_9  and  C_10 
REMARK    9  A    between atoms: C_10  and  C_11 
REMARK   10  A    between atoms: C_11  and  C_12 
REMARK   11  A    between atoms: C_12  and  C_13 
REMARK   12  A    between atoms: C_13  and  C_14 
REMARK   13  A    between atoms: C_14  and  O_15 
ROOT
HETATM    1  C   LIG     1      15.644  33.358  20.116  1.00  0.00     0.000 C 
ENDROOT
BRANCH   1   2
HETATM    2  C   LIG     1      15.263  31.889  19.874  1.00  0.00     0.000 C 
BRANCH   2   3
HETATM    3  C   LIG     1      14.482  31.690  18.563  1.00  0.00     0.000 C 
BRANCH   3   4
HETATM    4  C   LIG     1      14.971  32.617  17.438  1.00  0.00     0.000 C 
BRANCH   4   5
HETATM    5  C   LIG     1      14.873  31.968  16.049  1.00  0.00     0.000 C 
BRANCH   5   6
HETATM    6  C   LIG     1      13.771  30.899  16.021  1.00  0.00    -0.000 C 
BRANCH   6   7
HETATM    7  C   LIG     1      13.817  30.036  14.750  1.00  0.00    -0.005 C 
HETATM    8  C   LIG     1      15.240  29.805  14.243  1.00  0.00     0.005 C 
ENDBRANCH   6   7
ENDBRANCH   5   6
ENDBRANCH   4   5
ENDBRANCH   3   4
ENDBRANCH   2   3
ENDBRANCH   1   2
BRANCH   1   9
HETATM    9  C   LIG     1      14.754  34.036  21.175  1.00  0.00     0.000 C 
BRANCH   9  10
HETATM   10  C   LIG     1      15.176  35.487  21.456  1.00  0.00     0.000 C 
BRANCH  10  11
HETATM   11  C   LIG     1      16.562  35.821  20.876  1.00  0.00     0.000 C 
BRANCH  11  12
HETATM   12  C   LIG     1      17.485  36.493  21.905  1.00  0.00     0.002 C 
BRANCH  12  13
HETATM   13  C   LIG     1      17.212  38.000  22.048  1.00  0.00     0.026 C 
BRANCH  13  14
HETATM   14  C   LIG     1      17.124  38.421  23.516  1.00  0.00     0.164 C 
BRANCH  14  15
HETATM   15  O   LIG     1      15.914  37.985  24.072  1.00  0.00    -0.401 OA
HETATM   16  H   LIG     1      15.540  37.325  23.432  1.00  0.00     0.209 HD
ENDBRANCH  14  15
ENDBRANCH  13  14
ENDBRANCH  12  13
ENDBRANCH  11  12
ENDBRANCH  10  11
ENDBRANCH   9  10
ENDBRANCH   1   9
TORSDOF 13
ENDMDL
MODEL 15
REMARK VINA RESULT:      -5.3      4.669      6.905
REMARK  13 active torsions:
REMARK  status: ('A' for Active; 'I' for Inactive)
REMARK    1  A    between atoms: C_2  and  C_3 
REMARK    2  A    between atoms: C_3  and  C_4 
REMARK    3  A    between atoms: C_4  and  C_5 
REMARK    4  A    between atoms: C_5  and  C_6 
REMARK    5  A    between atoms: C_6  and  C_7 
REMARK    6  A    between atoms: C_7  and  C_8 
REMARK    7  A    between atoms: C_8  and  C_9 
REMARK    8  A    between atoms: C_9  and  C_10 
REMARK    9  A    between atoms: C_10  and  C_11 
REMARK   10  A    between atoms: C_11  and  C_12 
REMARK   11  A    between atoms: C_12  and  C_13 
REMARK   12  A    between atoms: C_13  and  C_14 
REMARK   13  A    between atoms: C_14  and  O_15 
ROOT
HETATM    1  C   LIG     1      14.907  31.991  19.094  1.00  0.00     0.000 C 
ENDROOT
BRANCH   1   2
HETATM    2  C   LIG     1      15.587  32.837  20.182  1.00  0.00     0.000 C 
BRANCH   2   3
HETATM    3  C   LIG     1      15.536  34.344  19.876  1.00  0.00     0.000 C 
BRANCH   3   4
HETATM    4  C   LIG     1      15.325  35.196  21.138  1.00  0.00     0.000 C 
BRANCH   4   5
HETATM    5  C   LIG     1      16.646  35.657  21.772  1.00  0.00     0.000 C 
BRANCH   5   6
HETATM    6  C   LIG     1      17.612  36.185  20.701  1.00  0.00    -0.000 C 
BRANCH   6   7
HETATM    7  C   LIG     1      18.031  37.642  20.949  1.00  0.00    -0.005 C 
HETATM    8  C   LIG     1      17.419  38.225  22.224  1.00  0.00     0.005 C 
ENDBRANCH   6   7
ENDBRANCH   5   6
ENDBRANCH   4   5
ENDBRANCH   3   4
ENDBRANCH   2   3
ENDBRANCH   1   2
BRANCH   1   9
HETATM    9  C   LIG     1      14.915  32.678  17.716  1.00  0.00     0.000 C 
BRANCH   9  10
HETATM   10  C   LIG     1      13.699  32.291  16.859  1.00  0.00     0.000 C 
BRANCH  10  11
HETATM   11  C   LIG     1      13.568  30.769  16.676  1.00  0.00     0.000 C 
BRANCH  11  12
HETATM   12  C   LIG     1      13.409  30.362  15.202  1.00  0.00     0.002 C 
BRANCH  12  13
HETATM   13  C   LIG     1      14.734  29.902  14.571  1.00  0.00     0.026 C 
BRANCH  13  14
HETATM   14  C   LIG     1      15.435  31.044  13.833  1.00  0.00     0.164 C 
BRANCH  14  15
HETATM   15  O   LIG     1      16.610  31.404  14.505  1.00  0.00    -0.401 OA
HETATM   16  H   LIG     1      17.020  32.131  13.969  1.00  0.00     0.209 HD
ENDBRANCH  14  15
ENDBRANCH  13  14
ENDBRANCH  12  13
ENDBRANCH  11  12
ENDBRANCH  10  11
ENDBRANCH   9  10
ENDBRANCH   1   9
TORSDOF 13
ENDMDL
MODEL 16
REMARK VINA RESULT:      -5.2      2.584      6.262
REMARK  13 active torsions:
REMARK  status: ('A' for Active; 'I' for Inactive)
REMARK    1  A    between atoms: C_2  and  C_3 
REMARK    2  A    between atoms: C_3  and  C_4 
REMARK    3  A    between atoms: C_4  and  C_5 
REMARK    4  A    between atoms: C_5  and  C_6 
REMARK    5  A    between atoms: C_6  and  C_7 
REMARK    6  A    between atoms: C_7  and  C_8 
REMARK    7  A    between atoms: C_8  and  C_9 
REMARK    8  A    between atoms: C_9  and  C_10 
REMARK    9  A    between atoms: C_10  and  C_11 
REMARK   10  A    between atoms: C_11  and  C_12 
REMARK   11  A    between atoms: C_12  and  C_13 
REMARK   12  A    between atoms: C_13  and  C_14 
REMARK   13  A    between atoms: C_14  and  O_15 
ROOT
HETATM    1  C   LIG     1      16.668  35.380  24.053  1.00  0.00     0.000 C 
ENDROOT
BRANCH   1   2
HETATM    2  C   LIG     1      17.167  34.953  22.663  1.00  0.00     0.000 C 
BRANCH   2   3
HETATM    3  C   LIG     1      16.511  35.758  21.528  1.00  0.00     0.000 C 
BRANCH   3   4
HETATM    4  C   LIG     1      15.920  34.858  20.430  1.00  0.00     0.000 C 
BRANCH   4   5
HETATM    5  C   LIG     1      15.084  33.700  20.997  1.00  0.00     0.000 C 
BRANCH   5   6
HETATM    6  C   LIG     1      15.102  32.495  20.046  1.00  0.00    -0.000 C 
BRANCH   6   7
HETATM    7  C   LIG     1      15.323  32.901  18.581  1.00  0.00    -0.005 C 
HETATM    8  C   LIG     1      14.502  32.060  17.603  1.00  0.00     0.005 C 
ENDBRANCH   6   7
ENDBRANCH   5   6
ENDBRANCH   4   5
ENDBRANCH   3   4
ENDBRANCH   2   3
ENDBRANCH   1   2
BRANCH   1   9
HETATM    9  C   LIG     1      17.731  35.189  25.150  1.00  0.00     0.000 C 
BRANCH   9  10
HETATM   10  C   LIG     1      18.052  36.497  25.892  1.00  0.00     0.000 C 
BRANCH  10  11
HETATM   11  C   LIG     1      17.345  37.715  25.272  1.00  0.00     0.000 C 
BRANCH  11  12
HETATM   12  C   LIG     1      18.179  38.382  24.167  1.00  0.00     0.002 C 
BRANCH  12  13
HETATM   13  C   LIG     1      17.315  38.886  22.999  1.00  0.00     0.026 C 
BRANCH  13  14
HETATM   14  C   LIG     1      18.152  39.130  21.742  1.00  0.00     0.164 C 
BRANCH  14  15
HETATM   15  O   LIG     1      19.484  39.389  22.091  1.00  0.00    -0.401 OA
HETATM   16  H   LIG     1      19.931  39.691  21.259  1.00  0.00     0.209 HD
ENDBRANCH  14  15
ENDBRANCH  13  14
ENDBRANCH  12  13
ENDBRANCH  11  12
ENDBRANCH  10  11
ENDBRANCH   9  10
ENDBRANCH   1   9
TORSDOF 13
ENDMDL
MODEL 17
REMARK VINA RESULT:      -5.2      3.333      4.784
REMARK  13 active torsions:
REMARK  status: ('A' for Active; 'I' for Inactive)
REMARK    1  A    between atoms: C_2  and  C_3 
REMARK    2  A    between atoms: C_3  and  C_4 
REMARK    3  A    between atoms: C_4  and  C_5 
REMARK    4  A    between atoms: C_5  and  C_6 
REMARK    5  A    between atoms: C_6  and  C_7 
REMARK    6  A    between atoms: C_7  and  C_8 
REMARK    7  A    between atoms: C_8  and  C_9 
REMARK    8  A    between atoms: C_9  and  C_10 
REMARK    9  A    between atoms: C_10  and  C_11 
REMARK   10  A    between atoms: C_11  and  C_12 
REMARK   11  A    between atoms: C_12  and  C_13 
REMARK   12  A    between atoms: C_13  and  C_14 
REMARK   13  A    between atoms: C_14  and  O_15 
ROOT
HETATM    1  C   LIG     1      15.661  34.727  20.228  1.00  0.00     0.000 C 
ENDROOT
BRANCH   1   2
HETATM    2  C   LIG     1      16.110  35.448  21.509  1.00  0.00     0.000 C 
BRANCH   2   3
HETATM    3  C   LIG     1      17.259  36.440  21.256  1.00  0.00     0.000 C 
BRANCH   3   4
HETATM    4  C   LIG     1      17.378  37.501  22.363  1.00  0.00     0.000 C 
BRANCH   4   5
HETATM    5  C   LIG     1      16.568  37.143  23.618  1.00  0.00     0.000 C 
BRANCH   5   6
HETATM    6  C   LIG     1      17.215  37.742  24.876  1.00  0.00    -0.000 C 
BRANCH   6   7
HETATM    7  C   LIG     1      18.009  36.703  25.684  1.00  0.00    -0.005 C 
HETATM    8  C   LIG     1      17.543  35.270  25.425  1.00  0.00     0.005 C 
ENDBRANCH   6   7
ENDBRANCH   5   6
ENDBRANCH   4   5
ENDBRANCH   3   4
ENDBRANCH   2   3
ENDBRANCH   1   2
BRANCH   1   9
HETATM    9  C   LIG     1      15.219  33.276  20.488  1.00  0.00     0.000 C 
BRANCH   9  10
HETATM   10  C   LIG     1      15.649  32.320  19.363  1.00  0.00     0.000 C 
BRANCH  10  11
HETATM   11  C   LIG     1      14.456  31.800  18.543  1.00  0.00     0.000 C 
BRANCH  11  12
HETATM   12  C   LIG     1      14.265  32.569  17.226  1.00  0.00     0.002 C 
BRANCH  12  13
HETATM   13  C   LIG     1      14.957  31.884  16.036  1.00  0.00     0.026 C 
BRANCH  13  14
HETATM   14  C   LIG     1      16.212  32.642  15.599  1.00  0.00     0.164 C 
BRANCH  14  15
HETATM   15  O   LIG     1      17.105  31.772  14.960  1.00  0.00    -0.401 OA
HETATM   16  H   LIG     1      18.013  32.122  15.152  1.00  0.00     0.209 HD
ENDBRANCH  14  15
ENDBRANCH  13  14
ENDBRANCH  12  13
ENDBRANCH  11  12
ENDBRANCH  10  11
ENDBRANCH   9  10
ENDBRANCH   1   9
TORSDOF 13
ENDMDL
MODEL 18
REMARK VINA RESULT:      -5.1      7.717     10.354
REMARK  13 active torsions:
REMARK  status: ('A' for Active; 'I' for Inactive)
REMARK    1  A    between atoms: C_2  and  C_3 
REMARK    2  A    between atoms: C_3  and  C_4 
REMARK    3  A    between atoms: C_4  and  C_5 
REMARK    4  A    between atoms: C_5  and  C_6 
REMARK    5  A    between atoms: C_6  and  C_7 
REMARK    6  A    between atoms: C_7  and  C_8 
REMARK    7  A    between atoms: C_8  and  C_9 
REMARK    8  A    between atoms: C_9  and  C_10 
REMARK    9  A    between atoms: C_10  and  C_11 
REMARK   10  A    between atoms: C_11  and  C_12 
REMARK   11  A    between atoms: C_12  and  C_13 
REMARK   12  A    between atoms: C_13  and  C_14 
REMARK   13  A    between atoms: C_14  and  O_15 
ROOT
HETATM    1  C   LIG     1      15.866  31.884  14.241  1.00  0.00     0.000 C 
ENDROOT
BRANCH   1   2
HETATM    2  C   LIG     1      16.743  32.695  13.274  1.00  0.00     0.000 C 
BRANCH   2   3
HETATM    3  C   LIG     1      17.592  33.756  13.996  1.00  0.00     0.000 C 
BRANCH   3   4
HETATM    4  C   LIG     1      19.050  33.778  13.508  1.00  0.00     0.000 C 
BRANCH   4   5
HETATM    5  C   LIG     1      19.172  34.127  12.017  1.00  0.00     0.000 C 
BRANCH   5   6
HETATM    6  C   LIG     1      20.638  34.372  11.631  1.00  0.00    -0.000 C 
BRANCH   6   7
HETATM    7  C   LIG     1      21.616  33.995  12.754  1.00  0.00    -0.005 C 
HETATM    8  C   LIG     1      22.530  35.153  13.157  1.00  0.00     0.005 C 
ENDBRANCH   6   7
ENDBRANCH   5   6
ENDBRANCH   4   5
ENDBRANCH   3   4
ENDBRANCH   2   3
ENDBRANCH   1   2
BRANCH   1   9
HETATM    9  C   LIG     1      15.325  30.588  13.607  1.00  0.00     0.000 C 
BRANCH   9  10
HETATM   10  C   LIG     1      14.586  29.702  14.623  1.00  0.00     0.000 C 
BRANCH  10  11
HETATM   11  C   LIG     1      13.193  30.249  14.979  1.00  0.00     0.000 C 
BRANCH  11  12
HETATM   12  C   LIG     1      13.029  30.511  16.485  1.00  0.00     0.002 C 
BRANCH  12  13
HETATM   13  C   LIG     1      13.258  31.986  16.855  1.00  0.00     0.026 C 
BRANCH  13  14
HETATM   14  C   LIG     1      14.489  32.160  17.747  1.00  0.00     0.164 C 
BRANCH  14  15
HETATM   15  O   LIG     1      14.156  31.912  19.084  1.00  0.00    -0.401 OA
HETATM   16  H   LIG     1      14.132  30.925  19.183  1.00  0.00     0.209 HD
ENDBRANCH  14  15
ENDBRANCH  13  14
ENDBRANCH  12  13
ENDBRANCH  11  12
ENDBRANCH  10  11
ENDBRANCH   9  10
ENDBRANCH   1   9
TORSDOF 13
ENDMDL
MODEL 19
REMARK VINA RESULT:      -4.8      3.443      7.125
REMARK  13 active torsions:
REMARK  status: ('A' for Active; 'I' for Inactive)
REMARK    1  A    between atoms: C_2  and  C_3 
REMARK    2  A    between atoms: C_3  and  C_4 
REMARK    3  A    between atoms: C_4  and  C_5 
REMARK    4  A    between atoms: C_5  and  C_6 
REMARK    5  A    between atoms: C_6  and  C_7 
REMARK    6  A    between atoms: C_7  and  C_8 
REMARK    7  A    between atoms: C_8  and  C_9 
REMARK    8  A    between atoms: C_9  and  C_10 
REMARK    9  A    between atoms: C_10  and  C_11 
REMARK   10  A    between atoms: C_11  and  C_12 
REMARK   11  A    between atoms: C_12  and  C_13 
REMARK   12  A    between atoms: C_13  and  C_14 
REMARK   13  A    between atoms: C_14  and  O_15 
ROOT
HETATM    1  C   LIG     1      16.674  34.454  21.816  1.00  0.00     0.000 C 
ENDROOT
BRANCH   1   2
HETATM    2  C   LIG     1      15.806  34.433  20.548  1.00  0.00     0.000 C 
BRANCH   2   3
HETATM    3  C   LIG     1      14.936  33.168  20.448  1.00  0.00     0.000 C 
BRANCH   3   4
HETATM    4  C   LIG     1      15.514  32.130  19.472  1.00  0.00     0.000 C 
BRANCH   4   5
HETATM    5  C   LIG     1      14.577  31.840  18.289  1.00  0.00     0.000 C 
BRANCH   5   6
HETATM    6  C   LIG     1      14.992  32.648  17.051  1.00  0.00    -0.000 C 
BRANCH   6   7
HETATM    7  C   LIG     1      14.935  31.820  15.758  1.00  0.00    -0.005 C 
HETATM    8  C   LIG     1      13.856  30.737  15.796  1.00  0.00     0.005 C 
ENDBRANCH   6   7
ENDBRANCH   5   6
ENDBRANCH   4   5
ENDBRANCH   3   4
ENDBRANCH   2   3
ENDBRANCH   1   2
BRANCH   1   9
HETATM    9  C   LIG     1      17.283  35.840  22.097  1.00  0.00     0.000 C 
BRANCH   9  10
HETATM   10  C   LIG     1      17.682  36.578  20.808  1.00  0.00     0.000 C 
BRANCH  10  11
HETATM   11  C   LIG     1      18.087  38.039  21.068  1.00  0.00     0.000 C 
BRANCH  11  12
HETATM   12  C   LIG     1      17.261  38.690  22.189  1.00  0.00     0.002 C 
BRANCH  12  13
HETATM   13  C   LIG     1      18.041  38.798  23.510  1.00  0.00     0.026 C 
BRANCH  13  14
HETATM   14  C   LIG     1      17.268  38.177  24.674  1.00  0.00     0.164 C 
BRANCH  14  15
HETATM   15  O   LIG     1      17.307  39.025  25.788  1.00  0.00    -0.401 OA
HETATM   16  H   LIG     1      17.523  38.448  26.565  1.00  0.00     0.209 HD
ENDBRANCH  14  15
ENDBRANCH  13  14
ENDBRANCH  12  13
ENDBRANCH  11  12
ENDBRANCH  10  11
ENDBRANCH   9  10
ENDBRANCH   1   9
TORSDOF 13
ENDMDL
MODEL 20
REMARK VINA RESULT:      -4.8      4.618      8.461
REMARK  13 active torsions:
REMARK  status: ('A' for Active; 'I' for Inactive)
REMARK    1  A    between atoms: C_2  and  C_3 
REMARK    2  A    between atoms: C_3  and  C_4 
REMARK    3  A    between atoms: C_4  and  C_5 
REMARK    4  A    between atoms: C_5  and  C_6 
REMARK    5  A    between atoms: C_6  and  C_7 
REMARK    6  A    between atoms: C_7  and  C_8 
REMARK    7  A    between atoms: C_8  and  C_9 
REMARK    8  A    between atoms: C_9  and  C_10 
REMARK    9  A    between atoms: C_10  and  C_11 
REMARK   10  A    between atoms: C_11  and  C_12 
REMARK   11  A    between atoms: C_12  and  C_13 
REMARK   12  A    between atoms: C_13  and  C_14 
REMARK   13  A    between atoms: C_14  and  O_15 
ROOT
HETATM    1  C   LIG     1      15.141  33.262  20.556  1.00  0.00     0.000 C 
ENDROOT
BRANCH   1   2
HETATM    2  C   LIG     1      15.621  32.115  19.653  1.00  0.00     0.000 C 
BRANCH   2   3
HETATM    3  C   LIG     1      14.518  31.604  18.710  1.00  0.00     0.000 C 
BRANCH   3   4
HETATM    4  C   LIG     1      14.527  32.316  17.348  1.00  0.00     0.000 C 
BRANCH   4   5
HETATM    5  C   LIG     1      14.069  31.407  16.198  1.00  0.00     0.000 C 
BRANCH   5   6
HETATM    6  C   LIG     1      15.157  31.300  15.119  1.00  0.00    -0.000 C 
BRANCH   6   7
HETATM    7  C   LIG     1      15.027  30.023  14.274  1.00  0.00    -0.005 C 
HETATM    8  C   LIG     1      13.614  29.441  14.294  1.00  0.00     0.005 C 
ENDBRANCH   6   7
ENDBRANCH   5   6
ENDBRANCH   4   5
ENDBRANCH   3   4
ENDBRANCH   2   3
ENDBRANCH   1   2
BRANCH   1   9
HETATM    9  C   LIG     1      15.959  34.552  20.363  1.00  0.00     0.000 C 
BRANCH   9  10
HETATM   10  C   LIG     1      15.387  35.735  21.161  1.00  0.00     0.000 C 
BRANCH  10  11
HETATM   11  C   LIG     1      16.481  36.705  21.642  1.00  0.00     0.000 C 
BRANCH  11  12
HETATM   12  C   LIG     1      17.838  36.446  20.967  1.00  0.00     0.002 C 
BRANCH  12  13
HETATM   13  C   LIG     1      18.197  37.524  19.931  1.00  0.00     0.026 C 
BRANCH  13  14
HETATM   14  C   LIG     1      19.301  38.451  20.441  1.00  0.00     0.164 C 
BRANCH  14  15
HETATM   15  O   LIG     1      19.335  39.626  19.680  1.00  0.00    -0.401 OA
HETATM   16  H   LIG     1      19.966  40.236  20.143  1.00  0.00     0.209 HD
ENDBRANCH  14  15
ENDBRANCH  13  14
ENDBRANCH  12  13
ENDBRANCH  11  12
ENDBRANCH  10  11
ENDBRANCH   9  10
ENDBRANCH   1   9
TORSDOF 13
ENDMDL
