REMARK  8 active torsions:
REMARK  status: ('A' for Active; 'I' for Inactive)
REMARK    1  A    between atoms: C_2  and  C_3 
REMARK    2  A    between atoms: C_3  and  C_4 
REMARK    3  A    between atoms: C_4  and  C_5 
REMARK    4  A    between atoms: C_5  and  C_6 
REMARK    5  A    between atoms: C_6  and  C_7 
REMARK    6  A    between atoms: C_7  and  C_8 
REMARK    7  A    between atoms: C_8  and  C_9 
REMARK    8  A    between atoms: C_9  and  O_10 
ROOT
HETATM    1  C   LIG     1       1.099   0.719   0.946  1.00  0.00     0.001 C 
ENDROOT
BRANCH   1   2
HETATM    2  C   LIG     1       0.308  -0.531   1.380  1.00  0.00     0.000 C 
BRANCH   2   3
HETATM    3  C   LIG     1      -0.824  -0.950   0.425  1.00  0.00     0.000 C 
BRANCH   3   4
HETATM    4  C   LIG     1      -1.909   0.126   0.277  1.00  0.00    -0.000 C 
BRANCH   4   5
HETATM    5  C   LIG     1      -3.089  -0.395  -0.552  1.00  0.00    -0.005 C 
HETATM    6  C   LIG     1      -4.164   0.675  -0.716  1.00  0.00     0.005 C 
ENDBRANCH   4   5
ENDBRANCH   3   4
ENDBRANCH   2   3
ENDBRANCH   1   2
BRANCH   1   7
HETATM    7  C   LIG     1       1.738   0.635  -0.455  1.00  0.00     0.010 C 
BRANCH   7   8
HETATM    8  C   LIG     1       2.725  -0.530  -0.632  1.00  0.00     0.110 C 
BRANCH   8   9
HETATM    9  C   LIG     1       3.876  -0.450   0.328  1.00  0.00     0.139 C 
HETATM   10  O   LIG     1       4.028  -1.345   1.201  1.00  0.00    -0.650 OA
BRANCH   9  11
HETATM   11  O   LIG     1       4.790   0.598   0.258  1.00  0.00    -0.776 OA
HETATM   12  H   LIG     1       4.709   1.319  -0.448  1.00  0.00     0.167 HD
ENDBRANCH   9  11
ENDBRANCH   8   9
ENDBRANCH   7   8
ENDBRANCH   1   7
TORSDOF 8
