MODEL 1
REMARK VINA RESULT:      -5.9      0.000      0.000
REMARK  0 active torsions:
REMARK  status: ('A' for Active; 'I' for Inactive)
ROOT
HETATM    1 CL   LIG     1      15.532  34.511  21.456  1.00  0.00    -0.061 Cl
HETATM    2  C   LIG     1      16.517  35.958  21.366  1.00  0.00     0.145 A 
HETATM    3  N   LIG     1      17.505  36.050  20.436  1.00  0.00    -0.213 NA
HETATM    4  C   LIG     1      18.280  37.161  20.348  1.00  0.00     0.182 A 
HETATM    5  N   LIG     1      19.265  37.247  19.417  1.00  0.00    -0.220 NA
HETATM    6  C   LIG     1      20.040  38.361  19.331  1.00  0.00     0.235 A 
HETATM    7  N   LIG     1      19.838  39.405  20.180  1.00  0.00    -0.252 NA
HETATM    8  C   LIG     1      18.862  39.361  21.128  1.00  0.00     0.153 A 
HETATM    9  C   LIG     1      18.057  38.229  21.233  1.00  0.00     0.121 A 
HETATM   10  N   LIG     1      17.071  38.139  22.162  1.00  0.00    -0.252 NA
HETATM   11  C   LIG     1      16.296  37.023  22.248  1.00  0.00     0.161 A 
ENDROOT
TORSDOF 0
ENDMDL
MODEL 2
REMARK VINA RESULT:      -5.8      3.106      4.562
REMARK  0 active torsions:
REMARK  status: ('A' for Active; 'I' for Inactive)
ROOT
HETATM    1 CL   LIG     1      15.945  35.423  20.437  1.00  0.00    -0.061 Cl
HETATM    2  C   LIG     1      16.451  36.036  21.999  1.00  0.00     0.145 A 
HETATM    3  N   LIG     1      16.814  35.169  22.982  1.00  0.00    -0.213 NA
HETATM    4  C   LIG     1      17.209  35.621  24.200  1.00  0.00     0.182 A 
HETATM    5  N   LIG     1      17.572  34.752  25.178  1.00  0.00    -0.220 NA
HETATM    6  C   LIG     1      17.967  35.207  26.397  1.00  0.00     0.235 A 
HETATM    7  N   LIG     1      18.003  36.543  26.652  1.00  0.00    -0.252 NA
HETATM    8  C   LIG     1      17.649  37.450  25.701  1.00  0.00     0.153 A 
HETATM    9  C   LIG     1      17.241  37.004  24.446  1.00  0.00     0.121 A 
HETATM   10  N   LIG     1      16.878  37.870  23.464  1.00  0.00    -0.252 NA
HETATM   11  C   LIG     1      16.482  37.414  22.244  1.00  0.00     0.161 A 
ENDROOT
TORSDOF 0
ENDMDL
MODEL 3
REMARK VINA RESULT:      -5.4      2.067      2.797
REMARK  0 active torsions:
REMARK  status: ('A' for Active; 'I' for Inactive)
ROOT
HETATM    1 CL   LIG     1      17.185  38.446  25.329  1.00  0.00    -0.061 Cl
HETATM    2  C   LIG     1      17.480  37.989  23.663  1.00  0.00     0.145 A 
HETATM    3  N   LIG     1      18.200  38.809  22.851  1.00  0.00    -0.213 NA
HETATM    4  C   LIG     1      18.441  38.474  21.557  1.00  0.00     0.182 A 
HETATM    5  N   LIG     1      19.161  39.297  20.752  1.00  0.00    -0.220 NA
HETATM    6  C   LIG     1      19.401  38.960  19.457  1.00  0.00     0.235 A 
HETATM    7  N   LIG     1      18.919  37.791  18.951  1.00  0.00    -0.252 NA
HETATM    8  C   LIG     1      18.194  36.938  19.723  1.00  0.00     0.153 A 
HETATM    9  C   LIG     1      17.937  37.264  21.052  1.00  0.00     0.121 A 
HETATM   10  N   LIG     1      17.218  36.445  21.862  1.00  0.00    -0.252 NA
HETATM   11  C   LIG     1      16.977  36.782  23.159  1.00  0.00     0.161 A 
ENDROOT
TORSDOF 0
ENDMDL
MODEL 4
REMARK VINA RESULT:      -5.4      7.256      8.887
REMARK  0 active torsions:
REMARK  status: ('A' for Active; 'I' for Inactive)
ROOT
HETATM    1 CL   LIG     1      18.020  33.779  13.090  1.00  0.00    -0.061 Cl
HETATM    2  C   LIG     1      16.816  32.904  14.014  1.00  0.00     0.145 A 
HETATM    3  N   LIG     1      16.612  33.207  15.324  1.00  0.00    -0.213 NA
HETATM    4  C   LIG     1      15.684  32.542  16.059  1.00  0.00     0.182 A 
HETATM    5  N   LIG     1      15.485  32.850  17.367  1.00  0.00    -0.220 NA
HETATM    6  C   LIG     1      14.556  32.183  18.101  1.00  0.00     0.235 A 
HETATM    7  N   LIG     1      13.812  31.194  17.532  1.00  0.00    -0.252 NA
HETATM    8  C   LIG     1      13.979  30.854  16.225  1.00  0.00     0.153 A 
HETATM    9  C   LIG     1      14.926  31.525  15.456  1.00  0.00     0.121 A 
HETATM   10  N   LIG     1      15.128  31.221  14.147  1.00  0.00    -0.252 NA
HETATM   11  C   LIG     1      16.060  31.890  13.413  1.00  0.00     0.161 A 
ENDROOT
TORSDOF 0
ENDMDL
MODEL 5
REMARK VINA RESULT:      -5.3      7.552      8.469
REMARK  0 active torsions:
REMARK  status: ('A' for Active; 'I' for Inactive)
ROOT
HETATM    1 CL   LIG     1      14.878  28.381  13.705  1.00  0.00    -0.061 Cl
HETATM    2  C   LIG     1      15.063  29.946  14.472  1.00  0.00     0.145 A 
HETATM    3  N   LIG     1      16.079  30.769  14.098  1.00  0.00    -0.213 NA
HETATM    4  C   LIG     1      16.242  31.986  14.678  1.00  0.00     0.182 A 
HETATM    5  N   LIG     1      17.259  32.803  14.300  1.00  0.00    -0.220 NA
HETATM    6  C   LIG     1      17.419  34.021  14.882  1.00  0.00     0.235 A 
HETATM    7  N   LIG     1      16.561  34.436  15.854  1.00  0.00    -0.252 NA
HETATM    8  C   LIG     1      15.529  33.649  16.263  1.00  0.00     0.153 A 
HETATM    9  C   LIG     1      15.347  32.398  15.679  1.00  0.00     0.121 A 
HETATM   10  N   LIG     1      14.331  31.577  16.053  1.00  0.00    -0.252 NA
HETATM   11  C   LIG     1      14.171  30.357  15.470  1.00  0.00     0.161 A 
ENDROOT
TORSDOF 0
ENDMDL
MODEL 6
REMARK VINA RESULT:      -5.3      7.634      9.035
REMARK  0 active torsions:
REMARK  status: ('A' for Active; 'I' for Inactive)
ROOT
HETATM    1 CL   LIG     1      18.726  33.521  12.208  1.00  0.00    -0.061 Cl
HETATM    2  C   LIG     1      17.588  33.194  13.500  1.00  0.00     0.145 A 
HETATM    3  N   LIG     1      16.750  32.126  13.413  1.00  0.00    -0.213 NA
HETATM    4  C   LIG     1      15.860  31.854  14.402  1.00  0.00     0.182 A 
HETATM    5  N   LIG     1      15.027  30.786  14.309  1.00  0.00    -0.220 NA
HETATM    6  C   LIG     1      14.136  30.516  15.300  1.00  0.00     0.235 A 
HETATM    7  N   LIG     1      14.070  31.316  16.400  1.00  0.00    -0.252 NA
HETATM    8  C   LIG     1      14.886  32.395  16.534  1.00  0.00     0.153 A 
HETATM    9  C   LIG     1      15.806  32.690  15.530  1.00  0.00     0.121 A 
HETATM   10  N   LIG     1      16.642  33.757  15.618  1.00  0.00    -0.252 NA
HETATM   11  C   LIG     1      17.533  34.027  14.625  1.00  0.00     0.161 A 
ENDROOT
TORSDOF 0
ENDMDL
MODEL 7
REMARK VINA RESULT:      -5.2      3.537      5.218
REMARK  0 active torsions:
REMARK  status: ('A' for Active; 'I' for Inactive)
ROOT
HETATM    1 CL   LIG     1      17.560  39.130  21.261  1.00  0.00    -0.061 Cl
HETATM    2  C   LIG     1      17.444  37.838  22.440  1.00  0.00     0.145 A 
HETATM    3  N   LIG     1      17.893  38.035  23.709  1.00  0.00    -0.213 NA
HETATM    4  C   LIG     1      17.813  37.048  24.638  1.00  0.00     0.182 A 
HETATM    5  N   LIG     1      18.263  37.250  25.904  1.00  0.00    -0.220 NA
HETATM    6  C   LIG     1      18.182  36.261  26.833  1.00  0.00     0.235 A 
HETATM    7  N   LIG     1      17.648  35.053  26.504  1.00  0.00    -0.252 NA
HETATM    8  C   LIG     1      17.185  34.808  25.249  1.00  0.00     0.153 A 
HETATM    9  C   LIG     1      17.259  35.808  24.282  1.00  0.00     0.121 A 
HETATM   10  N   LIG     1      16.810  35.610  23.015  1.00  0.00    -0.252 NA
HETATM   11  C   LIG     1      16.892  36.601  22.085  1.00  0.00     0.161 A 
ENDROOT
TORSDOF 0
ENDMDL
MODEL 8
REMARK VINA RESULT:      -5.2      2.486      4.239
REMARK  0 active torsions:
REMARK  status: ('A' for Active; 'I' for Inactive)
ROOT
HETATM    1 CL   LIG     1      20.043  39.292  18.554  1.00  0.00    -0.061 Cl
HETATM    2  C   LIG     1      19.074  38.342  19.664  1.00  0.00     0.145 A 
HETATM    3  N   LIG     1      18.671  38.882  20.846  1.00  0.00    -0.213 NA
HETATM    4  C   LIG     1      17.920  38.165  21.721  1.00  0.00     0.182 A 
HETATM    5  N   LIG     1      17.520  38.709  22.899  1.00  0.00    -0.220 NA
HETATM    6  C   LIG     1      16.769  37.989  23.774  1.00  0.00     0.235 A 
HETATM    7  N   LIG     1      16.407  36.710  23.477  1.00  0.00    -0.252 NA
HETATM    8  C   LIG     1      16.785  36.126  22.308  1.00  0.00     0.153 A 
HETATM    9  C   LIG     1      17.556  36.847  21.398  1.00  0.00     0.121 A 
HETATM   10  N   LIG     1      17.958  36.307  20.218  1.00  0.00    -0.252 NA
HETATM   11  C   LIG     1      18.711  37.028  19.344  1.00  0.00     0.161 A 
ENDROOT
TORSDOF 0
ENDMDL
MODEL 9
REMARK VINA RESULT:      -5.0      2.868      4.135
REMARK  0 active torsions:
REMARK  status: ('A' for Active; 'I' for Inactive)
ROOT
HETATM    1 CL   LIG     1      16.263  35.612  19.728  1.00  0.00    -0.061 Cl
HETATM    2  C   LIG     1      16.624  35.837  21.428  1.00  0.00     0.145 A 
HETATM    3  N   LIG     1      16.660  37.092  21.953  1.00  0.00    -0.213 NA
HETATM    4  C   LIG     1      16.937  37.290  23.267  1.00  0.00     0.182 A 
HETATM    5  N   LIG     1      16.972  38.545  23.786  1.00  0.00    -0.220 NA
HETATM    6  C   LIG     1      17.250  38.741  25.103  1.00  0.00     0.235 A 
HETATM    7  N   LIG     1      17.498  37.680  25.918  1.00  0.00    -0.252 NA
HETATM    8  C   LIG     1      17.473  36.406  25.440  1.00  0.00     0.153 A 
HETATM    9  C   LIG     1      17.190  36.183  24.094  1.00  0.00     0.121 A 
HETATM   10  N   LIG     1      17.154  34.930  23.570  1.00  0.00    -0.252 NA
HETATM   11  C   LIG     1      16.876  34.734  22.253  1.00  0.00     0.161 A 
ENDROOT
TORSDOF 0
ENDMDL
MODEL 10
REMARK VINA RESULT:      -5.0      6.937      7.985
REMARK  0 active torsions:
REMARK  status: ('A' for Active; 'I' for Inactive)
ROOT
HETATM    1 CL   LIG     1      14.488  32.029  19.125  1.00  0.00    -0.061 Cl
HETATM    2  C   LIG     1      14.939  31.975  17.433  1.00  0.00     0.145 A 
HETATM    3  N   LIG     1      15.987  32.718  16.986  1.00  0.00    -0.213 NA
HETATM    4  C   LIG     1      16.354  32.692  15.679  1.00  0.00     0.182 A 
HETATM    5  N   LIG     1      17.402  33.435  15.238  1.00  0.00    -0.220 NA
HETATM    6  C   LIG     1      17.767  33.407  13.929  1.00  0.00     0.235 A 
HETATM    7  N   LIG     1      17.085  32.632  13.042  1.00  0.00    -0.252 NA
HETATM    8  C   LIG     1      16.030  31.872  13.440  1.00  0.00     0.153 A 
HETATM    9  C   LIG     1      15.639  31.886  14.777  1.00  0.00     0.121 A 
HETATM   10  N   LIG     1      14.592  31.143  15.223  1.00  0.00    -0.252 NA
HETATM   11  C   LIG     1      14.226  31.172  16.534  1.00  0.00     0.161 A 
ENDROOT
TORSDOF 0
ENDMDL
MODEL 11
REMARK VINA RESULT:      -5.0      7.386      8.372
REMARK  0 active torsions:
REMARK  status: ('A' for Active; 'I' for Inactive)
ROOT
HETATM    1 CL   LIG     1      13.334  30.288  16.316  1.00  0.00    -0.061 Cl
HETATM    2  C   LIG     1      14.557  31.126  15.381  1.00  0.00     0.145 A 
HETATM    3  N   LIG     1      15.097  32.282  15.852  1.00  0.00    -0.213 NA
HETATM    4  C   LIG     1      16.046  32.949  15.145  1.00  0.00     0.182 A 
HETATM    5  N   LIG     1      16.581  34.102  15.620  1.00  0.00    -0.220 NA
HETATM    6  C   LIG     1      17.531  34.768  14.911  1.00  0.00     0.235 A 
HETATM    7  N   LIG     1      17.956  34.284  13.712  1.00  0.00    -0.252 NA
HETATM    8  C   LIG     1      17.447  33.132  13.198  1.00  0.00     0.153 A 
HETATM    9  C   LIG     1      16.473  32.435  13.910  1.00  0.00     0.121 A 
HETATM   10  N   LIG     1      15.935  31.280  13.438  1.00  0.00    -0.252 NA
HETATM   11  C   LIG     1      14.984  30.614  14.149  1.00  0.00     0.161 A 
ENDROOT
TORSDOF 0
ENDMDL
MODEL 12
REMARK VINA RESULT:      -5.0      7.021      7.755
REMARK  0 active torsions:
REMARK  status: ('A' for Active; 'I' for Inactive)
ROOT
HETATM    1 CL   LIG     1      13.663  30.584  16.237  1.00  0.00    -0.061 Cl
HETATM    2  C   LIG     1      14.845  31.790  15.770  1.00  0.00     0.145 A 
HETATM    3  N   LIG     1      15.573  31.622  14.633  1.00  0.00    -0.213 NA
HETATM    4  C   LIG     1      16.495  32.544  14.251  1.00  0.00     0.182 A 
HETATM    5  N   LIG     1      17.218  32.371  13.115  1.00  0.00    -0.220 NA
HETATM    6  C   LIG     1      18.140  33.295  12.735  1.00  0.00     0.235 A 
HETATM    7  N   LIG     1      18.350  34.406  13.492  1.00  0.00    -0.252 NA
HETATM    8  C   LIG     1      17.648  34.620  14.637  1.00  0.00     0.153 A 
HETATM    9  C   LIG     1      16.698  33.685  15.044  1.00  0.00     0.121 A 
HETATM   10  N   LIG     1      15.972  33.854  16.180  1.00  0.00    -0.252 NA
HETATM   11  C   LIG     1      15.049  32.928  16.560  1.00  0.00     0.161 A 
ENDROOT
TORSDOF 0
ENDMDL
MODEL 13
REMARK VINA RESULT:      -4.8      1.767      2.720
REMARK  0 active torsions:
REMARK  status: ('A' for Active; 'I' for Inactive)
ROOT
HETATM    1 CL   LIG     1      15.610  32.585  19.636  1.00  0.00    -0.061 Cl
HETATM    2  C   LIG     1      15.738  34.105  20.499  1.00  0.00     0.145 A 
HETATM    3  N   LIG     1      16.780  34.942  20.248  1.00  0.00    -0.213 NA
HETATM    4  C   LIG     1      16.899  36.125  20.905  1.00  0.00     0.182 A 
HETATM    5  N   LIG     1      17.942  36.957  20.650  1.00  0.00    -0.220 NA
HETATM    6  C   LIG     1      18.059  38.140  21.309  1.00  0.00     0.235 A 
HETATM    7  N   LIG     1      17.131  38.505  22.235  1.00  0.00    -0.252 NA
HETATM    8  C   LIG     1      16.070  37.702  22.521  1.00  0.00     0.153 A 
HETATM    9  C   LIG     1      15.931  36.486  21.857  1.00  0.00     0.121 A 
HETATM   10  N   LIG     1      14.890  35.650  22.109  1.00  0.00    -0.252 NA
HETATM   11  C   LIG     1      14.774  34.465  21.449  1.00  0.00     0.161 A 
ENDROOT
TORSDOF 0
ENDMDL
MODEL 14
REMARK VINA RESULT:      -4.7      7.989      9.509
REMARK  0 active torsions:
REMARK  status: ('A' for Active; 'I' for Inactive)
ROOT
HETATM    1 CL   LIG     1      15.231  34.341  17.525  1.00  0.00    -0.061 Cl
HETATM    2  C   LIG     1      14.691  32.875  16.730  1.00  0.00     0.145 A 
HETATM    3  N   LIG     1      15.446  32.322  15.743  1.00  0.00    -0.213 NA
HETATM    4  C   LIG     1      15.048  31.187  15.113  1.00  0.00     0.182 A 
HETATM    5  N   LIG     1      15.805  30.638  14.129  1.00  0.00    -0.220 NA
HETATM    6  C   LIG     1      15.404  29.502  13.499  1.00  0.00     0.235 A 
HETATM    7  N   LIG     1      14.234  28.899  13.849  1.00  0.00    -0.252 NA
HETATM    8  C   LIG     1      13.445  29.415  14.830  1.00  0.00     0.153 A 
HETATM    9  C   LIG     1      13.838  30.578  15.488  1.00  0.00     0.121 A 
HETATM   10  N   LIG     1      13.083  31.131  16.473  1.00  0.00    -0.252 NA
HETATM   11  C   LIG     1      13.485  32.269  17.102  1.00  0.00     0.161 A 
ENDROOT
TORSDOF 0
ENDMDL
MODEL 15
REMARK VINA RESULT:      -4.5      3.982      5.780
REMARK  0 active torsions:
REMARK  status: ('A' for Active; 'I' for Inactive)
ROOT
HETATM    1 CL   LIG     1      16.382  36.418  21.729  1.00  0.00    -0.061 Cl
HETATM    2  C   LIG     1      15.866  35.110  20.684  1.00  0.00     0.145 A 
HETATM    3  N   LIG     1      15.972  35.237  19.334  1.00  0.00    -0.213 NA
HETATM    4  C   LIG     1      15.579  34.236  18.505  1.00  0.00     0.182 A 
HETATM    5  N   LIG     1      15.688  34.369  17.158  1.00  0.00    -0.220 NA
HETATM    6  C   LIG     1      15.293  33.366  16.330  1.00  0.00     0.235 A 
HETATM    7  N   LIG     1      14.783  32.213  16.843  1.00  0.00    -0.252 NA
HETATM    8  C   LIG     1      14.656  32.037  18.186  1.00  0.00     0.153 A 
HETATM    9  C   LIG     1      15.055  33.053  19.052  1.00  0.00     0.121 A 
HETATM   10  N   LIG     1      14.948  32.925  20.401  1.00  0.00    -0.252 NA
HETATM   11  C   LIG     1      15.343  33.930  21.229  1.00  0.00     0.161 A 
ENDROOT
TORSDOF 0
ENDMDL
MODEL 16
REMARK VINA RESULT:      -4.2      5.962      7.577
REMARK  0 active torsions:
REMARK  status: ('A' for Active; 'I' for Inactive)
ROOT
HETATM    1 CL   LIG     1      13.244  29.846  14.897  1.00  0.00    -0.061 Cl
HETATM    2  C   LIG     1      13.945  31.046  15.965  1.00  0.00     0.145 A 
HETATM    3  N   LIG     1      13.899  30.865  17.312  1.00  0.00    -0.213 NA
HETATM    4  C   LIG     1      14.435  31.781  18.159  1.00  0.00     0.182 A 
HETATM    5  N   LIG     1      14.386  31.595  19.503  1.00  0.00    -0.220 NA
HETATM    6  C   LIG     1      14.924  32.514  20.348  1.00  0.00     0.235 A 
HETATM    7  N   LIG     1      15.519  33.635  19.856  1.00  0.00    -0.252 NA
HETATM    8  C   LIG     1      15.590  33.861  18.516  1.00  0.00     0.153 A 
HETATM    9  C   LIG     1      15.046  32.932  17.632  1.00  0.00     0.121 A 
HETATM   10  N   LIG     1      15.092  33.114  16.287  1.00  0.00    -0.252 NA
HETATM   11  C   LIG     1      14.553  32.194  15.441  1.00  0.00     0.161 A 
ENDROOT
TORSDOF 0
ENDMDL
MODEL 17
REMARK VINA RESULT:      -4.0      2.552      4.524
REMARK  0 active torsions:
REMARK  status: ('A' for Active; 'I' for Inactive)
ROOT
HETATM    1 CL   LIG     1      20.053  39.268  20.027  1.00  0.00    -0.061 Cl
HETATM    2  C   LIG     1      18.862  37.984  20.077  1.00  0.00     0.145 A 
HETATM    3  N   LIG     1      18.239  37.682  21.247  1.00  0.00    -0.213 NA
HETATM    4  C   LIG     1      17.313  36.690  21.310  1.00  0.00     0.182 A 
HETATM    5  N   LIG     1      16.693  36.393  22.481  1.00  0.00    -0.220 NA
HETATM    6  C   LIG     1      15.767  35.400  22.541  1.00  0.00     0.235 A 
HETATM    7  N   LIG     1      15.449  34.689  21.424  1.00  0.00    -0.252 NA
HETATM    8  C   LIG     1      16.045  34.954  20.230  1.00  0.00     0.153 A 
HETATM    9  C   LIG     1      16.997  35.967  20.147  1.00  0.00     0.121 A 
HETATM   10  N   LIG     1      17.619  36.268  18.977  1.00  0.00    -0.252 NA
HETATM   11  C   LIG     1      18.547  37.262  18.918  1.00  0.00     0.161 A 
ENDROOT
TORSDOF 0
ENDMDL
MODEL 18
REMARK VINA RESULT:      -4.0      4.251      5.957
REMARK  0 active torsions:
REMARK  status: ('A' for Active; 'I' for Inactive)
ROOT
HETATM    1 CL   LIG     1      15.186  32.051  15.481  1.00  0.00    -0.061 Cl
HETATM    2  C   LIG     1      15.096  32.447  17.186  1.00  0.00     0.145 A 
HETATM    3  N   LIG     1      15.597  33.629  17.635  1.00  0.00    -0.213 NA
HETATM    4  C   LIG     1      15.539  33.956  18.952  1.00  0.00     0.182 A 
HETATM    5  N   LIG     1      16.040  35.138  19.395  1.00  0.00    -0.220 NA
HETATM    6  C   LIG     1      15.981  35.463  20.713  1.00  0.00     0.235 A 
HETATM    7  N   LIG     1      15.416  34.606  21.607  1.00  0.00    -0.252 NA
HETATM    8  C   LIG     1      14.901  33.413  21.207  1.00  0.00     0.153 A 
HETATM    9  C   LIG     1      14.952  33.060  19.860  1.00  0.00     0.121 A 
HETATM   10  N   LIG     1      14.451  31.879  19.412  1.00  0.00    -0.252 NA
HETATM   11  C   LIG     1      14.512  31.553  18.092  1.00  0.00     0.161 A 
ENDROOT
TORSDOF 0
ENDMDL
MODEL 19
REMARK VINA RESULT:      -3.9     19.301     19.989
REMARK  0 active torsions:
REMARK  status: ('A' for Active; 'I' for Inactive)
ROOT
HETATM    1 CL   LIG     1       4.017  45.309  32.835  1.00  0.00    -0.061 Cl
HETATM    2  C   LIG     1       3.968  43.587  33.154  1.00  0.00     0.145 A 
HETATM    3  N   LIG     1       4.380  43.108  34.359  1.00  0.00    -0.213 NA
HETATM    4  C   LIG     1       4.351  41.777  34.628  1.00  0.00     0.182 A 
HETATM    5  N   LIG     1       4.763  41.305  35.832  1.00  0.00    -0.220 NA
HETATM    6  C   LIG     1       4.733  39.972  36.100  1.00  0.00     0.235 A 
HETATM    7  N   LIG     1       4.289  39.093  35.160  1.00  0.00    -0.252 NA
HETATM    8  C   LIG     1       3.866  39.523  33.940  1.00  0.00     0.153 A 
HETATM    9  C   LIG     1       3.889  40.885  33.646  1.00  0.00     0.121 A 
HETATM   10  N   LIG     1       3.477  41.362  32.443  1.00  0.00    -0.252 NA
HETATM   11  C   LIG     1       3.508  42.696  32.176  1.00  0.00     0.161 A 
ENDROOT
TORSDOF 0
ENDMDL
MODEL 20
REMARK VINA RESULT:      -3.9     18.600     19.458
REMARK  0 active torsions:
REMARK  status: ('A' for Active; 'I' for Inactive)
ROOT
HETATM    1 CL   LIG     1       2.814  40.910  29.817  1.00  0.00    -0.061 Cl
HETATM    2  C   LIG     1       3.314  41.146  31.481  1.00  0.00     0.145 A 
HETATM    3  N   LIG     1       3.521  40.070  32.286  1.00  0.00    -0.213 NA
HETATM    4  C   LIG     1       3.908  40.228  33.578  1.00  0.00     0.182 A 
HETATM    5  N   LIG     1       4.115  39.150  34.377  1.00  0.00    -0.220 NA
HETATM    6  C   LIG     1       4.502  39.312  35.670  1.00  0.00     0.235 A 
HETATM    7  N   LIG     1       4.688  40.560  36.180  1.00  0.00    -0.252 NA
HETATM    8  C   LIG     1       4.493  41.668  35.415  1.00  0.00     0.153 A 
HETATM    9  C   LIG     1       4.095  41.524  34.087  1.00  0.00     0.121 A 
HETATM   10  N   LIG     1       3.888  42.600  33.284  1.00  0.00    -0.252 NA
HETATM   11  C   LIG     1       3.500  42.437  31.989  1.00  0.00     0.161 A 
ENDROOT
TORSDOF 0
ENDMDL
