REMARK  0 active torsions:
REMARK  status: ('A' for Active; 'I' for Inactive)
ROOT
HETATM    1 CL   LIG     1      -3.670  -1.602   0.541  1.00  0.00    -0.061 Cl
HETATM    2  C   LIG     1      -2.171  -0.743   0.248  1.00  0.00     0.145 A 
HETATM    3  N   LIG     1      -0.980  -1.361   0.471  1.00  0.00    -0.213 NA
HETATM    4  C   LIG     1       0.194  -0.715   0.251  1.00  0.00     0.182 A 
HETATM    5  N   LIG     1       1.380  -1.337   0.475  1.00  0.00    -0.220 NA
HETATM    6  C   LIG     1       2.554  -0.688   0.254  1.00  0.00     0.235 A 
HETATM    7  N   LIG     1       2.554   0.597  -0.195  1.00  0.00    -0.252 NA
HETATM    8  C   LIG     1       1.389   1.258  -0.433  1.00  0.00     0.153 A 
HETATM    9  C   LIG     1       0.175   0.611  -0.213  1.00  0.00     0.121 A 
HETATM   10  N   LIG     1      -1.014   1.229  -0.436  1.00  0.00    -0.252 NA
HETATM   11  C   LIG     1      -2.189   0.579  -0.214  1.00  0.00     0.161 A 
ENDROOT
TORSDOF 0
