MODEL 1
REMARK VINA RESULT:      -7.8      0.000      0.000
REMARK  1 active torsions:
REMARK  status: ('A' for Active; 'I' for Inactive)
REMARK    1  A    between atoms: O_1  and  C_2 
ROOT
HETATM    1  C   LIG     1      16.144  37.726  22.759  1.00  0.00     0.066 A 
HETATM    2  C   LIG     1      16.225  36.439  22.226  1.00  0.00     0.037 A 
HETATM    3  C   LIG     1      17.164  36.146  21.234  1.00  0.00     0.010 A 
HETATM    4  C   LIG     1      17.004  38.729  22.293  1.00  0.00     0.044 A 
HETATM    5  C   LIG     1      17.943  38.452  21.286  1.00  0.00    -0.049 A 
HETATM    6  C   LIG     1      18.041  37.138  20.769  1.00  0.00    -0.052 A 
HETATM    7  C   LIG     1      18.995  36.800  19.645  1.00  0.00     0.039 C 
HETATM    8  C   LIG     1      20.132  37.817  19.513  1.00  0.00     0.005 C 
HETATM    9  C   LIG     1      19.577  39.241  19.520  1.00  0.00     0.005 C 
HETATM   10  C   LIG     1      18.899  39.542  20.860  1.00  0.00     0.039 C 
ENDROOT
BRANCH   1  11
HETATM   11  O   LIG     1      15.207  38.001  23.752  1.00  0.00    -0.361 OA
HETATM   12  H   LIG     1      14.531  37.308  24.051  1.00  0.00     0.217 HD
ENDBRANCH   1  11
TORSDOF 1
ENDMDL
MODEL 2
REMARK VINA RESULT:      -7.8      2.297      4.032
REMARK  1 active torsions:
REMARK  status: ('A' for Active; 'I' for Inactive)
REMARK    1  A    between atoms: O_1  and  C_2 
ROOT
HETATM    1  C   LIG     1      19.762  38.811  19.675  1.00  0.00     0.066 A 
HETATM    2  C   LIG     1      19.567  37.494  19.256  1.00  0.00     0.037 A 
HETATM    3  C   LIG     1      18.625  36.685  19.897  1.00  0.00     0.010 A 
HETATM    4  C   LIG     1      19.016  39.321  20.745  1.00  0.00     0.044 A 
HETATM    5  C   LIG     1      18.076  38.514  21.407  1.00  0.00    -0.049 A 
HETATM    6  C   LIG     1      17.860  37.188  20.961  1.00  0.00    -0.052 A 
HETATM    7  C   LIG     1      16.903  36.260  21.673  1.00  0.00     0.039 C 
HETATM    8  C   LIG     1      15.874  37.014  22.520  1.00  0.00     0.005 C 
HETATM    9  C   LIG     1      16.566  38.064  23.389  1.00  0.00     0.005 C 
HETATM   10  C   LIG     1      17.242  39.122  22.511  1.00  0.00     0.039 C 
ENDROOT
BRANCH   1  11
HETATM   11  O   LIG     1      20.700  39.608  19.022  1.00  0.00    -0.361 OA
HETATM   12  H   LIG     1      21.251  40.296  19.521  1.00  0.00     0.217 HD
ENDBRANCH   1  11
TORSDOF 1
ENDMDL
MODEL 3
REMARK VINA RESULT:      -7.3      2.972      4.996
REMARK  1 active torsions:
REMARK  status: ('A' for Active; 'I' for Inactive)
REMARK    1  A    between atoms: O_1  and  C_2 
ROOT
HETATM    1  C   LIG     1      16.568  36.120  21.778  1.00  0.00     0.066 A 
HETATM    2  C   LIG     1      16.610  37.497  21.999  1.00  0.00     0.037 A 
HETATM    3  C   LIG     1      16.981  37.998  23.249  1.00  0.00     0.010 A 
HETATM    4  C   LIG     1      16.893  35.238  22.816  1.00  0.00     0.044 A 
HETATM    5  C   LIG     1      17.254  35.728  24.083  1.00  0.00    -0.049 A 
HETATM    6  C   LIG     1      17.324  37.126  24.293  1.00  0.00    -0.052 A 
HETATM    7  C   LIG     1      17.652  37.705  25.650  1.00  0.00     0.039 C 
HETATM    8  C   LIG     1      18.374  36.706  26.557  1.00  0.00     0.005 C 
HETATM    9  C   LIG     1      17.645  35.362  26.556  1.00  0.00     0.005 C 
HETATM   10  C   LIG     1      17.665  34.745  25.154  1.00  0.00     0.039 C 
ENDROOT
BRANCH   1  11
HETATM   11  O   LIG     1      16.202  35.636  20.524  1.00  0.00    -0.361 OA
HETATM   12  H   LIG     1      16.011  36.259  19.750  1.00  0.00     0.217 HD
ENDBRANCH   1  11
TORSDOF 1
ENDMDL
MODEL 4
REMARK VINA RESULT:      -7.2      1.215      2.361
REMARK  1 active torsions:
REMARK  status: ('A' for Active; 'I' for Inactive)
REMARK    1  A    between atoms: O_1  and  C_2 
ROOT
HETATM    1  C   LIG     1      16.195  35.849  21.800  1.00  0.00     0.066 A 
HETATM    2  C   LIG     1      16.031  36.982  22.598  1.00  0.00     0.037 A 
HETATM    3  C   LIG     1      16.844  38.102  22.405  1.00  0.00     0.010 A 
HETATM    4  C   LIG     1      17.183  35.832  20.807  1.00  0.00     0.044 A 
HETATM    5  C   LIG     1      18.017  36.946  20.612  1.00  0.00    -0.049 A 
HETATM    6  C   LIG     1      17.828  38.104  21.404  1.00  0.00    -0.052 A 
HETATM    7  C   LIG     1      18.734  39.307  21.274  1.00  0.00     0.039 C 
HETATM    8  C   LIG     1      19.470  39.347  19.932  1.00  0.00     0.005 C 
HETATM    9  C   LIG     1      20.105  37.989  19.633  1.00  0.00     0.005 C 
HETATM   10  C   LIG     1      19.024  36.915  19.486  1.00  0.00     0.039 C 
ENDROOT
BRANCH   1  11
HETATM   11  O   LIG     1      15.372  34.743  21.999  1.00  0.00    -0.361 OA
HETATM   12  H   LIG     1      14.736  34.690  22.786  1.00  0.00     0.217 HD
ENDBRANCH   1  11
TORSDOF 1
ENDMDL
MODEL 5
REMARK VINA RESULT:      -7.0      3.088      4.734
REMARK  1 active torsions:
REMARK  status: ('A' for Active; 'I' for Inactive)
REMARK    1  A    between atoms: O_1  and  C_2 
ROOT
HETATM    1  C   LIG     1      17.735  38.536  22.702  1.00  0.00     0.066 A 
HETATM    2  C   LIG     1      17.087  37.477  22.064  1.00  0.00     0.037 A 
HETATM    3  C   LIG     1      16.875  36.273  22.740  1.00  0.00     0.010 A 
HETATM    4  C   LIG     1      18.179  38.389  24.022  1.00  0.00     0.044 A 
HETATM    5  C   LIG     1      17.985  37.178  24.709  1.00  0.00    -0.049 A 
HETATM    6  C   LIG     1      17.301  36.117  24.068  1.00  0.00    -0.052 A 
HETATM    7  C   LIG     1      17.116  34.777  24.741  1.00  0.00     0.039 C 
HETATM    8  C   LIG     1      17.252  34.859  26.264  1.00  0.00     0.005 C 
HETATM    9  C   LIG     1      18.512  35.636  26.645  1.00  0.00     0.005 C 
HETATM   10  C   LIG     1      18.416  37.083  26.154  1.00  0.00     0.039 C 
ENDROOT
BRANCH   1  11
HETATM   11  O   LIG     1      17.934  39.733  22.017  1.00  0.00    -0.361 OA
HETATM   12  H   LIG     1      18.862  40.055  21.769  1.00  0.00     0.217 HD
ENDBRANCH   1  11
TORSDOF 1
ENDMDL
MODEL 6
REMARK VINA RESULT:      -6.9      0.810      2.210
REMARK  1 active torsions:
REMARK  status: ('A' for Active; 'I' for Inactive)
REMARK    1  A    between atoms: O_1  and  C_2 
ROOT
HETATM    1  C   LIG     1      16.318  38.103  22.970  1.00  0.00     0.066 A 
HETATM    2  C   LIG     1      16.998  39.315  23.096  1.00  0.00     0.037 A 
HETATM    3  C   LIG     1      18.065  39.615  22.246  1.00  0.00     0.010 A 
HETATM    4  C   LIG     1      16.711  37.182  21.990  1.00  0.00     0.044 A 
HETATM    5  C   LIG     1      17.791  37.465  21.137  1.00  0.00    -0.049 A 
HETATM    6  C   LIG     1      18.460  38.708  21.251  1.00  0.00    -0.052 A 
HETATM    7  C   LIG     1      19.662  39.039  20.397  1.00  0.00     0.039 C 
HETATM    8  C   LIG     1      19.738  38.183  19.130  1.00  0.00     0.005 C 
HETATM    9  C   LIG     1      19.539  36.707  19.471  1.00  0.00     0.005 C 
HETATM   10  C   LIG     1      18.139  36.476  20.049  1.00  0.00     0.039 C 
ENDROOT
BRANCH   1  11
HETATM   11  O   LIG     1      15.252  37.821  23.821  1.00  0.00    -0.361 OA
HETATM   12  H   LIG     1      15.020  38.426  24.599  1.00  0.00     0.217 HD
ENDBRANCH   1  11
TORSDOF 1
ENDMDL
MODEL 7
REMARK VINA RESULT:      -6.9      2.282      4.370
REMARK  1 active torsions:
REMARK  status: ('A' for Active; 'I' for Inactive)
REMARK    1  A    between atoms: O_1  and  C_2 
ROOT
HETATM    1  C   LIG     1      19.142  38.778  19.729  1.00  0.00     0.066 A 
HETATM    2  C   LIG     1      18.900  39.646  20.794  1.00  0.00     0.037 A 
HETATM    3  C   LIG     1      18.186  39.207  21.912  1.00  0.00     0.010 A 
HETATM    4  C   LIG     1      18.661  37.463  19.778  1.00  0.00     0.044 A 
HETATM    5  C   LIG     1      17.929  37.012  20.890  1.00  0.00    -0.049 A 
HETATM    6  C   LIG     1      17.712  37.888  21.981  1.00  0.00    -0.052 A 
HETATM    7  C   LIG     1      16.884  37.472  23.175  1.00  0.00     0.039 C 
HETATM    8  C   LIG     1      16.775  35.952  23.315  1.00  0.00     0.005 C 
HETATM    9  C   LIG     1      16.392  35.320  21.976  1.00  0.00     0.005 C 
HETATM   10  C   LIG     1      17.489  35.568  20.936  1.00  0.00     0.039 C 
ENDROOT
BRANCH   1  11
HETATM   11  O   LIG     1      19.860  39.229  18.624  1.00  0.00    -0.361 OA
HETATM   12  H   LIG     1      20.765  39.673  18.725  1.00  0.00     0.217 HD
ENDBRANCH   1  11
TORSDOF 1
ENDMDL
MODEL 8
REMARK VINA RESULT:      -6.7      2.713      3.907
REMARK  1 active torsions:
REMARK  status: ('A' for Active; 'I' for Inactive)
REMARK    1  A    between atoms: O_1  and  C_2 
ROOT
HETATM    1  C   LIG     1      17.322  35.449  25.689  1.00  0.00     0.066 A 
HETATM    2  C   LIG     1      17.833  36.651  26.183  1.00  0.00     0.037 A 
HETATM    3  C   LIG     1      18.080  37.719  25.316  1.00  0.00     0.010 A 
HETATM    4  C   LIG     1      17.063  35.312  24.320  1.00  0.00     0.044 A 
HETATM    5  C   LIG     1      17.320  36.373  23.435  1.00  0.00    -0.049 A 
HETATM    6  C   LIG     1      17.811  37.600  23.944  1.00  0.00    -0.052 A 
HETATM    7  C   LIG     1      18.157  38.753  23.030  1.00  0.00     0.039 C 
HETATM    8  C   LIG     1      17.465  38.652  21.668  1.00  0.00     0.005 C 
HETATM    9  C   LIG     1      17.642  37.251  21.083  1.00  0.00     0.005 C 
HETATM   10  C   LIG     1      16.962  36.210  21.976  1.00  0.00     0.039 C 
ENDROOT
BRANCH   1  11
HETATM   11  O   LIG     1      17.075  34.396  26.566  1.00  0.00    -0.361 OA
HETATM   12  H   LIG     1      16.189  34.303  27.047  1.00  0.00     0.217 HD
ENDBRANCH   1  11
TORSDOF 1
ENDMDL
MODEL 9
REMARK VINA RESULT:      -6.5      2.203      2.665
REMARK  1 active torsions:
REMARK  status: ('A' for Active; 'I' for Inactive)
REMARK    1  A    between atoms: O_1  and  C_2 
ROOT
HETATM    1  C   LIG     1      17.422  36.374  25.437  1.00  0.00     0.066 A 
HETATM    2  C   LIG     1      17.090  35.237  24.699  1.00  0.00     0.037 A 
HETATM    3  C   LIG     1      17.115  35.273  23.303  1.00  0.00     0.010 A 
HETATM    4  C   LIG     1      17.775  37.556  24.775  1.00  0.00     0.044 A 
HETATM    5  C   LIG     1      17.792  37.610  23.370  1.00  0.00    -0.049 A 
HETATM    6  C   LIG     1      17.482  36.446  22.627  1.00  0.00    -0.052 A 
HETATM    7  C   LIG     1      17.429  36.465  21.116  1.00  0.00     0.039 C 
HETATM    8  C   LIG     1      18.213  37.635  20.514  1.00  0.00     0.005 C 
HETATM    9  C   LIG     1      17.845  38.940  21.218  1.00  0.00     0.005 C 
HETATM   10  C   LIG     1      18.246  38.883  22.695  1.00  0.00     0.039 C 
ENDROOT
BRANCH   1  11
HETATM   11  O   LIG     1      17.398  36.321  26.829  1.00  0.00    -0.361 OA
HETATM   12  H   LIG     1      17.085  37.108  27.384  1.00  0.00     0.217 HD
ENDBRANCH   1  11
TORSDOF 1
ENDMDL
MODEL 10
REMARK VINA RESULT:      -6.3      7.761      8.937
REMARK  1 active torsions:
REMARK  status: ('A' for Active; 'I' for Inactive)
REMARK    1  A    between atoms: O_1  and  C_2 
ROOT
HETATM    1  C   LIG     1      15.015  33.032  17.538  1.00  0.00     0.066 A 
HETATM    2  C   LIG     1      14.062  32.054  17.822  1.00  0.00     0.037 A 
HETATM    3  C   LIG     1      13.795  31.042  16.897  1.00  0.00     0.010 A 
HETATM    4  C   LIG     1      15.703  33.002  16.318  1.00  0.00     0.044 A 
HETATM    5  C   LIG     1      15.434  31.998  15.372  1.00  0.00    -0.049 A 
HETATM    6  C   LIG     1      14.487  30.991  15.677  1.00  0.00    -0.052 A 
HETATM    7  C   LIG     1      14.120  29.922  14.674  1.00  0.00     0.039 C 
HETATM    8  C   LIG     1      15.189  29.738  13.593  1.00  0.00     0.005 C 
HETATM    9  C   LIG     1      15.601  31.091  13.015  1.00  0.00     0.005 C 
HETATM   10  C   LIG     1      16.247  31.960  14.099  1.00  0.00     0.039 C 
ENDROOT
BRANCH   1  11
HETATM   11  O   LIG     1      15.275  34.031  18.473  1.00  0.00    -0.361 OA
HETATM   12  H   LIG     1      15.771  34.878  18.222  1.00  0.00     0.217 HD
ENDBRANCH   1  11
TORSDOF 1
ENDMDL
MODEL 11
REMARK VINA RESULT:      -6.2      8.279      9.981
REMARK  1 active torsions:
REMARK  status: ('A' for Active; 'I' for Inactive)
REMARK    1  A    between atoms: O_1  and  C_2 
ROOT
HETATM    1  C   LIG     1      17.021  32.534  13.478  1.00  0.00     0.066 A 
HETATM    2  C   LIG     1      17.197  33.387  14.569  1.00  0.00     0.037 A 
HETATM    3  C   LIG     1      16.378  33.268  15.694  1.00  0.00     0.010 A 
HETATM    4  C   LIG     1      16.016  31.560  13.511  1.00  0.00     0.044 A 
HETATM    5  C   LIG     1      15.176  31.438  14.631  1.00  0.00    -0.049 A 
HETATM    6  C   LIG     1      15.377  32.286  15.746  1.00  0.00    -0.052 A 
HETATM    7  C   LIG     1      14.467  32.235  16.951  1.00  0.00     0.039 C 
HETATM    8  C   LIG     1      13.707  30.910  17.059  1.00  0.00     0.005 C 
HETATM    9  C   LIG     1      13.069  30.551  15.717  1.00  0.00     0.005 C 
HETATM   10  C   LIG     1      14.150  30.329  14.655  1.00  0.00     0.039 C 
ENDROOT
BRANCH   1  11
HETATM   11  O   LIG     1      17.850  32.661  12.366  1.00  0.00    -0.361 OA
HETATM   12  H   LIG     1      18.788  33.035  12.443  1.00  0.00     0.217 HD
ENDBRANCH   1  11
TORSDOF 1
ENDMDL
MODEL 12
REMARK VINA RESULT:      -6.2      2.310      4.292
REMARK  1 active torsions:
REMARK  status: ('A' for Active; 'I' for Inactive)
REMARK    1  A    between atoms: O_1  and  C_2 
ROOT
HETATM    1  C   LIG     1      18.282  37.116  19.478  1.00  0.00     0.066 A 
HETATM    2  C   LIG     1      18.915  38.343  19.678  1.00  0.00     0.037 A 
HETATM    3  C   LIG     1      18.882  38.956  20.933  1.00  0.00     0.010 A 
HETATM    4  C   LIG     1      17.605  36.500  20.539  1.00  0.00     0.044 A 
HETATM    5  C   LIG     1      17.552  37.112  21.803  1.00  0.00    -0.049 A 
HETATM    6  C   LIG     1      18.221  38.342  22.008  1.00  0.00    -0.052 A 
HETATM    7  C   LIG     1      18.148  39.070  23.331  1.00  0.00     0.039 C 
HETATM    8  C   LIG     1      17.762  38.147  24.490  1.00  0.00     0.005 C 
HETATM    9  C   LIG     1      16.544  37.303  24.116  1.00  0.00     0.005 C 
HETATM   10  C   LIG     1      16.873  36.382  22.938  1.00  0.00     0.039 C 
ENDROOT
BRANCH   1  11
HETATM   11  O   LIG     1      18.329  36.515  18.223  1.00  0.00    -0.361 OA
HETATM   12  H   LIG     1      18.382  35.508  18.118  1.00  0.00     0.217 HD
ENDBRANCH   1  11
TORSDOF 1
ENDMDL
MODEL 13
REMARK VINA RESULT:      -6.2      1.886      3.442
REMARK  1 active torsions:
REMARK  status: ('A' for Active; 'I' for Inactive)
REMARK    1  A    between atoms: O_1  and  C_2 
ROOT
HETATM    1  C   LIG     1      17.341  38.215  24.313  1.00  0.00     0.066 A 
HETATM    2  C   LIG     1      17.929  38.947  23.280  1.00  0.00     0.037 A 
HETATM    3  C   LIG     1      17.956  38.433  21.981  1.00  0.00     0.010 A 
HETATM    4  C   LIG     1      16.783  36.958  24.047  1.00  0.00     0.044 A 
HETATM    5  C   LIG     1      16.816  36.423  22.749  1.00  0.00    -0.049 A 
HETATM    6  C   LIG     1      17.386  37.181  21.698  1.00  0.00    -0.052 A 
HETATM    7  C   LIG     1      17.498  36.630  20.296  1.00  0.00     0.039 C 
HETATM    8  C   LIG     1      16.519  35.482  20.036  1.00  0.00     0.005 C 
HETATM    9  C   LIG     1      16.584  34.459  21.169  1.00  0.00     0.005 C 
HETATM   10  C   LIG     1      16.141  35.096  22.489  1.00  0.00     0.039 C 
ENDROOT
BRANCH   1  11
HETATM   11  O   LIG     1      17.316  38.743  25.602  1.00  0.00    -0.361 OA
HETATM   12  H   LIG     1      18.059  38.560  26.265  1.00  0.00     0.217 HD
ENDBRANCH   1  11
TORSDOF 1
ENDMDL
MODEL 14
REMARK VINA RESULT:      -6.2      8.987     10.236
REMARK  1 active torsions:
REMARK  status: ('A' for Active; 'I' for Inactive)
REMARK    1  A    between atoms: O_1  and  C_2 
ROOT
HETATM    1  C   LIG     1      13.415  29.171  14.304  1.00  0.00     0.066 A 
HETATM    2  C   LIG     1      14.679  29.337  13.736  1.00  0.00     0.037 A 
HETATM    3  C   LIG     1      15.517  30.365  14.173  1.00  0.00     0.010 A 
HETATM    4  C   LIG     1      12.984  30.043  15.312  1.00  0.00     0.044 A 
HETATM    5  C   LIG     1      13.812  31.090  15.752  1.00  0.00    -0.049 A 
HETATM    6  C   LIG     1      15.104  31.236  15.193  1.00  0.00    -0.052 A 
HETATM    7  C   LIG     1      16.012  32.378  15.589  1.00  0.00     0.039 C 
HETATM    8  C   LIG     1      15.632  32.989  16.941  1.00  0.00     0.005 C 
HETATM    9  C   LIG     1      14.131  33.270  16.996  1.00  0.00     0.005 C 
HETATM   10  C   LIG     1      13.339  31.964  16.890  1.00  0.00     0.039 C 
ENDROOT
BRANCH   1  11
HETATM   11  O   LIG     1      12.593  28.137  13.862  1.00  0.00    -0.361 OA
HETATM   12  H   LIG     1      12.298  27.392  14.481  1.00  0.00     0.217 HD
ENDBRANCH   1  11
TORSDOF 1
ENDMDL
MODEL 15
REMARK VINA RESULT:      -6.1      1.772      2.681
REMARK  1 active torsions:
REMARK  status: ('A' for Active; 'I' for Inactive)
REMARK    1  A    between atoms: O_1  and  C_2 
ROOT
HETATM    1  C   LIG     1      15.279  35.345  21.381  1.00  0.00     0.066 A 
HETATM    2  C   LIG     1      16.183  35.117  20.342  1.00  0.00     0.037 A 
HETATM    3  C   LIG     1      17.259  35.985  20.143  1.00  0.00     0.010 A 
HETATM    4  C   LIG     1      15.449  36.452  22.222  1.00  0.00     0.044 A 
HETATM    5  C   LIG     1      16.519  37.341  22.025  1.00  0.00    -0.049 A 
HETATM    6  C   LIG     1      17.450  37.089  20.989  1.00  0.00    -0.052 A 
HETATM    7  C   LIG     1      18.585  38.043  20.698  1.00  0.00     0.039 C 
HETATM    8  C   LIG     1      18.914  38.947  21.889  1.00  0.00     0.005 C 
HETATM    9  C   LIG     1      17.638  39.570  22.453  1.00  0.00     0.005 C 
HETATM   10  C   LIG     1      16.708  38.482  22.997  1.00  0.00     0.039 C 
ENDROOT
BRANCH   1  11
HETATM   11  O   LIG     1      14.214  34.468  21.570  1.00  0.00    -0.361 OA
HETATM   12  H   LIG     1      13.678  34.461  22.430  1.00  0.00     0.217 HD
ENDBRANCH   1  11
TORSDOF 1
ENDMDL
MODEL 16
REMARK VINA RESULT:      -6.0      8.626      9.783
REMARK  1 active torsions:
REMARK  status: ('A' for Active; 'I' for Inactive)
REMARK    1  A    between atoms: O_1  and  C_2 
ROOT
HETATM    1  C   LIG     1      13.404  29.689  14.593  1.00  0.00     0.066 A 
HETATM    2  C   LIG     1      12.916  30.180  15.804  1.00  0.00     0.037 A 
HETATM    3  C   LIG     1      13.563  31.238  16.446  1.00  0.00     0.010 A 
HETATM    4  C   LIG     1      14.552  30.255  14.023  1.00  0.00     0.044 A 
HETATM    5  C   LIG     1      15.221  31.310  14.665  1.00  0.00    -0.049 A 
HETATM    6  C   LIG     1      14.705  31.825  15.878  1.00  0.00    -0.052 A 
HETATM    7  C   LIG     1      15.417  32.920  16.639  1.00  0.00     0.039 C 
HETATM    8  C   LIG     1      16.377  33.721  15.755  1.00  0.00     0.005 C 
HETATM    9  C   LIG     1      17.264  32.778  14.942  1.00  0.00     0.005 C 
HETATM   10  C   LIG     1      16.414  31.939  13.983  1.00  0.00     0.039 C 
ENDROOT
BRANCH   1  11
HETATM   11  O   LIG     1      12.744  28.637  13.961  1.00  0.00    -0.361 OA
HETATM   12  H   LIG     1      12.532  28.662  12.971  1.00  0.00     0.217 HD
ENDBRANCH   1  11
TORSDOF 1
ENDMDL
MODEL 17
REMARK VINA RESULT:      -6.0      2.553      3.767
REMARK  1 active torsions:
REMARK  status: ('A' for Active; 'I' for Inactive)
REMARK    1  A    between atoms: O_1  and  C_2 
ROOT
HETATM    1  C   LIG     1      16.585  35.596  20.596  1.00  0.00     0.066 A 
HETATM    2  C   LIG     1      16.263  34.689  21.606  1.00  0.00     0.037 A 
HETATM    3  C   LIG     1      16.477  35.022  22.946  1.00  0.00     0.010 A 
HETATM    4  C   LIG     1      17.130  36.843  20.927  1.00  0.00     0.044 A 
HETATM    5  C   LIG     1      17.363  37.187  22.269  1.00  0.00    -0.049 A 
HETATM    6  C   LIG     1      17.008  36.275  23.292  1.00  0.00    -0.052 A 
HETATM    7  C   LIG     1      17.290  36.570  24.747  1.00  0.00     0.039 C 
HETATM    8  C   LIG     1      17.483  38.065  25.017  1.00  0.00     0.005 C 
HETATM    9  C   LIG     1      18.458  38.667  24.006  1.00  0.00     0.005 C 
HETATM   10  C   LIG     1      17.887  38.568  22.588  1.00  0.00     0.039 C 
ENDROOT
BRANCH   1  11
HETATM   11  O   LIG     1      16.360  35.251  19.265  1.00  0.00    -0.361 OA
HETATM   12  H   LIG     1      17.096  35.309  18.571  1.00  0.00     0.217 HD
ENDBRANCH   1  11
TORSDOF 1
ENDMDL
MODEL 18
REMARK VINA RESULT:      -6.0      8.314      9.819
REMARK  1 active torsions:
REMARK  status: ('A' for Active; 'I' for Inactive)
REMARK    1  A    between atoms: O_1  and  C_2 
ROOT
HETATM    1  C   LIG     1      16.575  32.073  13.458  1.00  0.00     0.066 A 
HETATM    2  C   LIG     1      15.774  30.990  13.091  1.00  0.00     0.037 A 
HETATM    3  C   LIG     1      14.797  30.509  13.967  1.00  0.00     0.010 A 
HETATM    4  C   LIG     1      16.402  32.675  14.710  1.00  0.00     0.044 A 
HETATM    5  C   LIG     1      15.432  32.193  15.606  1.00  0.00    -0.049 A 
HETATM    6  C   LIG     1      14.603  31.113  15.219  1.00  0.00    -0.052 A 
HETATM    7  C   LIG     1      13.585  30.520  16.165  1.00  0.00     0.039 C 
HETATM    8  C   LIG     1      13.200  31.481  17.293  1.00  0.00     0.005 C 
HETATM    9  C   LIG     1      14.453  32.074  17.937  1.00  0.00     0.005 C 
HETATM   10  C   LIG     1      15.230  32.914  16.919  1.00  0.00     0.039 C 
ENDROOT
BRANCH   1  11
HETATM   11  O   LIG     1      17.540  32.545  12.572  1.00  0.00    -0.361 OA
HETATM   12  H   LIG     1      18.383  32.019  12.376  1.00  0.00     0.217 HD
ENDBRANCH   1  11
TORSDOF 1
ENDMDL
MODEL 19
REMARK VINA RESULT:      -5.9      9.068     10.348
REMARK  1 active torsions:
REMARK  status: ('A' for Active; 'I' for Inactive)
REMARK    1  A    between atoms: O_1  and  C_2 
ROOT
HETATM    1  C   LIG     1      14.848  29.277  13.759  1.00  0.00     0.066 A 
HETATM    2  C   LIG     1      13.557  29.087  14.254  1.00  0.00     0.037 A 
HETATM    3  C   LIG     1      13.039  29.951  15.221  1.00  0.00     0.010 A 
HETATM    4  C   LIG     1      15.629  30.336  14.240  1.00  0.00     0.044 A 
HETATM    5  C   LIG     1      15.126  31.205  15.223  1.00  0.00    -0.049 A 
HETATM    6  C   LIG     1      13.805  31.025  15.700  1.00  0.00    -0.052 A 
HETATM    7  C   LIG     1      13.236  31.896  16.797  1.00  0.00     0.039 C 
HETATM    8  C   LIG     1      13.982  33.225  16.939  1.00  0.00     0.005 C 
HETATM    9  C   LIG     1      15.491  32.987  16.982  1.00  0.00     0.005 C 
HETATM   10  C   LIG     1      15.973  32.376  15.663  1.00  0.00     0.039 C 
ENDROOT
BRANCH   1  11
HETATM   11  O   LIG     1      15.347  28.410  12.791  1.00  0.00    -0.361 OA
HETATM   12  H   LIG     1      15.244  27.406  12.873  1.00  0.00     0.217 HD
ENDBRANCH   1  11
TORSDOF 1
ENDMDL
MODEL 20
REMARK VINA RESULT:      -5.7      7.906      8.915
REMARK  1 active torsions:
REMARK  status: ('A' for Active; 'I' for Inactive)
REMARK    1  A    between atoms: O_1  and  C_2 
ROOT
HETATM    1  C   LIG     1      13.375  30.674  16.056  1.00  0.00     0.066 A 
HETATM    2  C   LIG     1      13.780  30.072  14.864  1.00  0.00     0.037 A 
HETATM    3  C   LIG     1      14.869  30.582  14.153  1.00  0.00     0.010 A 
HETATM    4  C   LIG     1      14.058  31.798  16.537  1.00  0.00     0.044 A 
HETATM    5  C   LIG     1      15.146  32.330  15.824  1.00  0.00    -0.049 A 
HETATM    6  C   LIG     1      15.572  31.699  14.631  1.00  0.00    -0.052 A 
HETATM    7  C   LIG     1      16.699  32.263  13.797  1.00  0.00     0.039 C 
HETATM    8  C   LIG     1      17.611  33.198  14.596  1.00  0.00     0.005 C 
HETATM    9  C   LIG     1      16.778  34.213  15.379  1.00  0.00     0.005 C 
HETATM   10  C   LIG     1      15.900  33.500  16.412  1.00  0.00     0.039 C 
ENDROOT
BRANCH   1  11
HETATM   11  O   LIG     1      12.291  30.150  16.757  1.00  0.00    -0.361 OA
HETATM   12  H   LIG     1      12.333  29.991  17.757  1.00  0.00     0.217 HD
ENDBRANCH   1  11
TORSDOF 1
ENDMDL
