REMARK  1 active torsions:
REMARK  status: ('A' for Active; 'I' for Inactive)
REMARK    1  A    between atoms: O_1  and  C_2 
ROOT
HETATM    1  C   LIG     1       2.663  -0.347  -0.031  1.00  0.00     0.066 A 
HETATM    2  C   LIG     1       2.530   1.039  -0.126  1.00  0.00     0.037 A 
HETATM    3  C   LIG     1       1.262   1.625  -0.138  1.00  0.00     0.010 A 
HETATM    4  C   LIG     1       1.520  -1.153   0.046  1.00  0.00     0.044 A 
HETATM    5  C   LIG     1       0.238  -0.578   0.021  1.00  0.00    -0.049 A 
HETATM    6  C   LIG     1       0.109   0.830  -0.046  1.00  0.00    -0.052 A 
HETATM    7  C   LIG     1      -1.245   1.496  -0.133  1.00  0.00     0.039 C 
HETATM    8  C   LIG     1      -2.377   0.595   0.368  1.00  0.00     0.005 C 
HETATM    9  C   LIG     1      -2.268  -0.795  -0.258  1.00  0.00     0.005 C 
HETATM   10  C   LIG     1      -0.967  -1.476   0.177  1.00  0.00     0.039 C 
ENDROOT
BRANCH   1  11
HETATM   11  O   LIG     1       3.934  -0.916  -0.014  1.00  0.00    -0.361 OA
HETATM   12  H   LIG     1       4.066  -1.918   0.054  1.00  0.00     0.217 HD
ENDBRANCH   1  11
TORSDOF 1
