MODEL 1
REMARK VINA RESULT:      -8.6      0.000      0.000
REMARK  1 active torsions:
REMARK  status: ('A' for Active; 'I' for Inactive)
REMARK    1  A    between atoms: C_2  and  C_3 
ROOT
HETATM    1  C   LIG     1      16.815  36.241  22.796  1.00  0.00    -0.047 A 
HETATM    2  C   LIG     1      17.290  36.132  24.133  1.00  0.00    -0.020 A 
HETATM    3  C   LIG     1      17.335  34.898  24.821  1.00  0.00     0.013 A 
HETATM    4  C   LIG     1      17.808  34.832  26.132  1.00  0.00     0.001 A 
HETATM    5  C   LIG     1      18.242  35.985  26.785  1.00  0.00     0.001 A 
HETATM    6  C   LIG     1      18.204  37.216  26.130  1.00  0.00     0.012 A 
HETATM    7  C   LIG     1      17.731  37.303  24.812  1.00  0.00    -0.025 A 
HETATM    8  C   LIG     1      17.692  38.545  24.166  1.00  0.00     0.012 A 
HETATM    9  C   LIG     1      17.220  38.643  22.860  1.00  0.00     0.001 A 
HETATM   10  C   LIG     1      16.787  37.506  22.181  1.00  0.00     0.008 A 
ENDROOT
BRANCH   1  11
HETATM   11  C   LIG     1      16.338  35.048  21.993  1.00  0.00     0.035 C 
HETATM   12  C   LIG     1      15.050  35.369  21.239  1.00  0.00     0.010 C 
ENDBRANCH   1  11
TORSDOF 1
ENDMDL
MODEL 2
REMARK VINA RESULT:      -8.4      0.885      2.896
REMARK  1 active torsions:
REMARK  status: ('A' for Active; 'I' for Inactive)
REMARK    1  A    between atoms: C_2  and  C_3 
ROOT
HETATM    1  C   LIG     1      17.223  37.604  22.761  1.00  0.00    -0.047 A 
HETATM    2  C   LIG     1      17.470  36.957  24.004  1.00  0.00    -0.020 A 
HETATM    3  C   LIG     1      17.911  37.661  25.148  1.00  0.00     0.013 A 
HETATM    4  C   LIG     1      18.141  36.991  26.351  1.00  0.00     0.001 A 
HETATM    5  C   LIG     1      17.941  35.614  26.441  1.00  0.00     0.001 A 
HETATM    6  C   LIG     1      17.511  34.895  25.326  1.00  0.00     0.012 A 
HETATM    7  C   LIG     1      17.275  35.551  24.108  1.00  0.00    -0.025 A 
HETATM    8  C   LIG     1      16.849  34.819  22.993  1.00  0.00     0.012 A 
HETATM    9  C   LIG     1      16.615  35.458  21.779  1.00  0.00     0.001 A 
HETATM   10  C   LIG     1      16.800  36.835  21.662  1.00  0.00     0.008 A 
ENDROOT
BRANCH   1  11
HETATM   11  C   LIG     1      17.392  39.096  22.563  1.00  0.00     0.035 C 
HETATM   12  C   LIG     1      18.490  39.398  21.546  1.00  0.00     0.010 C 
ENDBRANCH   1  11
TORSDOF 1
ENDMDL
MODEL 3
REMARK VINA RESULT:      -8.1      2.637      4.219
REMARK  1 active torsions:
REMARK  status: ('A' for Active; 'I' for Inactive)
REMARK    1  A    between atoms: C_2  and  C_3 
ROOT
HETATM    1  C   LIG     1      16.903  36.402  21.634  1.00  0.00    -0.047 A 
HETATM    2  C   LIG     1      17.858  37.239  20.993  1.00  0.00    -0.020 A 
HETATM    3  C   LIG     1      18.694  36.773  19.953  1.00  0.00     0.013 A 
HETATM    4  C   LIG     1      19.619  37.625  19.348  1.00  0.00     0.001 A 
HETATM    5  C   LIG     1      19.733  38.951  19.763  1.00  0.00     0.001 A 
HETATM    6  C   LIG     1      18.923  39.435  20.790  1.00  0.00     0.012 A 
HETATM    7  C   LIG     1      17.988  38.593  21.411  1.00  0.00    -0.025 A 
HETATM    8  C   LIG     1      17.184  39.088  22.445  1.00  0.00     0.012 A 
HETATM    9  C   LIG     1      16.256  38.260  23.071  1.00  0.00     0.001 A 
HETATM   10  C   LIG     1      16.116  36.933  22.672  1.00  0.00     0.008 A 
ENDROOT
BRANCH   1  11
HETATM   11  C   LIG     1      16.687  34.953  21.247  1.00  0.00     0.035 C 
HETATM   12  C   LIG     1      15.211  34.572  21.334  1.00  0.00     0.010 C 
ENDBRANCH   1  11
TORSDOF 1
ENDMDL
MODEL 4
REMARK VINA RESULT:      -8.0      2.099      5.030
REMARK  1 active torsions:
REMARK  status: ('A' for Active; 'I' for Inactive)
REMARK    1  A    between atoms: C_2  and  C_3 
ROOT
HETATM    1  C   LIG     1      17.241  37.545  22.884  1.00  0.00    -0.047 A 
HETATM    2  C   LIG     1      17.936  37.834  21.676  1.00  0.00    -0.020 A 
HETATM    3  C   LIG     1      18.554  39.083  21.440  1.00  0.00     0.013 A 
HETATM    4  C   LIG     1      19.228  39.328  20.243  1.00  0.00     0.001 A 
HETATM    5  C   LIG     1      19.300  38.343  19.259  1.00  0.00     0.001 A 
HETATM    6  C   LIG     1      18.695  37.103  19.465  1.00  0.00     0.012 A 
HETATM    7  C   LIG     1      18.012  36.838  20.663  1.00  0.00    -0.025 A 
HETATM    8  C   LIG     1      17.403  35.592  20.856  1.00  0.00     0.012 A 
HETATM    9  C   LIG     1      16.720  35.320  22.038  1.00  0.00     0.001 A 
HETATM   10  C   LIG     1      16.639  36.284  23.041  1.00  0.00     0.008 A 
ENDROOT
BRANCH   1  11
HETATM   11  C   LIG     1      17.121  38.539  24.021  1.00  0.00     0.035 C 
HETATM   12  C   LIG     1      17.357  37.864  25.371  1.00  0.00     0.010 C 
ENDBRANCH   1  11
TORSDOF 1
ENDMDL
MODEL 5
REMARK VINA RESULT:      -7.7      0.983      3.787
REMARK  1 active torsions:
REMARK  status: ('A' for Active; 'I' for Inactive)
REMARK    1  A    between atoms: C_2  and  C_3 
ROOT
HETATM    1  C   LIG     1      17.333  36.155  24.962  1.00  0.00    -0.047 A 
HETATM    2  C   LIG     1      17.193  36.107  23.547  1.00  0.00    -0.020 A 
HETATM    3  C   LIG     1      17.030  34.892  22.844  1.00  0.00     0.013 A 
HETATM    4  C   LIG     1      16.896  34.886  21.455  1.00  0.00     0.001 A 
HETATM    5  C   LIG     1      16.923  36.081  20.738  1.00  0.00     0.001 A 
HETATM    6  C   LIG     1      17.087  37.294  21.407  1.00  0.00     0.012 A 
HETATM    7  C   LIG     1      17.224  37.320  22.804  1.00  0.00    -0.025 A 
HETATM    8  C   LIG     1      17.395  38.544  23.464  1.00  0.00     0.012 A 
HETATM    9  C   LIG     1      17.536  38.581  24.848  1.00  0.00     0.001 A 
HETATM   10  C   LIG     1      17.506  37.402  25.590  1.00  0.00     0.008 A 
ENDROOT
BRANCH   1  11
HETATM   11  C   LIG     1      17.299  34.917  25.834  1.00  0.00     0.035 C 
HETATM   12  C   LIG     1      18.632  34.707  26.548  1.00  0.00     0.010 C 
ENDBRANCH   1  11
TORSDOF 1
ENDMDL
MODEL 6
REMARK VINA RESULT:      -7.2      1.309      4.036
REMARK  1 active torsions:
REMARK  status: ('A' for Active; 'I' for Inactive)
REMARK    1  A    between atoms: C_2  and  C_3 
ROOT
HETATM    1  C   LIG     1      17.574  37.877  23.589  1.00  0.00    -0.047 A 
HETATM    2  C   LIG     1      17.195  36.915  22.612  1.00  0.00    -0.020 A 
HETATM    3  C   LIG     1      16.451  35.759  22.939  1.00  0.00     0.013 A 
HETATM    4  C   LIG     1      16.098  34.837  21.952  1.00  0.00     0.001 A 
HETATM    5  C   LIG     1      16.475  35.044  20.626  1.00  0.00     0.001 A 
HETATM    6  C   LIG     1      17.214  36.175  20.277  1.00  0.00     0.012 A 
HETATM    7  C   LIG     1      17.579  37.112  21.256  1.00  0.00    -0.025 A 
HETATM    8  C   LIG     1      18.326  38.240  20.895  1.00  0.00     0.012 A 
HETATM    9  C   LIG     1      18.697  39.175  21.858  1.00  0.00     0.001 A 
HETATM   10  C   LIG     1      18.327  38.997  23.190  1.00  0.00     0.008 A 
ENDROOT
BRANCH   1  11
HETATM   11  C   LIG     1      17.199  37.757  25.051  1.00  0.00     0.035 C 
HETATM   12  C   LIG     1      18.293  37.047  25.846  1.00  0.00     0.010 C 
ENDBRANCH   1  11
TORSDOF 1
ENDMDL
MODEL 7
REMARK VINA RESULT:      -7.1      2.802      4.349
REMARK  1 active torsions:
REMARK  status: ('A' for Active; 'I' for Inactive)
REMARK    1  A    between atoms: C_2  and  C_3 
ROOT
HETATM    1  C   LIG     1      18.531  37.850  20.671  1.00  0.00    -0.047 A 
HETATM    2  C   LIG     1      17.418  37.000  20.925  1.00  0.00    -0.020 A 
HETATM    3  C   LIG     1      17.147  35.855  20.142  1.00  0.00     0.013 A 
HETATM    4  C   LIG     1      16.045  35.045  20.424  1.00  0.00     0.001 A 
HETATM    5  C   LIG     1      15.194  35.355  21.483  1.00  0.00     0.001 A 
HETATM    6  C   LIG     1      15.437  36.482  22.269  1.00  0.00     0.012 A 
HETATM    7  C   LIG     1      16.539  37.309  22.001  1.00  0.00    -0.025 A 
HETATM    8  C   LIG     1      16.770  38.441  22.792  1.00  0.00     0.012 A 
HETATM    9  C   LIG     1      17.857  39.270  22.533  1.00  0.00     0.001 A 
HETATM   10  C   LIG     1      18.729  38.980  21.485  1.00  0.00     0.008 A 
ENDROOT
BRANCH   1  11
HETATM   11  C   LIG     1      19.525  37.591  19.557  1.00  0.00     0.035 C 
HETATM   12  C   LIG     1      20.441  38.794  19.344  1.00  0.00     0.010 C 
ENDBRANCH   1  11
TORSDOF 1
ENDMDL
MODEL 8
REMARK VINA RESULT:      -6.7      1.872      2.848
REMARK  1 active torsions:
REMARK  status: ('A' for Active; 'I' for Inactive)
REMARK    1  A    between atoms: C_2  and  C_3 
ROOT
HETATM    1  C   LIG     1      17.373  36.215  20.920  1.00  0.00    -0.047 A 
HETATM    2  C   LIG     1      17.398  37.030  22.087  1.00  0.00    -0.020 A 
HETATM    3  C   LIG     1      16.697  36.684  23.264  1.00  0.00     0.013 A 
HETATM    4  C   LIG     1      16.746  37.510  24.390  1.00  0.00     0.001 A 
HETATM    5  C   LIG     1      17.488  38.690  24.367  1.00  0.00     0.001 A 
HETATM    6  C   LIG     1      18.185  39.056  23.215  1.00  0.00     0.012 A 
HETATM    7  C   LIG     1      18.147  38.240  22.074  1.00  0.00    -0.025 A 
HETATM    8  C   LIG     1      18.846  38.620  20.922  1.00  0.00     0.012 A 
HETATM    9  C   LIG     1      18.812  37.820  19.783  1.00  0.00     0.001 A 
HETATM   10  C   LIG     1      18.085  36.632  19.780  1.00  0.00     0.008 A 
ENDROOT
BRANCH   1  11
HETATM   11  C   LIG     1      16.614  34.906  20.847  1.00  0.00     0.035 C 
HETATM   12  C   LIG     1      15.585  34.926  19.720  1.00  0.00     0.010 C 
ENDBRANCH   1  11
TORSDOF 1
ENDMDL
MODEL 9
REMARK VINA RESULT:      -6.6      6.896     10.508
REMARK  1 active torsions:
REMARK  status: ('A' for Active; 'I' for Inactive)
REMARK    1  A    between atoms: C_2  and  C_3 
ROOT
HETATM    1  C   LIG     1      14.702  32.136  17.048  1.00  0.00    -0.047 A 
HETATM    2  C   LIG     1      15.372  32.149  15.793  1.00  0.00    -0.020 A 
HETATM    3  C   LIG     1      16.457  33.014  15.526  1.00  0.00     0.013 A 
HETATM    4  C   LIG     1      17.090  32.997  14.281  1.00  0.00     0.001 A 
HETATM    5  C   LIG     1      16.658  32.127  13.282  1.00  0.00     0.001 A 
HETATM    6  C   LIG     1      15.586  31.266  13.519  1.00  0.00     0.012 A 
HETATM    7  C   LIG     1      14.937  31.269  14.763  1.00  0.00    -0.025 A 
HETATM    8  C   LIG     1      13.858  30.405  14.988  1.00  0.00     0.012 A 
HETATM    9  C   LIG     1      13.204  30.402  16.217  1.00  0.00     0.001 A 
HETATM   10  C   LIG     1      13.620  31.256  17.236  1.00  0.00     0.008 A 
ENDROOT
BRANCH   1  11
HETATM   11  C   LIG     1      15.104  33.027  18.205  1.00  0.00     0.035 C 
HETATM   12  C   LIG     1      15.443  32.204  19.445  1.00  0.00     0.010 C 
ENDBRANCH   1  11
TORSDOF 1
ENDMDL
MODEL 10
REMARK VINA RESULT:      -6.6      8.395     10.733
REMARK  1 active torsions:
REMARK  status: ('A' for Active; 'I' for Inactive)
REMARK    1  A    between atoms: C_2  and  C_3 
ROOT
HETATM    1  C   LIG     1      16.061  32.532  15.520  1.00  0.00    -0.047 A 
HETATM    2  C   LIG     1      15.218  31.449  15.142  1.00  0.00    -0.020 A 
HETATM    3  C   LIG     1      15.571  30.536  14.123  1.00  0.00     0.013 A 
HETATM    4  C   LIG     1      14.717  29.486  13.782  1.00  0.00     0.001 A 
HETATM    5  C   LIG     1      13.500  29.324  14.441  1.00  0.00     0.001 A 
HETATM    6  C   LIG     1      13.125  30.214  15.447  1.00  0.00     0.012 A 
HETATM    7  C   LIG     1      13.970  31.276  15.804  1.00  0.00    -0.025 A 
HETATM    8  C   LIG     1      13.581  32.168  16.812  1.00  0.00     0.012 A 
HETATM    9  C   LIG     1      14.410  33.227  17.171  1.00  0.00     0.001 A 
HETATM   10  C   LIG     1      15.636  33.409  16.534  1.00  0.00     0.008 A 
ENDROOT
BRANCH   1  11
HETATM   11  C   LIG     1      17.411  32.784  14.879  1.00  0.00     0.035 C 
HETATM   12  C   LIG     1      17.584  34.258  14.518  1.00  0.00     0.010 C 
ENDBRANCH   1  11
TORSDOF 1
ENDMDL
MODEL 11
REMARK VINA RESULT:      -6.4      8.439     10.630
REMARK  1 active torsions:
REMARK  status: ('A' for Active; 'I' for Inactive)
REMARK    1  A    between atoms: C_2  and  C_3 
ROOT
HETATM    1  C   LIG     1      14.690  30.468  14.631  1.00  0.00    -0.047 A 
HETATM    2  C   LIG     1      15.260  31.673  15.128  1.00  0.00    -0.020 A 
HETATM    3  C   LIG     1      16.448  32.222  14.596  1.00  0.00     0.013 A 
HETATM    4  C   LIG     1      16.977  33.408  15.110  1.00  0.00     0.001 A 
HETATM    5  C   LIG     1      16.339  34.068  16.159  1.00  0.00     0.001 A 
HETATM    6  C   LIG     1      15.167  33.545  16.705  1.00  0.00     0.012 A 
HETATM    7  C   LIG     1      14.621  32.354  16.202  1.00  0.00    -0.025 A 
HETATM    8  C   LIG     1      13.447  31.834  16.762  1.00  0.00     0.012 A 
HETATM    9  C   LIG     1      12.899  30.651  16.274  1.00  0.00     0.001 A 
HETATM   10  C   LIG     1      13.511  29.975  15.221  1.00  0.00     0.008 A 
ENDROOT
BRANCH   1  11
HETATM   11  C   LIG     1      15.293  29.685  13.483  1.00  0.00     0.035 C 
HETATM   12  C   LIG     1      15.251  28.183  13.757  1.00  0.00     0.010 C 
ENDBRANCH   1  11
TORSDOF 1
ENDMDL
MODEL 12
REMARK VINA RESULT:      -6.4      7.940     10.586
REMARK  1 active torsions:
REMARK  status: ('A' for Active; 'I' for Inactive)
REMARK    1  A    between atoms: C_2  and  C_3 
ROOT
HETATM    1  C   LIG     1      14.623  30.375  14.339  1.00  0.00    -0.047 A 
HETATM    2  C   LIG     1      14.656  31.153  15.530  1.00  0.00    -0.020 A 
HETATM    3  C   LIG     1      13.863  30.843  16.658  1.00  0.00     0.013 A 
HETATM    4  C   LIG     1      13.923  31.631  17.809  1.00  0.00     0.001 A 
HETATM    5  C   LIG     1      14.769  32.738  17.862  1.00  0.00     0.001 A 
HETATM    6  C   LIG     1      15.559  33.068  16.761  1.00  0.00     0.012 A 
HETATM    7  C   LIG     1      15.511  32.289  15.595  1.00  0.00    -0.025 A 
HETATM    8  C   LIG     1      16.305  32.634  14.494  1.00  0.00     0.012 A 
HETATM    9  C   LIG     1      16.262  31.870  13.331  1.00  0.00     0.001 A 
HETATM   10  C   LIG     1      15.432  30.754  13.252  1.00  0.00     0.008 A 
ENDROOT
BRANCH   1  11
HETATM   11  C   LIG     1      13.755  29.143  14.186  1.00  0.00     0.035 C 
HETATM   12  C   LIG     1      14.580  27.937  13.745  1.00  0.00     0.010 C 
ENDBRANCH   1  11
TORSDOF 1
ENDMDL
MODEL 13
REMARK VINA RESULT:      -6.3      7.933     10.447
REMARK  1 active torsions:
REMARK  status: ('A' for Active; 'I' for Inactive)
REMARK    1  A    between atoms: C_2  and  C_3 
ROOT
HETATM    1  C   LIG     1      16.378  32.423  14.518  1.00  0.00    -0.047 A 
HETATM    2  C   LIG     1      15.547  32.165  15.644  1.00  0.00    -0.020 A 
HETATM    3  C   LIG     1      15.643  32.910  16.841  1.00  0.00     0.013 A 
HETATM    4  C   LIG     1      14.809  32.627  17.924  1.00  0.00     0.001 A 
HETATM    5  C   LIG     1      13.869  31.601  17.841  1.00  0.00     0.001 A 
HETATM    6  C   LIG     1      13.756  30.848  16.673  1.00  0.00     0.012 A 
HETATM    7  C   LIG     1      14.586  31.117  15.574  1.00  0.00    -0.025 A 
HETATM    8  C   LIG     1      14.469  30.350  14.408  1.00  0.00     0.012 A 
HETATM    9  C   LIG     1      15.290  30.606  13.313  1.00  0.00     0.001 A 
HETATM   10  C   LIG     1      16.234  31.629  13.365  1.00  0.00     0.008 A 
ENDROOT
BRANCH   1  11
HETATM   11  C   LIG     1      17.417  33.525  14.499  1.00  0.00     0.035 C 
HETATM   12  C   LIG     1      18.036  33.676  13.111  1.00  0.00     0.010 C 
ENDBRANCH   1  11
TORSDOF 1
ENDMDL
MODEL 14
REMARK VINA RESULT:      -6.1      7.193     10.576
REMARK  1 active torsions:
REMARK  status: ('A' for Active; 'I' for Inactive)
REMARK    1  A    between atoms: C_2  and  C_3 
ROOT
HETATM    1  C   LIG     1      15.404  32.835  16.349  1.00  0.00    -0.047 A 
HETATM    2  C   LIG     1      14.904  31.724  15.614  1.00  0.00    -0.020 A 
HETATM    3  C   LIG     1      13.808  30.952  16.063  1.00  0.00     0.013 A 
HETATM    4  C   LIG     1      13.347  29.869  15.313  1.00  0.00     0.001 A 
HETATM    5  C   LIG     1      13.963  29.530  14.109  1.00  0.00     0.001 A 
HETATM    6  C   LIG     1      15.049  30.273  13.646  1.00  0.00     0.012 A 
HETATM    7  C   LIG     1      15.528  31.365  14.386  1.00  0.00    -0.025 A 
HETATM    8  C   LIG     1      16.623  32.099  13.914  1.00  0.00     0.012 A 
HETATM    9  C   LIG     1      17.109  33.182  14.642  1.00  0.00     0.001 A 
HETATM   10  C   LIG     1      16.508  33.547  15.845  1.00  0.00     0.008 A 
ENDROOT
BRANCH   1  11
HETATM   11  C   LIG     1      14.795  33.296  17.657  1.00  0.00     0.035 C 
HETATM   12  C   LIG     1      15.321  32.474  18.831  1.00  0.00     0.010 C 
ENDBRANCH   1  11
TORSDOF 1
ENDMDL
MODEL 15
REMARK VINA RESULT:      -5.7      8.999     10.825
REMARK  1 active torsions:
REMARK  status: ('A' for Active; 'I' for Inactive)
REMARK    1  A    between atoms: C_2  and  C_3 
ROOT
HETATM    1  C   LIG     1      14.663  31.478  15.712  1.00  0.00    -0.047 A 
HETATM    2  C   LIG     1      15.666  32.338  15.182  1.00  0.00    -0.020 A 
HETATM    3  C   LIG     1      16.118  33.486  15.871  1.00  0.00     0.013 A 
HETATM    4  C   LIG     1      17.104  34.305  15.318  1.00  0.00     0.001 A 
HETATM    5  C   LIG     1      17.658  34.002  14.075  1.00  0.00     0.001 A 
HETATM    6  C   LIG     1      17.226  32.877  13.373  1.00  0.00     0.012 A 
HETATM    7  C   LIG     1      16.235  32.042  13.912  1.00  0.00    -0.025 A 
HETATM    8  C   LIG     1      15.805  30.918  13.195  1.00  0.00     0.012 A 
HETATM    9  C   LIG     1      14.820  30.086  13.718  1.00  0.00     0.001 A 
HETATM   10  C   LIG     1      14.254  30.360  14.961  1.00  0.00     0.008 A 
ENDROOT
BRANCH   1  11
HETATM   11  C   LIG     1      14.012  31.707  17.060  1.00  0.00     0.035 C 
HETATM   12  C   LIG     1      12.491  31.754  16.939  1.00  0.00     0.010 C 
ENDBRANCH   1  11
TORSDOF 1
ENDMDL
