REMARK  1 active torsions:
REMARK  status: ('A' for Active; 'I' for Inactive)
REMARK    1  A    between atoms: C_2  and  C_3 
ROOT
HETATM    1  C   LIG     1       0.883   0.502  -0.291  1.00  0.00    -0.047 A 
HETATM    2  C   LIG     1      -0.337  -0.177  -0.017  1.00  0.00    -0.020 A 
HETATM    3  C   LIG     1      -0.418  -1.586   0.055  1.00  0.00     0.013 A 
HETATM    4  C   LIG     1      -1.634  -2.216   0.327  1.00  0.00     0.001 A 
HETATM    5  C   LIG     1      -2.789  -1.462   0.530  1.00  0.00     0.001 A 
HETATM    6  C   LIG     1      -2.737  -0.070   0.460  1.00  0.00     0.012 A 
HETATM    7  C   LIG     1      -1.524   0.581   0.187  1.00  0.00    -0.025 A 
HETATM    8  C   LIG     1      -1.485   1.979   0.113  1.00  0.00     0.012 A 
HETATM    9  C   LIG     1      -0.288   2.635  -0.161  1.00  0.00     0.001 A 
HETATM   10  C   LIG     1       0.883   1.907  -0.361  1.00  0.00     0.008 A 
ENDROOT
BRANCH   1  11
HETATM   11  C   LIG     1       2.196  -0.222  -0.508  1.00  0.00     0.035 C 
HETATM   12  C   LIG     1       2.810  -0.662   0.819  1.00  0.00     0.010 C 
ENDBRANCH   1  11
TORSDOF 1
