MODEL 1
REMARK VINA RESULT:      -7.3      0.000      0.000
REMARK  2 active torsions:
REMARK  status: ('A' for Active; 'I' for Inactive)
REMARK       I    between atoms: C_2  and  N_3 
REMARK    1  A    between atoms: C_2  and  O_5 
REMARK    2  A    between atoms: O_5  and  C_6 
ROOT
HETATM    1  C   LIG     1      17.061  37.475  22.521  1.00  0.00     0.081 A 
HETATM    2  C   LIG     1      17.920  38.423  21.932  1.00  0.00     0.044 A 
HETATM    3  C   LIG     1      18.542  38.152  20.702  1.00  0.00    -0.059 A 
HETATM    4  C   LIG     1      19.487  39.148  20.098  1.00  0.00     0.048 C 
HETATM    5  C   LIG     1      18.317  36.919  20.071  1.00  0.00     0.007 A 
HETATM    6  C   LIG     1      17.449  35.985  20.643  1.00  0.00     0.003 A 
HETATM    7  C   LIG     1      16.818  36.266  21.857  1.00  0.00     0.037 A 
ENDROOT
BRANCH   1   8
HETATM    8  O   LIG     1      16.404  37.712  23.737  1.00  0.00    -0.262 OA
BRANCH   8   9
HETATM    9  C   LIG     1      16.997  37.647  25.005  1.00  0.00     0.365 C 
HETATM   10  O   LIG     1      17.167  38.690  25.694  1.00  0.00    -0.238 OA
HETATM   11  N   LIG     1      17.464  36.384  25.490  1.00  0.00    -0.341 N 
HETATM   12  C   LIG     1      18.107  36.248  26.791  1.00  0.00     0.151 C 
HETATM   13  H   LIG     1      17.335  35.535  24.894  1.00  0.00     0.164 HD
ENDBRANCH   8   9
ENDBRANCH   1   8
TORSDOF 2
ENDMDL
MODEL 2
REMARK VINA RESULT:      -7.1      2.366      5.121
REMARK  2 active torsions:
REMARK  status: ('A' for Active; 'I' for Inactive)
REMARK       I    between atoms: C_2  and  N_3 
REMARK    1  A    between atoms: C_2  and  O_5 
REMARK    2  A    between atoms: O_5  and  C_6 
ROOT
HETATM    1  C   LIG     1      16.784  36.572  23.363  1.00  0.00     0.081 A 
HETATM    2  C   LIG     1      17.242  35.546  24.213  1.00  0.00     0.044 A 
HETATM    3  C   LIG     1      17.754  35.852  25.484  1.00  0.00    -0.059 A 
HETATM    4  C   LIG     1      18.277  34.760  26.371  1.00  0.00     0.048 C 
HETATM    5  C   LIG     1      17.824  37.191  25.897  1.00  0.00     0.007 A 
HETATM    6  C   LIG     1      17.352  38.208  25.064  1.00  0.00     0.003 A 
HETATM    7  C   LIG     1      16.827  37.898  23.807  1.00  0.00     0.037 A 
ENDROOT
BRANCH   1   8
HETATM    8  O   LIG     1      16.248  36.310  22.093  1.00  0.00    -0.262 OA
BRANCH   8   9
HETATM    9  C   LIG     1      16.989  36.186  20.910  1.00  0.00     0.365 C 
HETATM   10  O   LIG     1      16.697  35.306  20.054  1.00  0.00    -0.238 OA
HETATM   11  N   LIG     1      18.122  37.036  20.707  1.00  0.00    -0.341 N 
HETATM   12  C   LIG     1      18.947  36.947  19.509  1.00  0.00     0.151 C 
HETATM   13  H   LIG     1      18.360  37.743  21.438  1.00  0.00     0.164 HD
ENDBRANCH   8   9
ENDBRANCH   1   8
TORSDOF 2
ENDMDL
MODEL 3
REMARK VINA RESULT:      -7.0      3.288      5.316
REMARK  2 active torsions:
REMARK  status: ('A' for Active; 'I' for Inactive)
REMARK       I    between atoms: C_2  and  N_3 
REMARK    1  A    between atoms: C_2  and  O_5 
REMARK    2  A    between atoms: O_5  and  C_6 
ROOT
HETATM    1  C   LIG     1      16.760  35.959  22.602  1.00  0.00     0.081 A 
HETATM    2  C   LIG     1      17.113  35.131  23.686  1.00  0.00     0.044 A 
HETATM    3  C   LIG     1      17.394  35.690  24.944  1.00  0.00    -0.059 A 
HETATM    4  C   LIG     1      17.808  34.808  26.085  1.00  0.00     0.048 C 
HETATM    5  C   LIG     1      17.341  37.081  25.109  1.00  0.00     0.007 A 
HETATM    6  C   LIG     1      16.972  37.902  24.041  1.00  0.00     0.003 A 
HETATM    7  C   LIG     1      16.675  37.342  22.796  1.00  0.00     0.037 A 
ENDROOT
BRANCH   1   8
HETATM    8  O   LIG     1      16.452  35.443  21.334  1.00  0.00    -0.262 OA
BRANCH   8   9
HETATM    9  C   LIG     1      15.568  34.384  21.082  1.00  0.00     0.365 C 
HETATM   10  O   LIG     1      14.492  34.272  21.732  1.00  0.00    -0.238 OA
HETATM   11  N   LIG     1      15.928  33.394  20.115  1.00  0.00    -0.341 N 
HETATM   12  C   LIG     1      15.065  32.257  19.818  1.00  0.00     0.151 C 
HETATM   13  H   LIG     1      16.834  33.492  19.604  1.00  0.00     0.164 HD
ENDBRANCH   8   9
ENDBRANCH   1   8
TORSDOF 2
ENDMDL
MODEL 4
REMARK VINA RESULT:      -6.7      0.787      2.242
REMARK  2 active torsions:
REMARK  status: ('A' for Active; 'I' for Inactive)
REMARK       I    between atoms: C_2  and  N_3 
REMARK    1  A    between atoms: C_2  and  O_5 
REMARK    2  A    between atoms: O_5  and  C_6 
ROOT
HETATM    1  C   LIG     1      16.771  37.458  22.619  1.00  0.00     0.081 A 
HETATM    2  C   LIG     1      16.190  36.267  22.140  1.00  0.00     0.044 A 
HETATM    3  C   LIG     1      16.628  35.699  20.933  1.00  0.00    -0.059 A 
HETATM    4  C   LIG     1      15.980  34.452  20.407  1.00  0.00     0.048 C 
HETATM    5  C   LIG     1      17.635  36.337  20.194  1.00  0.00     0.007 A 
HETATM    6  C   LIG     1      18.226  37.507  20.677  1.00  0.00     0.003 A 
HETATM    7  C   LIG     1      17.801  38.059  21.888  1.00  0.00     0.037 A 
ENDROOT
BRANCH   1   8
HETATM    8  O   LIG     1      16.378  38.049  23.829  1.00  0.00    -0.262 OA
BRANCH   8   9
HETATM    9  C   LIG     1      17.034  37.893  25.058  1.00  0.00     0.365 C 
HETATM   10  O   LIG     1      17.157  38.865  25.854  1.00  0.00    -0.238 OA
HETATM   11  N   LIG     1      17.616  36.626  25.378  1.00  0.00    -0.341 N 
HETATM   12  C   LIG     1      18.328  36.400  26.630  1.00  0.00     0.151 C 
HETATM   13  H   LIG     1      17.523  35.840  24.697  1.00  0.00     0.164 HD
ENDBRANCH   8   9
ENDBRANCH   1   8
TORSDOF 2
ENDMDL
MODEL 5
REMARK VINA RESULT:      -6.6      3.701      5.643
REMARK  2 active torsions:
REMARK  status: ('A' for Active; 'I' for Inactive)
REMARK       I    between atoms: C_2  and  N_3 
REMARK    1  A    between atoms: C_2  and  O_5 
REMARK    2  A    between atoms: O_5  and  C_6 
ROOT
HETATM    1  C   LIG     1      18.266  37.460  20.736  1.00  0.00     0.081 A 
HETATM    2  C   LIG     1      17.526  36.261  20.750  1.00  0.00     0.044 A 
HETATM    3  C   LIG     1      16.416  36.121  21.598  1.00  0.00    -0.059 A 
HETATM    4  C   LIG     1      15.655  34.828  21.639  1.00  0.00     0.048 C 
HETATM    5  C   LIG     1      16.059  37.178  22.449  1.00  0.00     0.007 A 
HETATM    6  C   LIG     1      16.779  38.375  22.422  1.00  0.00     0.003 A 
HETATM    7  C   LIG     1      17.872  38.517  21.563  1.00  0.00     0.037 A 
ENDROOT
BRANCH   1   8
HETATM    8  O   LIG     1      19.370  37.650  19.890  1.00  0.00    -0.262 OA
BRANCH   8   9
HETATM    9  C   LIG     1      19.504  38.683  18.952  1.00  0.00     0.365 C 
HETATM   10  O   LIG     1      20.335  39.615  19.131  1.00  0.00    -0.238 OA
HETATM   11  N   LIG     1      18.642  38.700  17.810  1.00  0.00    -0.341 N 
HETATM   12  C   LIG     1      18.715  39.754  16.806  1.00  0.00     0.151 C 
HETATM   13  H   LIG     1      17.945  37.931  17.691  1.00  0.00     0.164 HD
ENDBRANCH   8   9
ENDBRANCH   1   8
TORSDOF 2
ENDMDL
MODEL 6
REMARK VINA RESULT:      -6.5      3.417      5.394
REMARK  2 active torsions:
REMARK  status: ('A' for Active; 'I' for Inactive)
REMARK       I    between atoms: C_2  and  N_3 
REMARK    1  A    between atoms: C_2  and  O_5 
REMARK    2  A    between atoms: O_5  and  C_6 
ROOT
HETATM    1  C   LIG     1      18.183  38.457  21.283  1.00  0.00     0.081 A 
HETATM    2  C   LIG     1      17.810  38.550  22.639  1.00  0.00     0.044 A 
HETATM    3  C   LIG     1      17.223  37.454  23.292  1.00  0.00    -0.059 A 
HETATM    4  C   LIG     1      16.791  37.572  24.724  1.00  0.00     0.048 C 
HETATM    5  C   LIG     1      16.990  36.269  22.579  1.00  0.00     0.007 A 
HETATM    6  C   LIG     1      17.378  36.166  21.241  1.00  0.00     0.003 A 
HETATM    7  C   LIG     1      17.979  37.253  20.600  1.00  0.00     0.037 A 
ENDROOT
BRANCH   1   8
HETATM    8  O   LIG     1      18.790  39.519  20.597  1.00  0.00    -0.262 OA
BRANCH   8   9
HETATM    9  C   LIG     1      19.358  39.439  19.319  1.00  0.00     0.365 C 
HETATM   10  O   LIG     1      20.588  39.197  19.171  1.00  0.00    -0.238 OA
HETATM   11  N   LIG     1      18.536  39.694  18.176  1.00  0.00    -0.341 N 
HETATM   12  C   LIG     1      19.067  39.646  16.819  1.00  0.00     0.151 C 
HETATM   13  H   LIG     1      17.525  39.915  18.320  1.00  0.00     0.164 HD
ENDBRANCH   8   9
ENDBRANCH   1   8
TORSDOF 2
ENDMDL
MODEL 7
REMARK VINA RESULT:      -6.5      2.320      4.597
REMARK  2 active torsions:
REMARK  status: ('A' for Active; 'I' for Inactive)
REMARK       I    between atoms: C_2  and  N_3 
REMARK    1  A    between atoms: C_2  and  O_5 
REMARK    2  A    between atoms: O_5  and  C_6 
ROOT
HETATM    1  C   LIG     1      17.210  37.246  23.105  1.00  0.00     0.081 A 
HETATM    2  C   LIG     1      17.696  37.468  24.408  1.00  0.00     0.044 A 
HETATM    3  C   LIG     1      17.804  36.404  25.318  1.00  0.00    -0.059 A 
HETATM    4  C   LIG     1      18.284  36.653  26.718  1.00  0.00     0.048 C 
HETATM    5  C   LIG     1      17.406  35.117  24.927  1.00  0.00     0.007 A 
HETATM    6  C   LIG     1      16.944  34.890  23.628  1.00  0.00     0.003 A 
HETATM    7  C   LIG     1      16.855  35.948  22.720  1.00  0.00     0.037 A 
ENDROOT
BRANCH   1   8
HETATM    8  O   LIG     1      17.104  38.275  22.158  1.00  0.00    -0.262 OA
BRANCH   8   9
HETATM    9  C   LIG     1      18.173  38.830  21.440  1.00  0.00     0.365 C 
HETATM   10  O   LIG     1      18.624  39.971  21.731  1.00  0.00    -0.238 OA
HETATM   11  N   LIG     1      18.712  38.108  20.328  1.00  0.00    -0.341 N 
HETATM   12  C   LIG     1      19.810  38.635  19.527  1.00  0.00     0.151 C 
HETATM   13  H   LIG     1      18.309  37.175  20.089  1.00  0.00     0.164 HD
ENDBRANCH   8   9
ENDBRANCH   1   8
TORSDOF 2
ENDMDL
MODEL 8
REMARK VINA RESULT:      -6.4      3.033      4.315
REMARK  2 active torsions:
REMARK  status: ('A' for Active; 'I' for Inactive)
REMARK       I    between atoms: C_2  and  N_3 
REMARK    1  A    between atoms: C_2  and  O_5 
REMARK    2  A    between atoms: O_5  and  C_6 
ROOT
HETATM    1  C   LIG     1      17.135  36.278  21.667  1.00  0.00     0.081 A 
HETATM    2  C   LIG     1      18.033  36.588  20.627  1.00  0.00     0.044 A 
HETATM    3  C   LIG     1      18.470  37.909  20.434  1.00  0.00    -0.059 A 
HETATM    4  C   LIG     1      19.395  38.241  19.301  1.00  0.00     0.048 C 
HETATM    5  C   LIG     1      17.989  38.925  21.274  1.00  0.00     0.007 A 
HETATM    6  C   LIG     1      17.114  38.617  22.319  1.00  0.00     0.003 A 
HETATM    7  C   LIG     1      16.697  37.298  22.519  1.00  0.00     0.037 A 
ENDROOT
BRANCH   1   8
HETATM    8  O   LIG     1      16.689  34.970  21.907  1.00  0.00    -0.262 OA
BRANCH   8   9
HETATM    9  C   LIG     1      15.672  34.317  21.197  1.00  0.00     0.365 C 
HETATM   10  O   LIG     1      14.461  34.458  21.524  1.00  0.00    -0.238 OA
HETATM   11  N   LIG     1      16.028  33.436  20.128  1.00  0.00    -0.341 N 
HETATM   12  C   LIG     1      15.022  32.710  19.361  1.00  0.00     0.151 C 
HETATM   13  H   LIG     1      17.037  33.314  19.888  1.00  0.00     0.164 HD
ENDBRANCH   8   9
ENDBRANCH   1   8
TORSDOF 2
ENDMDL
MODEL 9
REMARK VINA RESULT:      -6.3      8.800     10.398
REMARK  2 active torsions:
REMARK  status: ('A' for Active; 'I' for Inactive)
REMARK       I    between atoms: C_2  and  N_3 
REMARK    1  A    between atoms: C_2  and  O_5 
REMARK    2  A    between atoms: O_5  and  C_6 
ROOT
HETATM    1  C   LIG     1      16.047  32.464  15.807  1.00  0.00     0.081 A 
HETATM    2  C   LIG     1      15.689  31.413  14.940  1.00  0.00     0.044 A 
HETATM    3  C   LIG     1      14.479  30.724  15.119  1.00  0.00    -0.059 A 
HETATM    4  C   LIG     1      14.121  29.579  14.217  1.00  0.00     0.048 C 
HETATM    5  C   LIG     1      13.634  31.076  16.182  1.00  0.00     0.007 A 
HETATM    6  C   LIG     1      13.977  32.131  17.031  1.00  0.00     0.003 A 
HETATM    7  C   LIG     1      15.173  32.827  16.838  1.00  0.00     0.037 A 
ENDROOT
BRANCH   1   8
HETATM    8  O   LIG     1      17.236  33.193  15.653  1.00  0.00    -0.262 OA
BRANCH   8   9
HETATM    9  C   LIG     1      17.537  34.035  14.573  1.00  0.00     0.365 C 
HETATM   10  O   LIG     1      17.263  35.266  14.618  1.00  0.00    -0.238 OA
HETATM   11  N   LIG     1      18.109  33.470  13.390  1.00  0.00    -0.341 N 
HETATM   12  C   LIG     1      18.429  34.285  12.224  1.00  0.00     0.151 C 
HETATM   13  H   LIG     1      18.307  32.445  13.364  1.00  0.00     0.164 HD
ENDBRANCH   8   9
ENDBRANCH   1   8
TORSDOF 2
ENDMDL
MODEL 10
REMARK VINA RESULT:      -6.2      7.142      8.715
REMARK  2 active torsions:
REMARK  status: ('A' for Active; 'I' for Inactive)
REMARK       I    between atoms: C_2  and  N_3 
REMARK    1  A    between atoms: C_2  and  O_5 
REMARK    2  A    between atoms: O_5  and  C_6 
ROOT
HETATM    1  C   LIG     1      14.776  32.201  16.701  1.00  0.00     0.081 A 
HETATM    2  C   LIG     1      15.382  31.653  15.554  1.00  0.00     0.044 A 
HETATM    3  C   LIG     1      14.699  30.708  14.771  1.00  0.00    -0.059 A 
HETATM    4  C   LIG     1      15.364  30.098  13.572  1.00  0.00     0.048 C 
HETATM    5  C   LIG     1      13.413  30.297  15.150  1.00  0.00     0.007 A 
HETATM    6  C   LIG     1      12.801  30.854  16.276  1.00  0.00     0.003 A 
HETATM    7  C   LIG     1      13.477  31.808  17.042  1.00  0.00     0.037 A 
ENDROOT
BRANCH   1   8
HETATM    8  O   LIG     1      15.414  33.161  17.500  1.00  0.00    -0.262 OA
BRANCH   8   9
HETATM    9  C   LIG     1      15.511  33.119  18.898  1.00  0.00     0.365 C 
HETATM   10  O   LIG     1      15.641  32.019  19.504  1.00  0.00    -0.238 OA
HETATM   11  N   LIG     1      15.401  34.337  19.639  1.00  0.00    -0.341 N 
HETATM   12  C   LIG     1      15.474  34.362  21.095  1.00  0.00     0.151 C 
HETATM   13  H   LIG     1      15.270  35.234  19.121  1.00  0.00     0.164 HD
ENDBRANCH   8   9
ENDBRANCH   1   8
TORSDOF 2
ENDMDL
MODEL 11
REMARK VINA RESULT:      -6.2      3.451      4.967
REMARK  2 active torsions:
REMARK  status: ('A' for Active; 'I' for Inactive)
REMARK       I    between atoms: C_2  and  N_3 
REMARK    1  A    between atoms: C_2  and  O_5 
REMARK    2  A    between atoms: O_5  and  C_6 
ROOT
HETATM    1  C   LIG     1      16.790  35.585  21.950  1.00  0.00     0.081 A 
HETATM    2  C   LIG     1      16.787  36.985  21.797  1.00  0.00     0.044 A 
HETATM    3  C   LIG     1      16.988  37.822  22.906  1.00  0.00    -0.059 A 
HETATM    4  C   LIG     1      16.945  39.313  22.745  1.00  0.00     0.048 C 
HETATM    5  C   LIG     1      17.172  37.254  24.176  1.00  0.00     0.007 A 
HETATM    6  C   LIG     1      17.196  35.866  24.327  1.00  0.00     0.003 A 
HETATM    7  C   LIG     1      17.014  35.036  23.217  1.00  0.00     0.037 A 
ENDROOT
BRANCH   1   8
HETATM    8  O   LIG     1      16.613  34.711  20.866  1.00  0.00    -0.262 OA
BRANCH   8   9
HETATM    9  C   LIG     1      15.577  33.776  20.740  1.00  0.00     0.365 C 
HETATM   10  O   LIG     1      14.529  33.873  21.436  1.00  0.00    -0.238 OA
HETATM   11  N   LIG     1      15.746  32.668  19.850  1.00  0.00    -0.341 N 
HETATM   12  C   LIG     1      14.717  31.649  19.684  1.00  0.00     0.151 C 
HETATM   13  H   LIG     1      16.631  32.593  19.300  1.00  0.00     0.164 HD
ENDBRANCH   8   9
ENDBRANCH   1   8
TORSDOF 2
ENDMDL
MODEL 12
REMARK VINA RESULT:      -6.0      9.626     10.965
REMARK  2 active torsions:
REMARK  status: ('A' for Active; 'I' for Inactive)
REMARK       I    between atoms: C_2  and  N_3 
REMARK    1  A    between atoms: C_2  and  O_5 
REMARK    2  A    between atoms: O_5  and  C_6 
ROOT
HETATM    1  C   LIG     1      16.181  32.593  14.640  1.00  0.00     0.081 A 
HETATM    2  C   LIG     1      15.349  32.299  15.738  1.00  0.00     0.044 A 
HETATM    3  C   LIG     1      14.496  31.183  15.704  1.00  0.00    -0.059 A 
HETATM    4  C   LIG     1      13.583  30.896  16.860  1.00  0.00     0.048 C 
HETATM    5  C   LIG     1      14.462  30.373  14.560  1.00  0.00     0.007 A 
HETATM    6  C   LIG     1      15.301  30.651  13.478  1.00  0.00     0.003 A 
HETATM    7  C   LIG     1      16.162  31.751  13.522  1.00  0.00     0.037 A 
ENDROOT
BRANCH   1   8
HETATM    8  O   LIG     1      17.063  33.684  14.638  1.00  0.00    -0.262 OA
BRANCH   8   9
HETATM    9  C   LIG     1      17.799  34.130  13.532  1.00  0.00     0.365 C 
HETATM   10  O   LIG     1      17.301  34.949  12.712  1.00  0.00    -0.238 OA
HETATM   11  N   LIG     1      19.109  33.600  13.310  1.00  0.00    -0.341 N 
HETATM   12  C   LIG     1      19.921  34.006  12.170  1.00  0.00     0.151 C 
HETATM   13  H   LIG     1      19.495  32.906  13.988  1.00  0.00     0.164 HD
ENDBRANCH   8   9
ENDBRANCH   1   8
TORSDOF 2
ENDMDL
MODEL 13
REMARK VINA RESULT:      -5.6      7.776      9.179
REMARK  2 active torsions:
REMARK  status: ('A' for Active; 'I' for Inactive)
REMARK       I    between atoms: C_2  and  N_3 
REMARK    1  A    between atoms: C_2  and  O_5 
REMARK    2  A    between atoms: O_5  and  C_6 
ROOT
HETATM    1  C   LIG     1      14.557  31.801  15.890  1.00  0.00     0.081 A 
HETATM    2  C   LIG     1      15.530  32.465  15.116  1.00  0.00     0.044 A 
HETATM    3  C   LIG     1      15.990  31.898  13.916  1.00  0.00    -0.059 A 
HETATM    4  C   LIG     1      17.055  32.589  13.115  1.00  0.00     0.048 C 
HETATM    5  C   LIG     1      15.490  30.655  13.501  1.00  0.00     0.007 A 
HETATM    6  C   LIG     1      14.511  30.005  14.257  1.00  0.00     0.003 A 
HETATM    7  C   LIG     1      14.041  30.581  15.441  1.00  0.00     0.037 A 
ENDROOT
BRANCH   1   8
HETATM    8  O   LIG     1      14.054  32.340  17.084  1.00  0.00    -0.262 OA
BRANCH   8   9
HETATM    9  C   LIG     1      14.668  32.240  18.340  1.00  0.00     0.365 C 
HETATM   10  O   LIG     1      15.590  33.034  18.674  1.00  0.00    -0.238 OA
HETATM   11  N   LIG     1      14.276  31.184  19.223  1.00  0.00    -0.341 N 
HETATM   12  C   LIG     1      14.886  31.011  20.535  1.00  0.00     0.151 C 
HETATM   13  H   LIG     1      13.527  30.523  18.918  1.00  0.00     0.164 HD
ENDBRANCH   8   9
ENDBRANCH   1   8
TORSDOF 2
ENDMDL
MODEL 14
REMARK VINA RESULT:      -5.6     10.703     12.419
REMARK  2 active torsions:
REMARK  status: ('A' for Active; 'I' for Inactive)
REMARK       I    between atoms: C_2  and  N_3 
REMARK    1  A    between atoms: C_2  and  O_5 
REMARK    2  A    between atoms: O_5  and  C_6 
ROOT
HETATM    1  C   LIG     1      14.412  29.929  14.589  1.00  0.00     0.081 A 
HETATM    2  C   LIG     1      15.523  30.778  14.415  1.00  0.00     0.044 A 
HETATM    3  C   LIG     1      15.684  31.912  15.227  1.00  0.00    -0.059 A 
HETATM    4  C   LIG     1      16.848  32.835  15.012  1.00  0.00     0.048 C 
HETATM    5  C   LIG     1      14.720  32.207  16.202  1.00  0.00     0.007 A 
HETATM    6  C   LIG     1      13.628  31.356  16.390  1.00  0.00     0.003 A 
HETATM    7  C   LIG     1      13.480  30.218  15.592  1.00  0.00     0.037 A 
ENDROOT
BRANCH   1   8
HETATM    8  O   LIG     1      14.221  28.775  13.814  1.00  0.00    -0.262 OA
BRANCH   8   9
HETATM    9  C   LIG     1      15.224  27.863  13.456  1.00  0.00     0.365 C 
HETATM   10  O   LIG     1      16.010  27.393  14.324  1.00  0.00    -0.238 OA
HETATM   11  N   LIG     1      15.386  27.514  12.078  1.00  0.00    -0.341 N 
HETATM   12  C   LIG     1      16.420  26.587  11.635  1.00  0.00     0.151 C 
HETATM   13  H   LIG     1      14.740  27.932  11.372  1.00  0.00     0.164 HD
ENDBRANCH   8   9
ENDBRANCH   1   8
TORSDOF 2
ENDMDL
MODEL 15
REMARK VINA RESULT:      -5.5     10.038     11.852
REMARK  2 active torsions:
REMARK  status: ('A' for Active; 'I' for Inactive)
REMARK       I    between atoms: C_2  and  N_3 
REMARK    1  A    between atoms: C_2  and  O_5 
REMARK    2  A    between atoms: O_5  and  C_6 
ROOT
HETATM    1  C   LIG     1      13.710  30.529  15.259  1.00  0.00     0.081 A 
HETATM    2  C   LIG     1      14.903  31.107  14.781  1.00  0.00     0.044 A 
HETATM    3  C   LIG     1      15.604  32.039  15.562  1.00  0.00    -0.059 A 
HETATM    4  C   LIG     1      16.852  32.682  15.032  1.00  0.00     0.048 C 
HETATM    5  C   LIG     1      15.098  32.408  16.818  1.00  0.00     0.007 A 
HETATM    6  C   LIG     1      13.927  31.822  17.303  1.00  0.00     0.003 A 
HETATM    7  C   LIG     1      13.242  30.880  16.530  1.00  0.00     0.037 A 
ENDROOT
BRANCH   1   8
HETATM    8  O   LIG     1      12.988  29.579  14.521  1.00  0.00    -0.262 OA
BRANCH   8   9
HETATM    9  C   LIG     1      13.518  28.400  13.980  1.00  0.00     0.365 C 
HETATM   10  O   LIG     1      12.822  27.349  13.913  1.00  0.00    -0.238 OA
HETATM   11  N   LIG     1      14.883  28.383  13.553  1.00  0.00    -0.341 N 
HETATM   12  C   LIG     1      15.502  27.185  12.999  1.00  0.00     0.151 C 
HETATM   13  H   LIG     1      15.450  29.256  13.638  1.00  0.00     0.164 HD
ENDBRANCH   8   9
ENDBRANCH   1   8
TORSDOF 2
ENDMDL
MODEL 16
REMARK VINA RESULT:      -5.5      3.159      4.098
REMARK  2 active torsions:
REMARK  status: ('A' for Active; 'I' for Inactive)
REMARK       I    between atoms: C_2  and  N_3 
REMARK    1  A    between atoms: C_2  and  O_5 
REMARK    2  A    between atoms: O_5  and  C_6 
ROOT
HETATM    1  C   LIG     1      17.916  36.703  20.235  1.00  0.00     0.081 A 
HETATM    2  C   LIG     1      17.640  37.561  21.317  1.00  0.00     0.044 A 
HETATM    3  C   LIG     1      18.375  38.746  21.490  1.00  0.00    -0.059 A 
HETATM    4  C   LIG     1      18.104  39.637  22.666  1.00  0.00     0.048 C 
HETATM    5  C   LIG     1      19.402  39.060  20.587  1.00  0.00     0.007 A 
HETATM    6  C   LIG     1      19.664  38.220  19.502  1.00  0.00     0.003 A 
HETATM    7  C   LIG     1      18.918  37.052  19.323  1.00  0.00     0.037 A 
ENDROOT
BRANCH   1   8
HETATM    8  O   LIG     1      17.194  35.520  20.012  1.00  0.00    -0.262 OA
BRANCH   8   9
HETATM    9  C   LIG     1      16.425  34.847  20.972  1.00  0.00     0.365 C 
HETATM   10  O   LIG     1      16.810  34.771  22.171  1.00  0.00    -0.238 OA
HETATM   11  N   LIG     1      15.221  34.193  20.562  1.00  0.00    -0.341 N 
HETATM   12  C   LIG     1      14.384  33.459  21.504  1.00  0.00     0.151 C 
HETATM   13  H   LIG     1      14.931  34.248  19.560  1.00  0.00     0.164 HD
ENDBRANCH   8   9
ENDBRANCH   1   8
TORSDOF 2
ENDMDL
MODEL 17
REMARK VINA RESULT:      -5.1      7.412      9.524
REMARK  2 active torsions:
REMARK  status: ('A' for Active; 'I' for Inactive)
REMARK       I    between atoms: C_2  and  N_3 
REMARK    1  A    between atoms: C_2  and  O_5 
REMARK    2  A    between atoms: O_5  and  C_6 
ROOT
HETATM    1  C   LIG     1      15.198  33.067  17.038  1.00  0.00     0.081 A 
HETATM    2  C   LIG     1      15.014  31.995  17.934  1.00  0.00     0.044 A 
HETATM    3  C   LIG     1      15.065  32.211  19.320  1.00  0.00    -0.059 A 
HETATM    4  C   LIG     1      14.908  31.060  20.270  1.00  0.00     0.048 C 
HETATM    5  C   LIG     1      15.321  33.501  19.810  1.00  0.00     0.007 A 
HETATM    6  C   LIG     1      15.483  34.569  18.924  1.00  0.00     0.003 A 
HETATM    7  C   LIG     1      15.413  34.354  17.545  1.00  0.00     0.037 A 
ENDROOT
BRANCH   1   8
HETATM    8  O   LIG     1      15.135  32.901  15.646  1.00  0.00    -0.262 OA
BRANCH   8   9
HETATM    9  C   LIG     1      15.680  31.825  14.933  1.00  0.00     0.365 C 
HETATM   10  O   LIG     1      16.918  31.769  14.692  1.00  0.00    -0.238 OA
HETATM   11  N   LIG     1      14.806  30.812  14.428  1.00  0.00    -0.341 N 
HETATM   12  C   LIG     1      15.304  29.675  13.662  1.00  0.00     0.151 C 
HETATM   13  H   LIG     1      13.781  30.888  14.618  1.00  0.00     0.164 HD
ENDBRANCH   8   9
ENDBRANCH   1   8
TORSDOF 2
ENDMDL
MODEL 18
REMARK VINA RESULT:      -5.0      8.744     10.511
REMARK  2 active torsions:
REMARK  status: ('A' for Active; 'I' for Inactive)
REMARK       I    between atoms: C_2  and  N_3 
REMARK    1  A    between atoms: C_2  and  O_5 
REMARK    2  A    between atoms: O_5  and  C_6 
ROOT
HETATM    1  C   LIG     1      13.878  30.950  15.564  1.00  0.00     0.081 A 
HETATM    2  C   LIG     1      13.158  29.809  15.161  1.00  0.00     0.044 A 
HETATM    3  C   LIG     1      13.691  28.935  14.199  1.00  0.00    -0.059 A 
HETATM    4  C   LIG     1      12.902  27.742  13.744  1.00  0.00     0.048 C 
HETATM    5  C   LIG     1      14.939  29.217  13.626  1.00  0.00     0.007 A 
HETATM    6  C   LIG     1      15.665  30.337  14.039  1.00  0.00     0.003 A 
HETATM    7  C   LIG     1      15.140  31.194  15.010  1.00  0.00     0.037 A 
ENDROOT
BRANCH   1   8
HETATM    8  O   LIG     1      13.393  31.839  16.536  1.00  0.00    -0.262 OA
BRANCH   8   9
HETATM    9  C   LIG     1      14.146  32.382  17.586  1.00  0.00     0.365 C 
HETATM   10  O   LIG     1      14.357  31.721  18.640  1.00  0.00    -0.238 OA
HETATM   11  N   LIG     1      14.628  33.725  17.473  1.00  0.00    -0.341 N 
HETATM   12  C   LIG     1      15.400  34.358  18.535  1.00  0.00     0.151 C 
HETATM   13  H   LIG     1      14.423  34.264  16.602  1.00  0.00     0.164 HD
ENDBRANCH   8   9
ENDBRANCH   1   8
TORSDOF 2
ENDMDL
MODEL 19
REMARK VINA RESULT:      -5.0      9.115     10.939
REMARK  2 active torsions:
REMARK  status: ('A' for Active; 'I' for Inactive)
REMARK       I    between atoms: C_2  and  N_3 
REMARK    1  A    between atoms: C_2  and  O_5 
REMARK    2  A    between atoms: O_5  and  C_6 
ROOT
HETATM    1  C   LIG     1      15.634  30.958  14.850  1.00  0.00     0.081 A 
HETATM    2  C   LIG     1      14.709  31.470  15.782  1.00  0.00     0.044 A 
HETATM    3  C   LIG     1      13.421  30.919  15.881  1.00  0.00    -0.059 A 
HETATM    4  C   LIG     1      12.427  31.493  16.847  1.00  0.00     0.048 C 
HETATM    5  C   LIG     1      13.052  29.867  15.030  1.00  0.00     0.007 A 
HETATM    6  C   LIG     1      13.974  29.344  14.119  1.00  0.00     0.003 A 
HETATM    7  C   LIG     1      15.261  29.882  14.037  1.00  0.00     0.037 A 
ENDROOT
BRANCH   1   8
HETATM    8  O   LIG     1      16.937  31.464  14.732  1.00  0.00    -0.262 OA
BRANCH   8   9
HETATM    9  C   LIG     1      17.270  32.748  14.278  1.00  0.00     0.365 C 
HETATM   10  O   LIG     1      17.657  32.935  13.092  1.00  0.00    -0.238 OA
HETATM   11  N   LIG     1      17.222  33.843  15.198  1.00  0.00    -0.341 N 
HETATM   12  C   LIG     1      17.574  35.200  14.798  1.00  0.00     0.151 C 
HETATM   13  H   LIG     1      16.922  33.664  16.182  1.00  0.00     0.164 HD
ENDBRANCH   8   9
ENDBRANCH   1   8
TORSDOF 2
ENDMDL
MODEL 20
REMARK VINA RESULT:      -4.9      7.450      9.163
REMARK  2 active torsions:
REMARK  status: ('A' for Active; 'I' for Inactive)
REMARK       I    between atoms: C_2  and  N_3 
REMARK    1  A    between atoms: C_2  and  O_5 
REMARK    2  A    between atoms: O_5  and  C_6 
ROOT
HETATM    1  C   LIG     1      15.492  32.722  15.546  1.00  0.00     0.081 A 
HETATM    2  C   LIG     1      14.488  31.747  15.704  1.00  0.00     0.044 A 
HETATM    3  C   LIG     1      14.395  30.671  14.806  1.00  0.00    -0.059 A 
HETATM    4  C   LIG     1      13.300  29.656  14.955  1.00  0.00     0.048 C 
HETATM    5  C   LIG     1      15.298  30.583  13.736  1.00  0.00     0.007 A 
HETATM    6  C   LIG     1      16.308  31.538  13.590  1.00  0.00     0.003 A 
HETATM    7  C   LIG     1      16.408  32.597  14.496  1.00  0.00     0.037 A 
ENDROOT
BRANCH   1   8
HETATM    8  O   LIG     1      15.634  33.802  16.431  1.00  0.00    -0.262 OA
BRANCH   8   9
HETATM    9  C   LIG     1      15.525  33.727  17.826  1.00  0.00     0.365 C 
HETATM   10  O   LIG     1      15.574  34.770  18.536  1.00  0.00    -0.238 OA
HETATM   11  N   LIG     1      15.415  32.443  18.446  1.00  0.00    -0.341 N 
HETATM   12  C   LIG     1      15.318  32.291  19.893  1.00  0.00     0.151 C 
HETATM   13  H   LIG     1      15.400  31.590  17.843  1.00  0.00     0.164 HD
ENDBRANCH   8   9
ENDBRANCH   1   8
TORSDOF 2
ENDMDL
