REMARK  2 active torsions:
REMARK  status: ('A' for Active; 'I' for Inactive)
REMARK       I    between atoms: C_2  and  N_3 
REMARK    1  A    between atoms: C_2  and  O_5 
REMARK    2  A    between atoms: O_5  and  C_6 
ROOT
HETATM    1  C   LIG     1      -0.235  -0.279  -0.882  1.00  0.00     0.081 A 
HETATM    2  C   LIG     1      -0.877  -0.296   0.372  1.00  0.00     0.044 A 
HETATM    3  C   LIG     1      -2.273  -0.425   0.454  1.00  0.00    -0.059 A 
HETATM    4  C   LIG     1      -2.956  -0.403   1.790  1.00  0.00     0.048 C 
HETATM    5  C   LIG     1      -3.029  -0.517  -0.724  1.00  0.00     0.007 A 
HETATM    6  C   LIG     1      -2.393  -0.521  -1.968  1.00  0.00     0.003 A 
HETATM    7  C   LIG     1      -1.002  -0.411  -2.045  1.00  0.00     0.037 A 
ENDROOT
BRANCH   1   8
HETATM    8  O   LIG     1       1.158  -0.172  -1.010  1.00  0.00    -0.262 OA
BRANCH   8   9
HETATM    9  C   LIG     1       2.005   0.500  -0.118  1.00  0.00     0.365 C 
HETATM   10  O   LIG     1       1.542   1.328   0.714  1.00  0.00    -0.238 OA
HETATM   11  N   LIG     1       3.416   0.279  -0.200  1.00  0.00    -0.341 N 
HETATM   12  C   LIG     1       4.355   0.959   0.684  1.00  0.00     0.151 C 
HETATM   13  H   LIG     1       3.782  -0.393  -0.911  1.00  0.00     0.164 HD
ENDBRANCH   8   9
ENDBRANCH   1   8
TORSDOF 2
