REMARK  4 active torsions:
REMARK  status: ('A' for Active; 'I' for Inactive)
REMARK       I    between atoms: C_2  and  N_6 
REMARK    1  A    between atoms: C_2  and  S_3 
REMARK    2  A    between atoms: S_3  and  C_4 
REMARK    3  A    between atoms: N_6  and  C_13 
REMARK    4  A    between atoms: N_6  and  C_7 
ROOT
HETATM    1  O   LIG     1       1.344  -1.100   1.782  1.00  0.00    -0.260 OA
HETATM    2  C   LIG     1       1.517  -0.250   0.867  1.00  0.00     0.282 C 
HETATM    3  N   LIG     1       0.433   0.077  -0.039  1.00  0.00    -0.339 N 
ENDROOT
BRANCH   3   4
HETATM    4  C   LIG     1       0.653   1.067  -1.114  1.00  0.00     0.122 C 
HETATM    5  C   LIG     1       0.324   2.477  -0.636  1.00  0.00     0.026 C 
ENDBRANCH   3   4
BRANCH   3   6
HETATM    6  C   LIG     1      -0.912  -0.482   0.256  1.00  0.00     0.088 C 
HETATM    7  C   LIG     1      -1.880  -0.461  -0.948  1.00  0.00     0.025 C 
HETATM    8  C   LIG     1      -3.203  -1.183  -0.623  1.00  0.00     0.002 C 
HETATM    9  C   LIG     1      -3.633  -1.050   0.852  1.00  0.00     0.000 C 
HETATM   10  C   LIG     1      -3.074   0.223   1.495  1.00  0.00     0.002 C 
HETATM   11  C   LIG     1      -1.533   0.225   1.491  1.00  0.00     0.025 C 
ENDBRANCH   3   6
BRANCH   2  12
HETATM   12  S   LIG     1       3.131   0.537   0.756  1.00  0.00    -0.070 SA
BRANCH  12  13
HETATM   13  C   LIG     1       3.836  -0.786  -0.282  1.00  0.00     0.079 C 
HETATM   14  C   LIG     1       5.264  -0.434  -0.672  1.00  0.00     0.016 C 
ENDBRANCH  12  13
ENDBRANCH   2  12
TORSDOF 4
