MODEL 1
REMARK VINA RESULT:      -6.5      0.000      0.000
REMARK  4 active torsions:
REMARK  status: ('A' for Active; 'I' for Inactive)
REMARK       I    between atoms: C_2  and  N_6 
REMARK    1  A    between atoms: C_2  and  S_3 
REMARK    2  A    between atoms: S_3  and  C_4 
REMARK    3  A    between atoms: N_6  and  C_13 
REMARK    4  A    between atoms: N_6  and  C_7 
ROOT
HETATM    1  O   LIG     1      16.336  35.187  19.268  1.00  0.00    -0.260 OA
HETATM    2  C   LIG     1      16.073  35.159  20.501  1.00  0.00     0.282 C 
HETATM    3  N   LIG     1      16.675  36.127  21.397  1.00  0.00    -0.339 N 
ENDROOT
BRANCH   3   4
HETATM    4  C   LIG     1      16.366  36.076  22.841  1.00  0.00     0.122 C 
HETATM    5  C   LIG     1      17.263  35.072  23.558  1.00  0.00     0.026 C 
ENDBRANCH   3   4
BRANCH   3   6
HETATM    6  C   LIG     1      17.455  37.240  20.796  1.00  0.00     0.088 C 
HETATM    7  C   LIG     1      18.783  36.796  20.142  1.00  0.00     0.025 C 
HETATM    8  C   LIG     1      19.473  37.966  19.412  1.00  0.00     0.002 C 
HETATM    9  C   LIG     1      19.237  39.336  20.080  1.00  0.00     0.000 C 
HETATM   10  C   LIG     1      18.959  39.197  21.580  1.00  0.00     0.002 C 
HETATM   11  C   LIG     1      17.689  38.364  21.841  1.00  0.00     0.025 C 
ENDBRANCH   3   6
BRANCH   2  12
HETATM   12  S   LIG     1      14.923  33.902  21.078  1.00  0.00    -0.070 SA
BRANCH  12  13
HETATM   13  C   LIG     1      15.280  32.770  19.694  1.00  0.00     0.079 C 
HETATM   14  C   LIG     1      14.880  31.351  20.067  1.00  0.00     0.016 C 
ENDBRANCH  12  13
ENDBRANCH   2  12
TORSDOF 4
ENDMDL
MODEL 2
REMARK VINA RESULT:      -5.4      3.040      5.544
REMARK  4 active torsions:
REMARK  status: ('A' for Active; 'I' for Inactive)
REMARK       I    between atoms: C_2  and  N_6 
REMARK    1  A    between atoms: C_2  and  S_3 
REMARK    2  A    between atoms: S_3  and  C_4 
REMARK    3  A    between atoms: N_6  and  C_13 
REMARK    4  A    between atoms: N_6  and  C_7 
ROOT
HETATM    1  O   LIG     1      19.007  38.924  23.325  1.00  0.00    -0.260 OA
HETATM    2  C   LIG     1      18.148  38.469  22.521  1.00  0.00     0.282 C 
HETATM    3  N   LIG     1      17.296  37.363  22.913  1.00  0.00    -0.339 N 
ENDROOT
BRANCH   3   4
HETATM    4  C   LIG     1      16.302  36.833  21.956  1.00  0.00     0.122 C 
HETATM    5  C   LIG     1      16.907  35.735  21.089  1.00  0.00     0.026 C 
ENDBRANCH   3   4
BRANCH   3   6
HETATM    6  C   LIG     1      17.348  36.913  24.328  1.00  0.00     0.088 C 
HETATM    7  C   LIG     1      18.619  37.360  25.084  1.00  0.00     0.025 C 
HETATM    8  C   LIG     1      18.548  36.990  26.579  1.00  0.00     0.002 C 
HETATM    9  C   LIG     1      17.776  35.684  26.855  1.00  0.00     0.000 C 
HETATM   10  C   LIG     1      17.811  34.736  25.653  1.00  0.00     0.002 C 
HETATM   11  C   LIG     1      17.153  35.375  24.414  1.00  0.00     0.025 C 
ENDBRANCH   3   6
BRANCH   2  12
HETATM   12  S   LIG     1      18.019  39.256  20.908  1.00  0.00    -0.070 SA
BRANCH  12  13
HETATM   13  C   LIG     1      19.702  38.768  20.404  1.00  0.00     0.079 C 
HETATM   14  C   LIG     1      19.638  37.543  19.502  1.00  0.00     0.016 C 
ENDBRANCH  12  13
ENDBRANCH   2  12
TORSDOF 4
ENDMDL
MODEL 3
REMARK VINA RESULT:      -4.9      5.380      9.178
REMARK  4 active torsions:
REMARK  status: ('A' for Active; 'I' for Inactive)
REMARK       I    between atoms: C_2  and  N_6 
REMARK    1  A    between atoms: C_2  and  S_3 
REMARK    2  A    between atoms: S_3  and  C_4 
REMARK    3  A    between atoms: N_6  and  C_13 
REMARK    4  A    between atoms: N_6  and  C_7 
ROOT
HETATM    1  O   LIG     1      13.899  31.019  17.757  1.00  0.00    -0.260 OA
HETATM    2  C   LIG     1      14.529  31.814  17.008  1.00  0.00     0.282 C 
HETATM    3  N   LIG     1      14.980  31.380  15.700  1.00  0.00    -0.339 N 
ENDROOT
BRANCH   3   4
HETATM    4  C   LIG     1      15.727  32.318  14.837  1.00  0.00     0.122 C 
HETATM    5  C   LIG     1      17.207  32.341  15.204  1.00  0.00     0.026 C 
ENDBRANCH   3   4
BRANCH   3   6
HETATM    6  C   LIG     1      14.526  30.051  15.214  1.00  0.00     0.088 C 
HETATM    7  C   LIG     1      15.305  29.530  13.986  1.00  0.00     0.025 C 
HETATM    8  C   LIG     1      14.889  28.091  13.620  1.00  0.00     0.002 C 
HETATM    9  C   LIG     1      13.407  27.783  13.915  1.00  0.00     0.000 C 
HETATM   10  C   LIG     1      12.545  29.049  13.880  1.00  0.00     0.002 C 
HETATM   11  C   LIG     1      12.996  30.066  14.946  1.00  0.00     0.025 C 
ENDBRANCH   3   6
BRANCH   2  12
HETATM   12  S   LIG     1      14.816  33.482  17.618  1.00  0.00    -0.070 SA
BRANCH  12  13
HETATM   13  C   LIG     1      15.292  32.918  19.285  1.00  0.00     0.079 C 
HETATM   14  C   LIG     1      15.602  34.117  20.169  1.00  0.00     0.016 C 
ENDBRANCH  12  13
ENDBRANCH   2  12
TORSDOF 4
ENDMDL
MODEL 4
REMARK VINA RESULT:      -4.6      2.440      3.762
REMARK  4 active torsions:
REMARK  status: ('A' for Active; 'I' for Inactive)
REMARK       I    between atoms: C_2  and  N_6 
REMARK    1  A    between atoms: C_2  and  S_3 
REMARK    2  A    between atoms: S_3  and  C_4 
REMARK    3  A    between atoms: N_6  and  C_13 
REMARK    4  A    between atoms: N_6  and  C_7 
ROOT
HETATM    1  O   LIG     1      15.750  35.057  17.553  1.00  0.00    -0.260 OA
HETATM    2  C   LIG     1      15.345  34.007  18.122  1.00  0.00     0.282 C 
HETATM    3  N   LIG     1      15.448  33.871  19.562  1.00  0.00    -0.339 N 
ENDROOT
BRANCH   3   4
HETATM    4  C   LIG     1      14.979  32.630  20.213  1.00  0.00     0.122 C 
HETATM    5  C   LIG     1      15.955  31.483  19.974  1.00  0.00     0.026 C 
ENDBRANCH   3   4
BRANCH   3   6
HETATM    6  C   LIG     1      15.874  35.061  20.343  1.00  0.00     0.088 C 
HETATM    7  C   LIG     1      17.268  35.603  19.954  1.00  0.00     0.025 C 
HETATM    8  C   LIG     1      17.590  36.917  20.693  1.00  0.00     0.002 C 
HETATM    9  C   LIG     1      16.982  36.995  22.108  1.00  0.00     0.000 C 
HETATM   10  C   LIG     1      16.767  35.604  22.713  1.00  0.00     0.002 C 
HETATM   11  C   LIG     1      15.789  34.767  21.866  1.00  0.00     0.025 C 
ENDBRANCH   3   6
BRANCH   2  12
HETATM   12  S   LIG     1      14.627  32.723  17.085  1.00  0.00    -0.070 SA
BRANCH  12  13
HETATM   13  C   LIG     1      15.929  32.855  15.816  1.00  0.00     0.079 C 
HETATM   14  C   LIG     1      15.790  31.723  14.809  1.00  0.00     0.016 C 
ENDBRANCH  12  13
ENDBRANCH   2  12
TORSDOF 4
ENDMDL
MODEL 5
REMARK VINA RESULT:      -4.1      4.765      6.806
REMARK  4 active torsions:
REMARK  status: ('A' for Active; 'I' for Inactive)
REMARK       I    between atoms: C_2  and  N_6 
REMARK    1  A    between atoms: C_2  and  S_3 
REMARK    2  A    between atoms: S_3  and  C_4 
REMARK    3  A    between atoms: N_6  and  C_13 
REMARK    4  A    between atoms: N_6  and  C_7 
ROOT
HETATM    1  O   LIG     1      13.466  30.710  16.854  1.00  0.00    -0.260 OA
HETATM    2  C   LIG     1      14.281  31.208  16.032  1.00  0.00     0.282 C 
HETATM    3  N   LIG     1      14.997  32.426  16.361  1.00  0.00    -0.339 N 
ENDROOT
BRANCH   3   4
HETATM    4  C   LIG     1      15.941  33.005  15.382  1.00  0.00     0.122 C 
HETATM    5  C   LIG     1      17.288  32.294  15.434  1.00  0.00     0.026 C 
ENDBRANCH   3   4
BRANCH   3   6
HETATM    6  C   LIG     1      14.871  32.954  17.744  1.00  0.00     0.088 C 
HETATM    7  C   LIG     1      15.600  34.296  17.974  1.00  0.00     0.025 C 
HETATM    8  C   LIG     1      15.313  34.863  19.379  1.00  0.00     0.002 C 
HETATM    9  C   LIG     1      15.115  33.775  20.455  1.00  0.00     0.000 C 
HETATM   10  C   LIG     1      15.849  32.479  20.095  1.00  0.00     0.002 C 
HETATM   11  C   LIG     1      15.323  31.883  18.775  1.00  0.00     0.025 C 
ENDBRANCH   3   6
BRANCH   2  12
HETATM   12  S   LIG     1      14.524  30.344  14.473  1.00  0.00    -0.070 SA
BRANCH  12  13
HETATM   13  C   LIG     1      12.923  29.476  14.568  1.00  0.00     0.079 C 
HETATM   14  C   LIG     1      13.050  28.085  13.964  1.00  0.00     0.016 C 
ENDBRANCH  12  13
ENDBRANCH   2  12
TORSDOF 4
ENDMDL
MODEL 6
REMARK VINA RESULT:      -4.0     16.956     18.542
REMARK  4 active torsions:
REMARK  status: ('A' for Active; 'I' for Inactive)
REMARK       I    between atoms: C_2  and  N_6 
REMARK    1  A    between atoms: C_2  and  S_3 
REMARK    2  A    between atoms: S_3  and  C_4 
REMARK    3  A    between atoms: N_6  and  C_13 
REMARK    4  A    between atoms: N_6  and  C_7 
ROOT
HETATM    1  O   LIG     1      26.817  27.936  33.969  1.00  0.00    -0.260 OA
HETATM    2  C   LIG     1      27.836  28.513  33.503  1.00  0.00     0.282 C 
HETATM    3  N   LIG     1      28.327  29.733  34.115  1.00  0.00    -0.339 N 
ENDROOT
BRANCH   3   4
HETATM    4  C   LIG     1      29.517  30.405  33.552  1.00  0.00     0.122 C 
HETATM    5  C   LIG     1      29.115  31.590  32.681  1.00  0.00     0.026 C 
ENDBRANCH   3   4
BRANCH   3   6
HETATM    6  C   LIG     1      27.705  30.169  35.393  1.00  0.00     0.088 C 
HETATM    7  C   LIG     1      26.483  31.096  35.212  1.00  0.00     0.025 C 
HETATM    8  C   LIG     1      25.796  31.395  36.560  1.00  0.00     0.002 C 
HETATM    9  C   LIG     1      26.772  31.451  37.752  1.00  0.00     0.000 C 
HETATM   10  C   LIG     1      28.187  31.840  37.311  1.00  0.00     0.002 C 
HETATM   11  C   LIG     1      28.770  30.813  36.321  1.00  0.00     0.025 C 
ENDBRANCH   3   6
BRANCH   2  12
HETATM   12  S   LIG     1      28.648  27.756  32.087  1.00  0.00    -0.070 SA
BRANCH  12  13
HETATM   13  C   LIG     1      27.078  27.258  31.305  1.00  0.00     0.079 C 
HETATM   14  C   LIG     1      27.263  27.145  29.798  1.00  0.00     0.016 C 
ENDBRANCH  12  13
ENDBRANCH   2  12
TORSDOF 4
ENDMDL
MODEL 7
REMARK VINA RESULT:      -4.0     14.620     16.282
REMARK  4 active torsions:
REMARK  status: ('A' for Active; 'I' for Inactive)
REMARK       I    between atoms: C_2  and  N_6 
REMARK    1  A    between atoms: C_2  and  S_3 
REMARK    2  A    between atoms: S_3  and  C_4 
REMARK    3  A    between atoms: N_6  and  C_13 
REMARK    4  A    between atoms: N_6  and  C_7 
ROOT
HETATM    1  O   LIG     1      26.144  25.708  19.077  1.00  0.00    -0.260 OA
HETATM    2  C   LIG     1      26.784  24.715  18.637  1.00  0.00     0.282 C 
HETATM    3  N   LIG     1      26.327  23.368  18.922  1.00  0.00    -0.339 N 
ENDROOT
BRANCH   3   4
HETATM    4  C   LIG     1      27.092  22.213  18.409  1.00  0.00     0.122 C 
HETATM    5  C   LIG     1      28.052  21.679  19.466  1.00  0.00     0.026 C 
ENDBRANCH   3   4
BRANCH   3   6
HETATM    6  C   LIG     1      25.007  23.208  19.586  1.00  0.00     0.088 C 
HETATM    7  C   LIG     1      25.092  23.017  21.117  1.00  0.00     0.025 C 
HETATM    8  C   LIG     1      23.693  23.003  21.764  1.00  0.00     0.002 C 
HETATM    9  C   LIG     1      22.601  22.393  20.863  1.00  0.00     0.000 C 
HETATM   10  C   LIG     1      23.185  21.389  19.863  1.00  0.00     0.002 C 
HETATM   11  C   LIG     1      24.200  22.062  18.919  1.00  0.00     0.025 C 
ENDBRANCH   3   6
BRANCH   2  12
HETATM   12  S   LIG     1      28.246  25.041  17.640  1.00  0.00    -0.070 SA
BRANCH  12  13
HETATM   13  C   LIG     1      28.876  26.324  18.772  1.00  0.00     0.079 C 
HETATM   14  C   LIG     1      28.921  27.668  18.060  1.00  0.00     0.016 C 
ENDBRANCH  12  13
ENDBRANCH   2  12
TORSDOF 4
ENDMDL
MODEL 8
REMARK VINA RESULT:      -4.0     14.607     17.018
REMARK  4 active torsions:
REMARK  status: ('A' for Active; 'I' for Inactive)
REMARK       I    between atoms: C_2  and  N_6 
REMARK    1  A    between atoms: C_2  and  S_3 
REMARK    2  A    between atoms: S_3  and  C_4 
REMARK    3  A    between atoms: N_6  and  C_13 
REMARK    4  A    between atoms: N_6  and  C_7 
ROOT
HETATM    1  O   LIG     1      25.747  22.220  18.337  1.00  0.00    -0.260 OA
HETATM    2  C   LIG     1      25.276  22.456  19.483  1.00  0.00     0.282 C 
HETATM    3  N   LIG     1      24.172  21.668  19.995  1.00  0.00    -0.339 N 
ENDROOT
BRANCH   3   4
HETATM    4  C   LIG     1      23.623  21.963  21.334  1.00  0.00     0.122 C 
HETATM    5  C   LIG     1      22.351  22.798  21.233  1.00  0.00     0.026 C 
ENDBRANCH   3   4
BRANCH   3   6
HETATM    6  C   LIG     1      23.743  20.481  19.210  1.00  0.00     0.088 C 
HETATM    7  C   LIG     1      22.652  20.782  18.159  1.00  0.00     0.025 C 
HETATM    8  C   LIG     1      22.354  19.549  17.282  1.00  0.00     0.002 C 
HETATM    9  C   LIG     1      22.508  18.209  18.029  1.00  0.00     0.000 C 
HETATM   10  C   LIG     1      22.282  18.368  19.536  1.00  0.00     0.002 C 
HETATM   11  C   LIG     1      23.309  19.332  20.160  1.00  0.00     0.025 C 
ENDBRANCH   3   6
BRANCH   2  12
HETATM   12  S   LIG     1      26.039  23.775  20.440  1.00  0.00    -0.070 SA
BRANCH  12  13
HETATM   13  C   LIG     1      26.148  24.907  19.014  1.00  0.00     0.079 C 
HETATM   14  C   LIG     1      27.228  25.950  19.261  1.00  0.00     0.016 C 
ENDBRANCH  12  13
ENDBRANCH   2  12
TORSDOF 4
ENDMDL
MODEL 9
REMARK VINA RESULT:      -4.0     14.653     15.785
REMARK  4 active torsions:
REMARK  status: ('A' for Active; 'I' for Inactive)
REMARK       I    between atoms: C_2  and  N_6 
REMARK    1  A    between atoms: C_2  and  S_3 
REMARK    2  A    between atoms: S_3  and  C_4 
REMARK    3  A    between atoms: N_6  and  C_13 
REMARK    4  A    between atoms: N_6  and  C_7 
ROOT
HETATM    1  O   LIG     1      25.992  23.094  21.877  1.00  0.00    -0.260 OA
HETATM    2  C   LIG     1      25.529  22.335  20.983  1.00  0.00     0.282 C 
HETATM    3  N   LIG     1      25.806  22.603  19.585  1.00  0.00    -0.339 N 
ENDROOT
BRANCH   3   4
HETATM    4  C   LIG     1      25.248  21.712  18.546  1.00  0.00     0.122 C 
HETATM    5  C   LIG     1      23.902  22.226  18.049  1.00  0.00     0.026 C 
ENDBRANCH   3   4
BRANCH   3   6
HETATM    6  C   LIG     1      26.782  23.676  19.262  1.00  0.00     0.088 C 
HETATM    7  C   LIG     1      26.170  25.095  19.236  1.00  0.00     0.025 C 
HETATM    8  C   LIG     1      27.254  26.174  19.041  1.00  0.00     0.002 C 
HETATM    9  C   LIG     1      28.437  25.711  18.167  1.00  0.00     0.000 C 
HETATM   10  C   LIG     1      28.024  24.607  17.189  1.00  0.00     0.002 C 
HETATM   11  C   LIG     1      27.520  23.356  17.935  1.00  0.00     0.025 C 
ENDBRANCH   3   6
BRANCH   2  12
HETATM   12  S   LIG     1      24.549  20.923  21.514  1.00  0.00    -0.070 SA
BRANCH  12  13
HETATM   13  C   LIG     1      23.319  21.953  22.381  1.00  0.00     0.079 C 
HETATM   14  C   LIG     1      22.453  22.689  21.370  1.00  0.00     0.016 C 
ENDBRANCH  12  13
ENDBRANCH   2  12
TORSDOF 4
ENDMDL
MODEL 10
REMARK VINA RESULT:      -3.9      5.020      7.035
REMARK  4 active torsions:
REMARK  status: ('A' for Active; 'I' for Inactive)
REMARK       I    between atoms: C_2  and  N_6 
REMARK    1  A    between atoms: C_2  and  S_3 
REMARK    2  A    between atoms: S_3  and  C_4 
REMARK    3  A    between atoms: N_6  and  C_13 
REMARK    4  A    between atoms: N_6  and  C_7 
ROOT
HETATM    1  O   LIG     1      13.473  30.511  17.092  1.00  0.00    -0.260 OA
HETATM    2  C   LIG     1      14.066  30.914  16.055  1.00  0.00     0.282 C 
HETATM    3  N   LIG     1      15.025  31.999  16.139  1.00  0.00    -0.339 N 
ENDROOT
BRANCH   3   4
HETATM    4  C   LIG     1      15.705  32.469  14.914  1.00  0.00     0.122 C 
HETATM    5  C   LIG     1      17.220  32.462  15.091  1.00  0.00     0.026 C 
ENDBRANCH   3   4
BRANCH   3   6
HETATM    6  C   LIG     1      15.407  32.486  17.490  1.00  0.00     0.088 C 
HETATM    7  C   LIG     1      14.567  31.882  18.637  1.00  0.00     0.025 C 
HETATM    8  C   LIG     1      15.103  32.312  20.018  1.00  0.00     0.002 C 
HETATM    9  C   LIG     1      15.716  33.727  20.029  1.00  0.00     0.000 C 
HETATM   10  C   LIG     1      15.116  34.616  18.935  1.00  0.00     0.002 C 
HETATM   11  C   LIG     1      15.384  34.038  17.531  1.00  0.00     0.025 C 
ENDBRANCH   3   6
BRANCH   2  12
HETATM   12  S   LIG     1      13.691  30.082  14.505  1.00  0.00    -0.070 SA
BRANCH  12  13
HETATM   13  C   LIG     1      15.352  29.344  14.362  1.00  0.00     0.079 C 
HETATM   14  C   LIG     1      15.257  27.978  13.699  1.00  0.00     0.016 C 
ENDBRANCH  12  13
ENDBRANCH   2  12
TORSDOF 4
ENDMDL
MODEL 11
REMARK VINA RESULT:      -3.8      8.656     11.036
REMARK  4 active torsions:
REMARK  status: ('A' for Active; 'I' for Inactive)
REMARK       I    between atoms: C_2  and  N_6 
REMARK    1  A    between atoms: C_2  and  S_3 
REMARK    2  A    between atoms: S_3  and  C_4 
REMARK    3  A    between atoms: N_6  and  C_13 
REMARK    4  A    between atoms: N_6  and  C_7 
ROOT
HETATM    1  O   LIG     1      11.519  28.802  13.381  1.00  0.00    -0.260 OA
HETATM    2  C   LIG     1      12.450  27.951  13.378  1.00  0.00     0.282 C 
HETATM    3  N   LIG     1      13.800  28.346  13.731  1.00  0.00    -0.339 N 
ENDROOT
BRANCH   3   4
HETATM    4  C   LIG     1      14.884  27.341  13.713  1.00  0.00     0.122 C 
HETATM    5  C   LIG     1      15.548  27.277  12.342  1.00  0.00     0.026 C 
ENDBRANCH   3   4
BRANCH   3   6
HETATM    6  C   LIG     1      14.007  29.720  14.258  1.00  0.00     0.088 C 
HETATM    7  C   LIG     1      15.492  30.122  14.403  1.00  0.00     0.025 C 
HETATM    8  C   LIG     1      15.641  31.601  14.813  1.00  0.00     0.002 C 
HETATM    9  C   LIG     1      14.501  32.108  15.719  1.00  0.00     0.000 C 
HETATM   10  C   LIG     1      13.862  30.970  16.521  1.00  0.00     0.002 C 
HETATM   11  C   LIG     1      13.238  29.910  15.593  1.00  0.00     0.025 C 
ENDBRANCH   3   6
BRANCH   2  12
HETATM   12  S   LIG     1      12.028  26.256  12.947  1.00  0.00    -0.070 SA
BRANCH  12  13
HETATM   13  C   LIG     1      11.569  26.681  11.234  1.00  0.00     0.079 C 
HETATM   14  C   LIG     1      12.009  25.573  10.289  1.00  0.00     0.016 C 
ENDBRANCH  12  13
ENDBRANCH   2  12
TORSDOF 4
ENDMDL
MODEL 12
REMARK VINA RESULT:      -3.7      3.505      7.033
REMARK  4 active torsions:
REMARK  status: ('A' for Active; 'I' for Inactive)
REMARK       I    between atoms: C_2  and  N_6 
REMARK    1  A    between atoms: C_2  and  S_3 
REMARK    2  A    between atoms: S_3  and  C_4 
REMARK    3  A    between atoms: N_6  and  C_13 
REMARK    4  A    between atoms: N_6  and  C_7 
ROOT
HETATM    1  O   LIG     1      15.191  31.343  19.856  1.00  0.00    -0.260 OA
HETATM    2  C   LIG     1      15.102  32.564  19.557  1.00  0.00     0.282 C 
HETATM    3  N   LIG     1      15.181  32.983  18.171  1.00  0.00    -0.339 N 
ENDROOT
BRANCH   3   4
HETATM    4  C   LIG     1      15.086  34.419  17.835  1.00  0.00     0.122 C 
HETATM    5  C   LIG     1      13.844  34.705  16.997  1.00  0.00     0.026 C 
ENDBRANCH   3   4
BRANCH   3   6
HETATM    6  C   LIG     1      15.191  31.927  17.125  1.00  0.00     0.088 C 
HETATM    7  C   LIG     1      15.712  32.407  15.752  1.00  0.00     0.025 C 
HETATM    8  C   LIG     1      15.836  31.238  14.754  1.00  0.00     0.002 C 
HETATM    9  C   LIG     1      14.772  30.139  14.955  1.00  0.00     0.000 C 
HETATM   10  C   LIG     1      13.499  30.692  15.603  1.00  0.00     0.002 C 
HETATM   11  C   LIG     1      13.786  31.277  16.999  1.00  0.00     0.025 C 
ENDBRANCH   3   6
BRANCH   2  12
HETATM   12  S   LIG     1      14.855  33.735  20.901  1.00  0.00    -0.070 SA
BRANCH  12  13
HETATM   13  C   LIG     1      16.588  34.301  20.884  1.00  0.00     0.079 C 
HETATM   14  C   LIG     1      16.870  35.144  22.119  1.00  0.00     0.016 C 
ENDBRANCH  12  13
ENDBRANCH   2  12
TORSDOF 4
ENDMDL
MODEL 13
REMARK VINA RESULT:      -3.7     15.204     16.292
REMARK  4 active torsions:
REMARK  status: ('A' for Active; 'I' for Inactive)
REMARK       I    between atoms: C_2  and  N_6 
REMARK    1  A    between atoms: C_2  and  S_3 
REMARK    2  A    between atoms: S_3  and  C_4 
REMARK    3  A    between atoms: N_6  and  C_13 
REMARK    4  A    between atoms: N_6  and  C_7 
ROOT
HETATM    1  O   LIG     1      25.702  19.865  20.740  1.00  0.00    -0.260 OA
HETATM    2  C   LIG     1      24.515  20.253  20.568  1.00  0.00     0.282 C 
HETATM    3  N   LIG     1      24.246  21.618  20.160  1.00  0.00    -0.339 N 
ENDROOT
BRANCH   3   4
HETATM    4  C   LIG     1      22.849  22.063  19.973  1.00  0.00     0.122 C 
HETATM    5  C   LIG     1      22.321  22.752  21.227  1.00  0.00     0.026 C 
ENDBRANCH   3   4
BRANCH   3   6
HETATM    6  C   LIG     1      25.403  22.472  19.785  1.00  0.00     0.088 C 
HETATM    7  C   LIG     1      25.769  23.535  20.845  1.00  0.00     0.025 C 
HETATM    8  C   LIG     1      27.060  24.289  20.468  1.00  0.00     0.002 C 
HETATM    9  C   LIG     1      27.252  24.463  18.947  1.00  0.00     0.000 C 
HETATM   10  C   LIG     1      25.914  24.456  18.201  1.00  0.00     0.002 C 
HETATM   11  C   LIG     1      25.169  23.121  18.394  1.00  0.00     0.025 C 
ENDBRANCH   3   6
BRANCH   2  12
HETATM   12  S   LIG     1      23.201  19.052  20.827  1.00  0.00    -0.070 SA
BRANCH  12  13
HETATM   13  C   LIG     1      23.297  18.404  19.126  1.00  0.00     0.079 C 
HETATM   14  C   LIG     1      21.900  18.299  18.531  1.00  0.00     0.016 C 
ENDBRANCH  12  13
ENDBRANCH   2  12
TORSDOF 4
ENDMDL
MODEL 14
REMARK VINA RESULT:      -3.5     14.988     16.933
REMARK  4 active torsions:
REMARK  status: ('A' for Active; 'I' for Inactive)
REMARK       I    between atoms: C_2  and  N_6 
REMARK    1  A    between atoms: C_2  and  S_3 
REMARK    2  A    between atoms: S_3  and  C_4 
REMARK    3  A    between atoms: N_6  and  C_13 
REMARK    4  A    between atoms: N_6  and  C_7 
ROOT
HETATM    1  O   LIG     1      27.258  22.561  20.839  1.00  0.00    -0.260 OA
HETATM    2  C   LIG     1      26.796  22.496  19.668  1.00  0.00     0.282 C 
HETATM    3  N   LIG     1      25.502  21.888  19.426  1.00  0.00    -0.339 N 
ENDROOT
BRANCH   3   4
HETATM    4  C   LIG     1      24.978  21.810  18.047  1.00  0.00     0.122 C 
HETATM    5  C   LIG     1      25.459  20.542  17.349  1.00  0.00     0.026 C 
ENDBRANCH   3   4
BRANCH   3   6
HETATM    6  C   LIG     1      24.680  21.513  20.606  1.00  0.00     0.088 C 
HETATM    7  C   LIG     1      23.839  20.232  20.405  1.00  0.00     0.025 C 
HETATM    8  C   LIG     1      23.124  19.816  21.706  1.00  0.00     0.002 C 
HETATM    9  C   LIG     1      22.710  21.008  22.593  1.00  0.00     0.000 C 
HETATM   10  C   LIG     1      22.498  22.282  21.770  1.00  0.00     0.002 C 
HETATM   11  C   LIG     1      23.791  22.707  21.048  1.00  0.00     0.025 C 
ENDBRANCH   3   6
BRANCH   2  12
HETATM   12  S   LIG     1      27.788  23.200  18.342  1.00  0.00    -0.070 SA
BRANCH  12  13
HETATM   13  C   LIG     1      27.719  24.889  19.027  1.00  0.00     0.079 C 
HETATM   14  C   LIG     1      26.288  25.405  18.993  1.00  0.00     0.016 C 
ENDBRANCH  12  13
ENDBRANCH   2  12
TORSDOF 4
ENDMDL
MODEL 15
REMARK VINA RESULT:      -3.5     14.910     16.551
REMARK  4 active torsions:
REMARK  status: ('A' for Active; 'I' for Inactive)
REMARK       I    between atoms: C_2  and  N_6 
REMARK    1  A    between atoms: C_2  and  S_3 
REMARK    2  A    between atoms: S_3  and  C_4 
REMARK    3  A    between atoms: N_6  and  C_13 
REMARK    4  A    between atoms: N_6  and  C_7 
ROOT
HETATM    1  O   LIG     1      27.866  22.041  21.097  1.00  0.00    -0.260 OA
HETATM    2  C   LIG     1      27.833  22.972  20.247  1.00  0.00     0.282 C 
HETATM    3  N   LIG     1      26.630  23.213  19.474  1.00  0.00    -0.339 N 
ENDROOT
BRANCH   3   4
HETATM    4  C   LIG     1      26.610  24.300  18.474  1.00  0.00     0.122 C 
HETATM    5  C   LIG     1      26.191  25.622  19.109  1.00  0.00     0.026 C 
ENDBRANCH   3   4
BRANCH   3   6
HETATM    6  C   LIG     1      25.405  22.455  19.841  1.00  0.00     0.088 C 
HETATM    7  C   LIG     1      24.376  22.331  18.696  1.00  0.00     0.025 C 
HETATM    8  C   LIG     1      23.199  21.415  19.089  1.00  0.00     0.002 C 
HETATM    9  C   LIG     1      22.843  21.477  20.588  1.00  0.00     0.000 C 
HETATM   10  C   LIG     1      23.239  22.819  21.212  1.00  0.00     0.002 C 
HETATM   11  C   LIG     1      24.759  23.055  21.118  1.00  0.00     0.025 C 
ENDBRANCH   3   6
BRANCH   2  12
HETATM   12  S   LIG     1      29.312  23.979  20.058  1.00  0.00    -0.070 SA
BRANCH  12  13
HETATM   13  C   LIG     1      29.364  24.444  21.820  1.00  0.00     0.079 C 
HETATM   14  C   LIG     1      28.544  25.706  22.048  1.00  0.00     0.016 C 
ENDBRANCH  12  13
ENDBRANCH   2  12
TORSDOF 4
ENDMDL
