MODEL 1
REMARK VINA RESULT:      -7.7      0.000      0.000
REMARK  4 active torsions:
REMARK  status: ('A' for Active; 'I' for Inactive)
REMARK       I    between atoms: C_2  and  N_3 
REMARK    1  A    between atoms: C_2  and  O_5 
REMARK    2  A    between atoms: O_5  and  C_6 
REMARK    3  A    between atoms: C_11  and  O_12 
REMARK    4  A    between atoms: O_12  and  C_13 
ROOT
HETATM    1  C   LIG     1      17.537  37.908  21.708  1.00  0.00     0.114 A 
HETATM    2  C   LIG     1      18.308  39.066  21.549  1.00  0.00     0.040 A 
HETATM    3  C   LIG     1      19.264  39.146  20.535  1.00  0.00     0.003 A 
HETATM    4  C   LIG     1      19.466  38.064  19.679  1.00  0.00     0.003 A 
HETATM    5  C   LIG     1      18.724  36.892  19.842  1.00  0.00     0.040 A 
HETATM    6  C   LIG     1      17.759  36.795  20.866  1.00  0.00     0.103 A 
ENDROOT
BRANCH   1   7
HETATM    7  O   LIG     1      16.583  37.881  22.735  1.00  0.00    -0.259 OA
BRANCH   7   8
HETATM    8  C   LIG     1      16.834  37.419  24.032  1.00  0.00     0.365 C 
HETATM    9  O   LIG     1      16.723  38.192  25.023  1.00  0.00    -0.238 OA
HETATM   10  N   LIG     1      17.261  36.066  24.220  1.00  0.00    -0.341 N 
HETATM   11  C   LIG     1      17.524  35.520  25.546  1.00  0.00     0.151 C 
HETATM   12  H   LIG     1      17.371  35.450  23.385  1.00  0.00     0.164 HD
ENDBRANCH   7   8
ENDBRANCH   1   7
BRANCH   6  13
HETATM   13  O   LIG     1      17.036  35.613  21.104  1.00  0.00    -0.344 OA
BRANCH  13  14
HETATM   14  C   LIG     1      15.818  35.227  20.467  1.00  0.00     0.121 C 
HETATM   15  C   LIG     1      14.615  35.745  21.262  1.00  0.00     0.040 C 
HETATM   16  C   LIG     1      15.776  33.702  20.381  1.00  0.00     0.040 C 
ENDBRANCH  13  14
ENDBRANCH   6  13
TORSDOF 4
ENDMDL
MODEL 2
REMARK VINA RESULT:      -7.7      1.638      4.179
REMARK  4 active torsions:
REMARK  status: ('A' for Active; 'I' for Inactive)
REMARK       I    between atoms: C_2  and  N_3 
REMARK    1  A    between atoms: C_2  and  O_5 
REMARK    2  A    between atoms: O_5  and  C_6 
REMARK    3  A    between atoms: C_11  and  O_12 
REMARK    4  A    between atoms: O_12  and  C_13 
ROOT
HETATM    1  C   LIG     1      17.302  37.308  24.976  1.00  0.00     0.114 A 
HETATM    2  C   LIG     1      17.885  37.272  26.249  1.00  0.00     0.040 A 
HETATM    3  C   LIG     1      18.296  36.059  26.804  1.00  0.00     0.003 A 
HETATM    4  C   LIG     1      18.116  34.870  26.098  1.00  0.00     0.003 A 
HETATM    5  C   LIG     1      17.510  34.887  24.839  1.00  0.00     0.040 A 
HETATM    6  C   LIG     1      17.085  36.105  24.268  1.00  0.00     0.103 A 
ENDROOT
BRANCH   1   7
HETATM    7  O   LIG     1      16.915  38.552  24.458  1.00  0.00    -0.259 OA
BRANCH   7   8
HETATM    8  C   LIG     1      17.092  38.941  23.126  1.00  0.00     0.365 C 
HETATM    9  O   LIG     1      16.104  39.287  22.421  1.00  0.00    -0.238 OA
HETATM   10  N   LIG     1      18.403  38.900  22.554  1.00  0.00    -0.341 N 
HETATM   11  C   LIG     1      18.655  39.305  21.177  1.00  0.00     0.151 C 
HETATM   12  H   LIG     1      19.203  38.586  23.147  1.00  0.00     0.164 HD
ENDBRANCH   7   8
ENDBRANCH   1   7
BRANCH   6  13
HETATM   13  O   LIG     1      16.416  36.159  23.033  1.00  0.00    -0.344 OA
BRANCH  13  14
HETATM   14  C   LIG     1      16.595  35.261  21.936  1.00  0.00     0.121 C 
HETATM   15  C   LIG     1      17.341  35.960  20.795  1.00  0.00     0.040 C 
HETATM   16  C   LIG     1      15.220  34.796  21.460  1.00  0.00     0.040 C 
ENDBRANCH  13  14
ENDBRANCH   6  13
TORSDOF 4
ENDMDL
MODEL 3
REMARK VINA RESULT:      -6.7      1.993      4.712
REMARK  4 active torsions:
REMARK  status: ('A' for Active; 'I' for Inactive)
REMARK       I    between atoms: C_2  and  N_3 
REMARK    1  A    between atoms: C_2  and  O_5 
REMARK    2  A    between atoms: O_5  and  C_6 
REMARK    3  A    between atoms: C_11  and  O_12 
REMARK    4  A    between atoms: O_12  and  C_13 
ROOT
HETATM    1  C   LIG     1      17.069  35.741  22.484  1.00  0.00     0.114 A 
HETATM    2  C   LIG     1      17.025  34.991  23.666  1.00  0.00     0.040 A 
HETATM    3  C   LIG     1      17.223  35.608  24.902  1.00  0.00     0.003 A 
HETATM    4  C   LIG     1      17.481  36.977  24.967  1.00  0.00     0.003 A 
HETATM    5  C   LIG     1      17.555  37.733  23.794  1.00  0.00     0.040 A 
HETATM    6  C   LIG     1      17.362  37.122  22.538  1.00  0.00     0.103 A 
ENDROOT
BRANCH   1   7
HETATM    7  O   LIG     1      16.853  35.077  21.268  1.00  0.00    -0.259 OA
BRANCH   7   8
HETATM    8  C   LIG     1      15.770  34.228  21.015  1.00  0.00     0.365 C 
HETATM    9  O   LIG     1      14.659  34.416  21.584  1.00  0.00    -0.238 OA
HETATM   10  N   LIG     1      15.947  33.113  20.136  1.00  0.00    -0.341 N 
HETATM   11  C   LIG     1      14.855  32.200  19.822  1.00  0.00     0.151 C 
HETATM   12  H   LIG     1      16.881  32.959  19.697  1.00  0.00     0.164 HD
ENDBRANCH   7   8
ENDBRANCH   1   7
BRANCH   6  13
HETATM   13  O   LIG     1      17.491  37.833  21.332  1.00  0.00    -0.344 OA
BRANCH  13  14
HETATM   14  C   LIG     1      18.708  38.091  20.630  1.00  0.00     0.121 C 
HETATM   15  C   LIG     1      18.749  39.548  20.157  1.00  0.00     0.040 C 
HETATM   16  C   LIG     1      18.788  37.146  19.433  1.00  0.00     0.040 C 
ENDBRANCH  13  14
ENDBRANCH   6  13
TORSDOF 4
ENDMDL
MODEL 4
REMARK VINA RESULT:      -6.7      5.638      8.696
REMARK  4 active torsions:
REMARK  status: ('A' for Active; 'I' for Inactive)
REMARK       I    between atoms: C_2  and  N_3 
REMARK    1  A    between atoms: C_2  and  O_5 
REMARK    2  A    between atoms: O_5  and  C_6 
REMARK    3  A    between atoms: C_11  and  O_12 
REMARK    4  A    between atoms: O_12  and  C_13 
ROOT
HETATM    1  C   LIG     1      15.656  32.014  15.934  1.00  0.00     0.114 A 
HETATM    2  C   LIG     1      15.213  31.120  14.951  1.00  0.00     0.040 A 
HETATM    3  C   LIG     1      13.945  30.544  15.038  1.00  0.00     0.003 A 
HETATM    4  C   LIG     1      13.113  30.846  16.116  1.00  0.00     0.003 A 
HETATM    5  C   LIG     1      13.551  31.714  17.119  1.00  0.00     0.040 A 
HETATM    6  C   LIG     1      14.833  32.298  17.046  1.00  0.00     0.103 A 
ENDROOT
BRANCH   1   7
HETATM    7  O   LIG     1      16.934  32.573  15.796  1.00  0.00    -0.259 OA
BRANCH   7   8
HETATM    8  C   LIG     1      17.247  33.616  14.916  1.00  0.00     0.365 C 
HETATM    9  O   LIG     1      17.118  34.819  15.274  1.00  0.00    -0.238 OA
HETATM   10  N   LIG     1      17.674  33.303  13.587  1.00  0.00    -0.341 N 
HETATM   11  C   LIG     1      18.028  34.342  12.628  1.00  0.00     0.151 C 
HETATM   12  H   LIG     1      17.749  32.302  13.303  1.00  0.00     0.164 HD
ENDBRANCH   7   8
ENDBRANCH   1   7
BRANCH   6  13
HETATM   13  O   LIG     1      15.336  33.127  18.065  1.00  0.00    -0.344 OA
BRANCH  13  14
HETATM   14  C   LIG     1      15.155  32.942  19.470  1.00  0.00     0.121 C 
HETATM   15  C   LIG     1      15.742  34.129  20.241  1.00  0.00     0.040 C 
HETATM   16  C   LIG     1      15.853  31.648  19.884  1.00  0.00     0.040 C 
ENDBRANCH  13  14
ENDBRANCH   6  13
TORSDOF 4
ENDMDL
MODEL 5
REMARK VINA RESULT:      -6.7      1.620      4.016
REMARK  4 active torsions:
REMARK  status: ('A' for Active; 'I' for Inactive)
REMARK       I    between atoms: C_2  and  N_3 
REMARK    1  A    between atoms: C_2  and  O_5 
REMARK    2  A    between atoms: O_5  and  C_6 
REMARK    3  A    between atoms: C_11  and  O_12 
REMARK    4  A    between atoms: O_12  and  C_13 
ROOT
HETATM    1  C   LIG     1      17.599  36.482  21.315  1.00  0.00     0.114 A 
HETATM    2  C   LIG     1      18.323  36.715  20.139  1.00  0.00     0.040 A 
HETATM    3  C   LIG     1      18.807  37.991  19.847  1.00  0.00     0.003 A 
HETATM    4  C   LIG     1      18.560  39.048  20.723  1.00  0.00     0.003 A 
HETATM    5  C   LIG     1      17.817  38.837  21.886  1.00  0.00     0.040 A 
HETATM    6  C   LIG     1      17.317  37.554  22.190  1.00  0.00     0.103 A 
ENDROOT
BRANCH   1   7
HETATM    7  O   LIG     1      17.144  35.180  21.567  1.00  0.00    -0.259 OA
BRANCH   7   8
HETATM    8  C   LIG     1      16.011  34.612  20.972  1.00  0.00     0.365 C 
HETATM    9  O   LIG     1      14.881  35.161  21.088  1.00  0.00    -0.238 OA
HETATM   10  N   LIG     1      16.140  33.375  20.266  1.00  0.00    -0.341 N 
HETATM   11  C   LIG     1      15.002  32.740  19.613  1.00  0.00     0.151 C 
HETATM   12  H   LIG     1      17.079  32.924  20.204  1.00  0.00     0.164 HD
ENDBRANCH   7   8
ENDBRANCH   1   7
BRANCH   6  13
HETATM   13  O   LIG     1      16.512  37.312  23.317  1.00  0.00    -0.344 OA
BRANCH  13  14
HETATM   14  C   LIG     1      16.971  37.111  24.655  1.00  0.00     0.121 C 
HETATM   15  C   LIG     1      18.216  37.963  24.922  1.00  0.00     0.040 C 
HETATM   16  C   LIG     1      17.296  35.630  24.840  1.00  0.00     0.040 C 
ENDBRANCH  13  14
ENDBRANCH   6  13
TORSDOF 4
ENDMDL
MODEL 6
REMARK VINA RESULT:      -6.3      1.101      3.621
REMARK  4 active torsions:
REMARK  status: ('A' for Active; 'I' for Inactive)
REMARK       I    between atoms: C_2  and  N_3 
REMARK    1  A    between atoms: C_2  and  O_5 
REMARK    2  A    between atoms: O_5  and  C_6 
REMARK    3  A    between atoms: C_11  and  O_12 
REMARK    4  A    between atoms: O_12  and  C_13 
ROOT
HETATM    1  C   LIG     1      16.399  37.179  22.228  1.00  0.00     0.114 A 
HETATM    2  C   LIG     1      15.123  36.607  22.308  1.00  0.00     0.040 A 
HETATM    3  C   LIG     1      14.736  35.612  21.408  1.00  0.00     0.003 A 
HETATM    4  C   LIG     1      15.616  35.191  20.412  1.00  0.00     0.003 A 
HETATM    5  C   LIG     1      16.882  35.771  20.302  1.00  0.00     0.040 A 
HETATM    6  C   LIG     1      17.284  36.781  21.201  1.00  0.00     0.103 A 
ENDROOT
BRANCH   1   7
HETATM    7  O   LIG     1      16.744  38.166  23.161  1.00  0.00    -0.259 OA
BRANCH   7   8
HETATM    8  C   LIG     1      17.142  37.903  24.477  1.00  0.00     0.365 C 
HETATM    9  O   LIG     1      17.095  38.807  25.356  1.00  0.00    -0.238 OA
HETATM   10  N   LIG     1      17.647  36.606  24.807  1.00  0.00    -0.341 N 
HETATM   11  C   LIG     1      18.065  36.265  26.161  1.00  0.00     0.151 C 
HETATM   12  H   LIG     1      17.703  35.880  24.059  1.00  0.00     0.164 HD
ENDBRANCH   7   8
ENDBRANCH   1   7
BRANCH   6  13
HETATM   13  O   LIG     1      18.523  37.435  21.086  1.00  0.00    -0.344 OA
BRANCH  13  14
HETATM   14  C   LIG     1      18.912  38.332  20.044  1.00  0.00     0.121 C 
HETATM   15  C   LIG     1      20.345  38.032  19.593  1.00  0.00     0.040 C 
HETATM   16  C   LIG     1      18.813  39.762  20.572  1.00  0.00     0.040 C 
ENDBRANCH  13  14
ENDBRANCH   6  13
TORSDOF 4
ENDMDL
MODEL 7
REMARK VINA RESULT:      -6.2      2.820      4.473
REMARK  4 active torsions:
REMARK  status: ('A' for Active; 'I' for Inactive)
REMARK       I    between atoms: C_2  and  N_3 
REMARK    1  A    between atoms: C_2  and  O_5 
REMARK    2  A    between atoms: O_5  and  C_6 
REMARK    3  A    between atoms: C_11  and  O_12 
REMARK    4  A    between atoms: O_12  and  C_13 
ROOT
HETATM    1  C   LIG     1      18.156  37.660  20.882  1.00  0.00     0.114 A 
HETATM    2  C   LIG     1      18.281  38.773  21.724  1.00  0.00     0.040 A 
HETATM    3  C   LIG     1      17.424  38.936  22.813  1.00  0.00     0.003 A 
HETATM    4  C   LIG     1      16.425  37.995  23.063  1.00  0.00     0.003 A 
HETATM    5  C   LIG     1      16.271  36.894  22.217  1.00  0.00     0.040 A 
HETATM    6  C   LIG     1      17.127  36.720  21.110  1.00  0.00     0.103 A 
ENDROOT
BRANCH   1   7
HETATM    7  O   LIG     1      19.049  37.536  19.808  1.00  0.00    -0.259 OA
BRANCH   7   8
HETATM    8  C   LIG     1      19.368  38.574  18.925  1.00  0.00     0.365 C 
HETATM    9  O   LIG     1      20.297  39.384  19.195  1.00  0.00    -0.238 OA
HETATM   10  N   LIG     1      18.599  38.734  17.729  1.00  0.00    -0.341 N 
HETATM   11  C   LIG     1      18.890  39.786  16.763  1.00  0.00     0.151 C 
HETATM   12  H   LIG     1      17.818  38.069  17.538  1.00  0.00     0.164 HD
ENDBRANCH   7   8
ENDBRANCH   1   7
BRANCH   6  13
HETATM   13  O   LIG     1      16.965  35.661  20.199  1.00  0.00    -0.344 OA
BRANCH  13  14
HETATM   14  C   LIG     1      15.749  34.965  19.920  1.00  0.00     0.121 C 
HETATM   15  C   LIG     1      15.739  33.609  20.632  1.00  0.00     0.040 C 
HETATM   16  C   LIG     1      15.637  34.768  18.409  1.00  0.00     0.040 C 
ENDBRANCH  13  14
ENDBRANCH   6  13
TORSDOF 4
ENDMDL
MODEL 8
REMARK VINA RESULT:      -6.0      6.223      8.980
REMARK  4 active torsions:
REMARK  status: ('A' for Active; 'I' for Inactive)
REMARK       I    between atoms: C_2  and  N_3 
REMARK    1  A    between atoms: C_2  and  O_5 
REMARK    2  A    between atoms: O_5  and  C_6 
REMARK    3  A    between atoms: C_11  and  O_12 
REMARK    4  A    between atoms: O_12  and  C_13 
ROOT
HETATM    1  C   LIG     1      14.516  31.427  15.681  1.00  0.00     0.114 A 
HETATM    2  C   LIG     1      13.342  30.665  15.636  1.00  0.00     0.040 A 
HETATM    3  C   LIG     1      13.236  29.578  14.766  1.00  0.00     0.003 A 
HETATM    4  C   LIG     1      14.298  29.254  13.922  1.00  0.00     0.003 A 
HETATM    5  C   LIG     1      15.466  30.021  13.935  1.00  0.00     0.040 A 
HETATM    6  C   LIG     1      15.583  31.125  14.806  1.00  0.00     0.103 A 
ENDROOT
BRANCH   1   7
HETATM    7  O   LIG     1      14.576  32.501  16.580  1.00  0.00    -0.259 OA
BRANCH   7   8
HETATM    8  C   LIG     1      14.704  32.363  17.966  1.00  0.00     0.365 C 
HETATM    9  O   LIG     1      14.234  31.351  18.557  1.00  0.00    -0.238 OA
HETATM   10  N   LIG     1      15.336  33.404  18.717  1.00  0.00    -0.341 N 
HETATM   11  C   LIG     1      15.512  33.313  20.161  1.00  0.00     0.151 C 
HETATM   12  H   LIG     1      15.694  34.244  18.212  1.00  0.00     0.164 HD
ENDBRANCH   7   8
ENDBRANCH   1   7
BRANCH   6  13
HETATM   13  O   LIG     1      16.714  31.960  14.806  1.00  0.00    -0.344 OA
BRANCH  13  14
HETATM   14  C   LIG     1      16.844  33.206  14.119  1.00  0.00     0.121 C 
HETATM   15  C   LIG     1      17.849  33.075  12.970  1.00  0.00     0.040 C 
HETATM   16  C   LIG     1      17.315  34.264  15.114  1.00  0.00     0.040 C 
ENDBRANCH  13  14
ENDBRANCH   6  13
TORSDOF 4
ENDMDL
MODEL 9
REMARK VINA RESULT:      -5.8      8.282     10.345
REMARK  4 active torsions:
REMARK  status: ('A' for Active; 'I' for Inactive)
REMARK       I    between atoms: C_2  and  N_3 
REMARK    1  A    between atoms: C_2  and  O_5 
REMARK    2  A    between atoms: O_5  and  C_6 
REMARK    3  A    between atoms: C_11  and  O_12 
REMARK    4  A    between atoms: O_12  and  C_13 
ROOT
HETATM    1  C   LIG     1      15.221  31.410  15.234  1.00  0.00     0.114 A 
HETATM    2  C   LIG     1      15.032  32.403  16.204  1.00  0.00     0.040 A 
HETATM    3  C   LIG     1      13.860  32.438  16.961  1.00  0.00     0.003 A 
HETATM    4  C   LIG     1      12.860  31.490  16.746  1.00  0.00     0.003 A 
HETATM    5  C   LIG     1      13.022  30.510  15.763  1.00  0.00     0.040 A 
HETATM    6  C   LIG     1      14.199  30.466  14.987  1.00  0.00     0.103 A 
ENDROOT
BRANCH   1   7
HETATM    7  O   LIG     1      16.420  31.411  14.508  1.00  0.00    -0.259 OA
BRANCH   7   8
HETATM    8  C   LIG     1      17.176  32.557  14.237  1.00  0.00     0.365 C 
HETATM    9  O   LIG     1      17.904  33.072  15.129  1.00  0.00    -0.238 OA
HETATM   10  N   LIG     1      17.082  33.166  12.946  1.00  0.00    -0.341 N 
HETATM   11  C   LIG     1      17.855  34.352  12.597  1.00  0.00     0.151 C 
HETATM   12  H   LIG     1      16.455  32.739  12.230  1.00  0.00     0.164 HD
ENDBRANCH   7   8
ENDBRANCH   1   7
BRANCH   6  13
HETATM   13  O   LIG     1      14.375  29.537  13.947  1.00  0.00    -0.344 OA
BRANCH  13  14
HETATM   14  C   LIG     1      14.358  28.114  14.074  1.00  0.00     0.121 C 
HETATM   15  C   LIG     1      15.439  27.489  13.186  1.00  0.00     0.040 C 
HETATM   16  C   LIG     1      12.978  27.605  13.663  1.00  0.00     0.040 C 
ENDBRANCH  13  14
ENDBRANCH   6  13
TORSDOF 4
ENDMDL
MODEL 10
REMARK VINA RESULT:      -5.4      7.137      9.574
REMARK  4 active torsions:
REMARK  status: ('A' for Active; 'I' for Inactive)
REMARK       I    between atoms: C_2  and  N_3 
REMARK    1  A    between atoms: C_2  and  O_5 
REMARK    2  A    between atoms: O_5  and  C_6 
REMARK    3  A    between atoms: C_11  and  O_12 
REMARK    4  A    between atoms: O_12  and  C_13 
ROOT
HETATM    1  C   LIG     1      15.698  31.756  14.678  1.00  0.00     0.114 A 
HETATM    2  C   LIG     1      15.922  31.978  13.313  1.00  0.00     0.040 A 
HETATM    3  C   LIG     1      16.951  32.823  12.894  1.00  0.00     0.003 A 
HETATM    4  C   LIG     1      17.756  33.464  13.835  1.00  0.00     0.003 A 
HETATM    5  C   LIG     1      17.527  33.274  15.200  1.00  0.00     0.040 A 
HETATM    6  C   LIG     1      16.488  32.427  15.638  1.00  0.00     0.103 A 
ENDROOT
BRANCH   1   7
HETATM    7  O   LIG     1      14.660  30.890  15.048  1.00  0.00    -0.259 OA
BRANCH   7   8
HETATM    8  C   LIG     1      14.405  29.657  14.436  1.00  0.00     0.365 C 
HETATM    9  O   LIG     1      13.223  29.301  14.175  1.00  0.00    -0.238 OA
HETATM   10  N   LIG     1      15.500  28.782  14.148  1.00  0.00    -0.341 N 
HETATM   11  C   LIG     1      15.303  27.491  13.500  1.00  0.00     0.151 C 
HETATM   12  H   LIG     1      16.467  29.084  14.396  1.00  0.00     0.164 HD
ENDBRANCH   7   8
ENDBRANCH   1   7
BRANCH   6  13
HETATM   13  O   LIG     1      16.184  32.258  17.000  1.00  0.00    -0.344 OA
BRANCH  13  14
HETATM   14  C   LIG     1      15.055  32.800  17.687  1.00  0.00     0.121 C 
HETATM   15  C   LIG     1      14.893  34.286  17.351  1.00  0.00     0.040 C 
HETATM   16  C   LIG     1      15.266  32.619  19.189  1.00  0.00     0.040 C 
ENDBRANCH  13  14
ENDBRANCH   6  13
TORSDOF 4
ENDMDL
MODEL 11
REMARK VINA RESULT:      -4.9      6.869      9.621
REMARK  4 active torsions:
REMARK  status: ('A' for Active; 'I' for Inactive)
REMARK       I    between atoms: C_2  and  N_3 
REMARK    1  A    between atoms: C_2  and  O_5 
REMARK    2  A    between atoms: O_5  and  C_6 
REMARK    3  A    between atoms: C_11  and  O_12 
REMARK    4  A    between atoms: O_12  and  C_13 
ROOT
HETATM    1  C   LIG     1      16.209  32.554  14.415  1.00  0.00     0.114 A 
HETATM    2  C   LIG     1      16.017  31.682  13.335  1.00  0.00     0.040 A 
HETATM    3  C   LIG     1      15.227  30.541  13.479  1.00  0.00     0.003 A 
HETATM    4  C   LIG     1      14.633  30.253  14.707  1.00  0.00     0.003 A 
HETATM    5  C   LIG     1      14.837  31.098  15.801  1.00  0.00     0.040 A 
HETATM    6  C   LIG     1      15.638  32.252  15.671  1.00  0.00     0.103 A 
ENDROOT
BRANCH   1   7
HETATM    7  O   LIG     1      17.002  33.692  14.216  1.00  0.00    -0.259 OA
BRANCH   7   8
HETATM    8  C   LIG     1      18.013  33.791  13.253  1.00  0.00     0.365 C 
HETATM    9  O   LIG     1      19.143  33.265  13.451  1.00  0.00    -0.238 OA
HETATM   10  N   LIG     1      17.766  34.533  12.055  1.00  0.00    -0.341 N 
HETATM   11  C   LIG     1      18.772  34.661  11.008  1.00  0.00     0.151 C 
HETATM   12  H   LIG     1      16.833  34.981  11.922  1.00  0.00     0.164 HD
ENDBRANCH   7   8
ENDBRANCH   1   7
BRANCH   6  13
HETATM   13  O   LIG     1      15.920  33.094  16.761  1.00  0.00    -0.344 OA
BRANCH  13  14
HETATM   14  C   LIG     1      14.968  33.625  17.685  1.00  0.00     0.121 C 
HETATM   15  C   LIG     1      13.913  34.452  16.944  1.00  0.00     0.040 C 
HETATM   16  C   LIG     1      15.708  34.498  18.696  1.00  0.00     0.040 C 
ENDBRANCH  13  14
ENDBRANCH   6  13
TORSDOF 4
ENDMDL
