REMARK  4 active torsions:
REMARK  status: ('A' for Active; 'I' for Inactive)
REMARK       I    between atoms: C_2  and  N_3 
REMARK    1  A    between atoms: C_2  and  O_5 
REMARK    2  A    between atoms: O_5  and  C_6 
REMARK    3  A    between atoms: C_11  and  O_12 
REMARK    4  A    between atoms: O_12  and  C_13 
ROOT
HETATM    1  C   LIG     1       0.648   1.540  -0.895  1.00  0.00     0.114 A 
HETATM    2  C   LIG     1       0.807   2.901  -1.186  1.00  0.00     0.040 A 
HETATM    3  C   LIG     1      -0.257   3.789  -1.019  1.00  0.00     0.003 A 
HETATM    4  C   LIG     1      -1.493   3.322  -0.573  1.00  0.00     0.003 A 
HETATM    5  C   LIG     1      -1.675   1.963  -0.305  1.00  0.00     0.040 A 
HETATM    6  C   LIG     1      -0.610   1.054  -0.475  1.00  0.00     0.103 A 
ENDROOT
BRANCH   1   7
HETATM    7  O   LIG     1       1.750   0.691  -1.069  1.00  0.00    -0.259 OA
BRANCH   7   8
HETATM    8  C   LIG     1       2.135  -0.298  -0.157  1.00  0.00     0.365 C 
HETATM    9  O   LIG     1       1.680  -0.299   1.020  1.00  0.00    -0.238 OA
HETATM   10  N   LIG     1       3.087  -1.287  -0.560  1.00  0.00    -0.341 N 
HETATM   11  C   LIG     1       3.518  -2.351   0.338  1.00  0.00     0.151 C 
HETATM   12  H   LIG     1       3.471  -1.253  -1.530  1.00  0.00     0.164 HD
ENDBRANCH   7   8
ENDBRANCH   1   7
BRANCH   6  13
HETATM   13  O   LIG     1      -0.768  -0.329  -0.277  1.00  0.00    -0.344 OA
BRANCH  13  14
HETATM   14  C   LIG     1      -1.911  -0.976   0.285  1.00  0.00     0.121 C 
HETATM   15  C   LIG     1      -1.971  -0.729   1.796  1.00  0.00     0.040 C 
HETATM   16  C   LIG     1      -1.812  -2.473  -0.001  1.00  0.00     0.040 C 
ENDBRANCH  13  14
ENDBRANCH   6  13
TORSDOF 4
