REMARK  3 active torsions:
REMARK  status: ('A' for Active; 'I' for Inactive)
REMARK    1  A    between atoms: C_6  and  C_13 
REMARK    2  A    between atoms: C_6  and  C_7 
REMARK    3  A    between atoms: C_13  and  C_14 
ROOT
HETATM    1  O   LIG     1       1.475   4.228  -1.662  1.00  0.00    -0.247 OA
HETATM    2  C   LIG     1       1.074   3.130  -1.193  1.00  0.00     0.329 C 
HETATM    3  N   LIG     1       0.881   2.982   0.210  1.00  0.00    -0.278 N 
HETATM    4  N   LIG     1       0.793   2.042  -2.066  1.00  0.00    -0.278 N 
HETATM    5  C   LIG     1       0.338   0.786  -1.556  1.00  0.00     0.248 C 
HETATM    6  C   LIG     1       0.390   0.460  -0.062  1.00  0.00     0.152 C 
HETATM    7  C   LIG     1       0.487   1.729   0.777  1.00  0.00     0.248 C 
HETATM    8  O   LIG     1       0.282   1.666   2.021  1.00  0.00    -0.271 OA
HETATM    9  O   LIG     1      -0.065  -0.088  -2.372  1.00  0.00    -0.271 OA
HETATM   10  H   LIG     1       1.024   3.806   0.836  1.00  0.00     0.173 HD
HETATM   11  H   LIG     1       0.867   2.181  -3.099  1.00  0.00     0.173 HD
ENDROOT
BRANCH   6  12
HETATM   12  C   LIG     1       1.695  -0.350   0.202  1.00  0.00     0.060 C 
BRANCH  12  13
HETATM   13  C   LIG     1       1.739  -1.701  -0.475  1.00  0.00    -0.035 C 
HETATM   14  C   LIG     1       2.820  -2.478  -0.381  1.00  0.00     0.007 C 
ENDBRANCH  12  13
ENDBRANCH   6  12
BRANCH   6  15
HETATM   15  C   LIG     1      -0.906  -0.264   0.357  1.00  0.00    -0.031 A 
HETATM   16  C   LIG     1      -2.153   0.254  -0.061  1.00  0.00     0.009 A 
HETATM   17  C   LIG     1      -3.350  -0.346   0.335  1.00  0.00     0.001 A 
HETATM   18  C   LIG     1      -3.331  -1.459   1.175  1.00  0.00     0.000 A 
HETATM   19  C   LIG     1      -2.115  -1.964   1.632  1.00  0.00     0.001 A 
HETATM   20  C   LIG     1      -0.912  -1.368   1.241  1.00  0.00     0.009 A 
ENDBRANCH   6  15
TORSDOF 3
