MODEL 1
REMARK VINA RESULT:      -9.7      0.000      0.000
REMARK  4 active torsions:
REMARK  status: ('A' for Active; 'I' for Inactive)
REMARK    1  A    between atoms: C_2  and  C_4 
REMARK    2  A    between atoms: C_2  and  O_3 
REMARK    3  A    between atoms: C_4  and  C_11 
REMARK    4  A    between atoms: C_4  and  C_5 
ROOT
HETATM    1  C   LIG     1      16.721  36.402  22.389  1.00  0.00     0.149 C 
ENDROOT
BRANCH   1   2
HETATM    2  C   LIG     1      15.296  36.891  22.307  1.00  0.00     0.153 C 
HETATM    3  O   LIG     1      14.473  36.288  21.567  1.00  0.00    -0.649 OA
BRANCH   2   4
HETATM    4  O   LIG     1      14.865  37.974  23.071  1.00  0.00    -0.776 OA
HETATM    5  H   LIG     1      15.137  38.920  22.833  1.00  0.00     0.167 HD
ENDBRANCH   2   4
ENDBRANCH   1   2
BRANCH   1   6
HETATM    6  C   LIG     1      17.225  36.300  23.820  1.00  0.00    -0.040 A 
HETATM    7  C   LIG     1      17.258  35.041  24.447  1.00  0.00     0.008 A 
HETATM    8  C   LIG     1      17.746  34.909  25.750  1.00  0.00     0.001 A 
HETATM    9  C   LIG     1      18.217  36.029  26.439  1.00  0.00     0.000 A 
HETATM   10  C   LIG     1      18.203  37.283  25.824  1.00  0.00     0.001 A 
HETATM   11  C   LIG     1      17.716  37.420  24.522  1.00  0.00     0.008 A 
ENDBRANCH   1   6
BRANCH   1  12
HETATM   12  C   LIG     1      17.661  37.238  21.539  1.00  0.00    -0.040 A 
HETATM   13  C   LIG     1      18.333  36.651  20.451  1.00  0.00     0.008 A 
HETATM   14  C   LIG     1      19.203  37.410  19.661  1.00  0.00     0.001 A 
HETATM   15  C   LIG     1      19.410  38.761  19.947  1.00  0.00     0.000 A 
HETATM   16  C   LIG     1      18.749  39.357  21.023  1.00  0.00     0.001 A 
HETATM   17  C   LIG     1      17.878  38.603  21.815  1.00  0.00     0.008 A 
ENDBRANCH   1  12
TORSDOF 4
ENDMDL
MODEL 2
REMARK VINA RESULT:      -9.6      0.841      4.702
REMARK  4 active torsions:
REMARK  status: ('A' for Active; 'I' for Inactive)
REMARK    1  A    between atoms: C_2  and  C_4 
REMARK    2  A    between atoms: C_2  and  O_3 
REMARK    3  A    between atoms: C_4  and  C_11 
REMARK    4  A    between atoms: C_4  and  C_5 
ROOT
HETATM    1  C   LIG     1      16.445  36.880  22.320  1.00  0.00     0.149 C 
ENDROOT
BRANCH   1   2
HETATM    2  C   LIG     1      15.669  35.739  21.709  1.00  0.00     0.153 C 
HETATM    3  O   LIG     1      16.219  34.614  21.576  1.00  0.00    -0.649 OA
BRANCH   2   4
HETATM    4  O   LIG     1      14.338  35.902  21.330  1.00  0.00    -0.776 OA
HETATM    5  H   LIG     1      13.982  35.475  20.484  1.00  0.00     0.167 HD
ENDBRANCH   2   4
ENDBRANCH   1   2
BRANCH   1   6
HETATM    6  C   LIG     1      17.550  37.393  21.410  1.00  0.00    -0.040 A 
HETATM    7  C   LIG     1      18.085  36.537  20.431  1.00  0.00     0.008 A 
HETATM    8  C   LIG     1      19.078  36.989  19.558  1.00  0.00     0.001 A 
HETATM    9  C   LIG     1      19.543  38.303  19.644  1.00  0.00     0.000 A 
HETATM   10  C   LIG     1      19.011  39.169  20.603  1.00  0.00     0.001 A 
HETATM   11  C   LIG     1      18.017  38.722  21.478  1.00  0.00     0.008 A 
ENDBRANCH   1   6
BRANCH   1  12
HETATM   12  C   LIG     1      16.990  36.527  23.693  1.00  0.00    -0.040 A 
HETATM   13  C   LIG     1      17.369  37.549  24.583  1.00  0.00     0.008 A 
HETATM   14  C   LIG     1      17.874  37.237  25.849  1.00  0.00     0.001 A 
HETATM   15  C   LIG     1      18.005  35.903  26.242  1.00  0.00     0.000 A 
HETATM   16  C   LIG     1      17.631  34.879  25.370  1.00  0.00     0.001 A 
HETATM   17  C   LIG     1      17.126  35.185  24.104  1.00  0.00     0.008 A 
ENDBRANCH   1  12
TORSDOF 4
ENDMDL
MODEL 3
REMARK VINA RESULT:      -9.2      0.979      4.902
REMARK  4 active torsions:
REMARK  status: ('A' for Active; 'I' for Inactive)
REMARK    1  A    between atoms: C_2  and  C_4 
REMARK    2  A    between atoms: C_2  and  O_3 
REMARK    3  A    between atoms: C_4  and  C_11 
REMARK    4  A    between atoms: C_4  and  C_5 
ROOT
HETATM    1  C   LIG     1      17.221  38.378  23.233  1.00  0.00     0.149 C 
ENDROOT
BRANCH   1   2
HETATM    2  C   LIG     1      15.745  38.638  23.057  1.00  0.00     0.153 C 
HETATM    3  O   LIG     1      15.364  39.673  22.448  1.00  0.00    -0.649 OA
BRANCH   2   4
HETATM    4  O   LIG     1      14.798  37.727  23.520  1.00  0.00    -0.776 OA
HETATM    5  H   LIG     1      13.836  38.007  23.668  1.00  0.00     0.167 HD
ENDBRANCH   2   4
ENDBRANCH   1   2
BRANCH   1   6
HETATM    6  C   LIG     1      17.934  38.127  21.914  1.00  0.00    -0.040 A 
HETATM    7  C   LIG     1      18.888  39.058  21.463  1.00  0.00     0.008 A 
HETATM    8  C   LIG     1      19.585  38.840  20.271  1.00  0.00     0.001 A 
HETATM    9  C   LIG     1      19.346  37.687  19.520  1.00  0.00     0.000 A 
HETATM   10  C   LIG     1      18.412  36.748  19.962  1.00  0.00     0.001 A 
HETATM   11  C   LIG     1      17.713  36.960  21.153  1.00  0.00     0.008 A 
ENDBRANCH   1   6
BRANCH   1  12
HETATM   12  C   LIG     1      17.488  37.254  24.219  1.00  0.00    -0.040 A 
HETATM   13  C   LIG     1      18.101  37.535  25.454  1.00  0.00     0.008 A 
HETATM   14  C   LIG     1      18.355  36.508  26.370  1.00  0.00     0.001 A 
HETATM   15  C   LIG     1      17.999  35.193  26.064  1.00  0.00     0.000 A 
HETATM   16  C   LIG     1      17.389  34.901  24.843  1.00  0.00     0.001 A 
HETATM   17  C   LIG     1      17.133  35.922  23.925  1.00  0.00     0.008 A 
ENDBRANCH   1  12
TORSDOF 4
ENDMDL
MODEL 4
REMARK VINA RESULT:      -8.5      1.974      3.186
REMARK  4 active torsions:
REMARK  status: ('A' for Active; 'I' for Inactive)
REMARK    1  A    between atoms: C_2  and  C_4 
REMARK    2  A    between atoms: C_2  and  O_3 
REMARK    3  A    between atoms: C_4  and  C_11 
REMARK    4  A    between atoms: C_4  and  C_5 
ROOT
HETATM    1  C   LIG     1      16.491  37.586  23.449  1.00  0.00     0.149 C 
ENDROOT
BRANCH   1   2
HETATM    2  C   LIG     1      17.202  38.872  23.107  1.00  0.00     0.153 C 
HETATM    3  O   LIG     1      16.594  39.969  23.226  1.00  0.00    -0.649 OA
BRANCH   2   4
HETATM    4  O   LIG     1      18.536  38.867  22.704  1.00  0.00    -0.776 OA
HETATM    5  H   LIG     1      18.784  38.755  21.729  1.00  0.00     0.167 HD
ENDBRANCH   2   4
ENDBRANCH   1   2
BRANCH   1   6
HETATM    6  C   LIG     1      17.200  36.794  24.537  1.00  0.00    -0.040 A 
HETATM    7  C   LIG     1      17.889  37.486  25.550  1.00  0.00     0.008 A 
HETATM    8  C   LIG     1      18.523  36.788  26.582  1.00  0.00     0.001 A 
HETATM    9  C   LIG     1      18.469  35.393  26.621  1.00  0.00     0.000 A 
HETATM   10  C   LIG     1      17.777  34.694  25.630  1.00  0.00     0.001 A 
HETATM   11  C   LIG     1      17.142  35.386  24.596  1.00  0.00     0.008 A 
ENDBRANCH   1   6
BRANCH   1  12
HETATM   12  C   LIG     1      16.246  36.726  22.222  1.00  0.00    -0.040 A 
HETATM   13  C   LIG     1      14.960  36.214  21.969  1.00  0.00     0.008 A 
HETATM   14  C   LIG     1      14.722  35.419  20.843  1.00  0.00     0.001 A 
HETATM   15  C   LIG     1      15.762  35.128  19.957  1.00  0.00     0.000 A 
HETATM   16  C   LIG     1      17.042  35.631  20.196  1.00  0.00     0.001 A 
HETATM   17  C   LIG     1      17.286  36.426  21.319  1.00  0.00     0.008 A 
ENDBRANCH   1  12
TORSDOF 4
ENDMDL
MODEL 5
REMARK VINA RESULT:      -7.1      2.131      4.733
REMARK  4 active torsions:
REMARK  status: ('A' for Active; 'I' for Inactive)
REMARK    1  A    between atoms: C_2  and  C_4 
REMARK    2  A    between atoms: C_2  and  O_3 
REMARK    3  A    between atoms: C_4  and  C_11 
REMARK    4  A    between atoms: C_4  and  C_5 
ROOT
HETATM    1  C   LIG     1      17.200  37.109  22.534  1.00  0.00     0.149 C 
ENDROOT
BRANCH   1   2
HETATM    2  C   LIG     1      16.325  38.067  23.305  1.00  0.00     0.153 C 
HETATM    3  O   LIG     1      16.347  38.054  24.564  1.00  0.00    -0.649 OA
BRANCH   2   4
HETATM    4  O   LIG     1      15.527  38.997  22.643  1.00  0.00    -0.776 OA
HETATM    5  H   LIG     1      14.912  38.713  21.889  1.00  0.00     0.167 HD
ENDBRANCH   2   4
ENDBRANCH   1   2
BRANCH   1   6
HETATM    6  C   LIG     1      18.035  37.803  21.469  1.00  0.00    -0.040 A 
HETATM    7  C   LIG     1      18.377  37.098  20.300  1.00  0.00     0.008 A 
HETATM    8  C   LIG     1      19.115  37.718  19.288  1.00  0.00     0.001 A 
HETATM    9  C   LIG     1      19.512  39.050  19.425  1.00  0.00     0.000 A 
HETATM   10  C   LIG     1      19.167  39.766  20.573  1.00  0.00     0.001 A 
HETATM   11  C   LIG     1      18.429  39.152  21.588  1.00  0.00     0.008 A 
ENDBRANCH   1   6
BRANCH   1  12
HETATM   12  C   LIG     1      16.403  35.961  21.941  1.00  0.00    -0.040 A 
HETATM   13  C   LIG     1      15.024  36.112  21.703  1.00  0.00     0.008 A 
HETATM   14  C   LIG     1      14.279  35.061  21.158  1.00  0.00     0.001 A 
HETATM   15  C   LIG     1      14.900  33.850  20.845  1.00  0.00     0.000 A 
HETATM   16  C   LIG     1      16.268  33.687  21.074  1.00  0.00     0.001 A 
HETATM   17  C   LIG     1      17.017  34.734  21.618  1.00  0.00     0.008 A 
ENDBRANCH   1  12
TORSDOF 4
ENDMDL
MODEL 6
REMARK VINA RESULT:      -7.0      2.052      3.342
REMARK  4 active torsions:
REMARK  status: ('A' for Active; 'I' for Inactive)
REMARK    1  A    between atoms: C_2  and  C_4 
REMARK    2  A    between atoms: C_2  and  O_3 
REMARK    3  A    between atoms: C_4  and  C_11 
REMARK    4  A    between atoms: C_4  and  C_5 
ROOT
HETATM    1  C   LIG     1      16.831  37.833  22.201  1.00  0.00     0.149 C 
ENDROOT
BRANCH   1   2
HETATM    2  C   LIG     1      17.247  38.016  23.639  1.00  0.00     0.153 C 
HETATM    3  O   LIG     1      16.379  37.951  24.550  1.00  0.00    -0.649 OA
BRANCH   2   4
HETATM    4  O   LIG     1      18.584  38.213  23.979  1.00  0.00    -0.776 OA
HETATM    5  H   LIG     1      18.838  38.713  24.822  1.00  0.00     0.167 HD
ENDBRANCH   2   4
ENDBRANCH   1   2
BRANCH   1   6
HETATM    6  C   LIG     1      16.217  36.467  21.936  1.00  0.00    -0.040 A 
HETATM    7  C   LIG     1      14.884  36.390  21.492  1.00  0.00     0.008 A 
HETATM    8  C   LIG     1      14.301  35.152  21.209  1.00  0.00     0.001 A 
HETATM    9  C   LIG     1      15.042  33.977  21.356  1.00  0.00     0.000 A 
HETATM   10  C   LIG     1      16.370  34.040  21.783  1.00  0.00     0.001 A 
HETATM   11  C   LIG     1      16.959  35.275  22.067  1.00  0.00     0.008 A 
ENDBRANCH   1   6
BRANCH   1  12
HETATM   12  C   LIG     1      17.972  38.112  21.238  1.00  0.00    -0.040 A 
HETATM   13  C   LIG     1      18.434  37.095  20.382  1.00  0.00     0.008 A 
HETATM   14  C   LIG     1      19.485  37.340  19.492  1.00  0.00     0.001 A 
HETATM   15  C   LIG     1      20.086  38.600  19.446  1.00  0.00     0.000 A 
HETATM   16  C   LIG     1      19.636  39.618  20.289  1.00  0.00     0.001 A 
HETATM   17  C   LIG     1      18.586  39.379  21.179  1.00  0.00     0.008 A 
ENDBRANCH   1  12
TORSDOF 4
ENDMDL
MODEL 7
REMARK VINA RESULT:      -6.8      7.271      8.889
REMARK  4 active torsions:
REMARK  status: ('A' for Active; 'I' for Inactive)
REMARK    1  A    between atoms: C_2  and  C_4 
REMARK    2  A    between atoms: C_2  and  O_3 
REMARK    3  A    between atoms: C_4  and  C_11 
REMARK    4  A    between atoms: C_4  and  C_5 
ROOT
HETATM    1  C   LIG     1      15.412  33.087  16.015  1.00  0.00     0.149 C 
ENDROOT
BRANCH   1   2
HETATM    2  C   LIG     1      16.777  33.221  15.384  1.00  0.00     0.153 C 
HETATM    3  O   LIG     1      17.055  34.253  14.717  1.00  0.00    -0.649 OA
BRANCH   2   4
HETATM    4  O   LIG     1      17.749  32.240  15.567  1.00  0.00    -0.776 OA
HETATM    5  H   LIG     1      17.918  31.537  14.858  1.00  0.00     0.167 HD
ENDBRANCH   2   4
ENDBRANCH   1   2
BRANCH   1   6
HETATM    6  C   LIG     1      15.455  33.176  17.532  1.00  0.00    -0.040 A 
HETATM    7  C   LIG     1      15.475  34.442  18.145  1.00  0.00     0.008 A 
HETATM    8  C   LIG     1      15.481  34.557  19.537  1.00  0.00     0.001 A 
HETATM    9  C   LIG     1      15.457  33.411  20.336  1.00  0.00     0.000 A 
HETATM   10  C   LIG     1      15.423  32.148  19.741  1.00  0.00     0.001 A 
HETATM   11  C   LIG     1      15.416  32.027  18.349  1.00  0.00     0.008 A 
ENDBRANCH   1   6
BRANCH   1  12
HETATM   12  C   LIG     1      14.697  31.827  15.562  1.00  0.00    -0.040 A 
HETATM   13  C   LIG     1      15.254  31.029  14.545  1.00  0.00     0.008 A 
HETATM   14  C   LIG     1      14.603  29.867  14.118  1.00  0.00     0.001 A 
HETATM   15  C   LIG     1      13.392  29.488  14.700  1.00  0.00     0.000 A 
HETATM   16  C   LIG     1      12.828  30.270  15.711  1.00  0.00     0.001 A 
HETATM   17  C   LIG     1      13.474  31.432  16.141  1.00  0.00     0.008 A 
ENDBRANCH   1  12
TORSDOF 4
ENDMDL
MODEL 8
REMARK VINA RESULT:      -6.8      2.324      4.846
REMARK  4 active torsions:
REMARK  status: ('A' for Active; 'I' for Inactive)
REMARK    1  A    between atoms: C_2  and  C_4 
REMARK    2  A    between atoms: C_2  and  O_3 
REMARK    3  A    between atoms: C_4  and  C_11 
REMARK    4  A    between atoms: C_4  and  C_5 
ROOT
HETATM    1  C   LIG     1      17.113  36.078  21.669  1.00  0.00     0.149 C 
ENDROOT
BRANCH   1   2
HETATM    2  C   LIG     1      16.139  36.721  22.626  1.00  0.00     0.153 C 
HETATM    3  O   LIG     1      16.514  37.012  23.793  1.00  0.00    -0.649 OA
BRANCH   2   4
HETATM    4  O   LIG     1      14.844  37.039  22.222  1.00  0.00    -0.776 OA
HETATM    5  H   LIG     1      14.260  36.353  21.760  1.00  0.00     0.167 HD
ENDBRANCH   2   4
ENDBRANCH   1   2
BRANCH   1   6
HETATM    6  C   LIG     1      17.972  37.094  20.934  1.00  0.00    -0.040 A 
HETATM    7  C   LIG     1      17.933  38.442  21.334  1.00  0.00     0.008 A 
HETATM    8  C   LIG     1      18.736  39.395  20.700  1.00  0.00     0.001 A 
HETATM    9  C   LIG     1      19.593  39.013  19.666  1.00  0.00     0.000 A 
HETATM   10  C   LIG     1      19.652  37.675  19.267  1.00  0.00     0.001 A 
HETATM   11  C   LIG     1      18.852  36.719  19.898  1.00  0.00     0.008 A 
ENDBRANCH   1   6
BRANCH   1  12
HETATM   12  C   LIG     1      16.420  35.142  20.694  1.00  0.00    -0.040 A 
HETATM   13  C   LIG     1      16.074  33.839  21.097  1.00  0.00     0.008 A 
HETATM   14  C   LIG     1      15.437  32.967  20.207  1.00  0.00     0.001 A 
HETATM   15  C   LIG     1      15.139  33.385  18.909  1.00  0.00     0.000 A 
HETATM   16  C   LIG     1      15.476  34.676  18.497  1.00  0.00     0.001 A 
HETATM   17  C   LIG     1      16.111  35.551  19.382  1.00  0.00     0.008 A 
ENDBRANCH   1  12
TORSDOF 4
ENDMDL
