REMARK  16 active torsions:
REMARK  status: ('A' for Active; 'I' for Inactive)
REMARK    1  A    between atoms: C_2  and  C_12 
REMARK    2  A    between atoms: C_2  and  O_3 
REMARK    3  A    between atoms: O_3  and  C_4 
REMARK    4  A    between atoms: C_4  and  C_5 
REMARK    5  A    between atoms: C_5  and  C_6 
REMARK    6  A    between atoms: C_5  and  C_8 
REMARK    7  A    between atoms: C_8  and  C_9 
REMARK    8  A    between atoms: C_9  and  C_10 
REMARK    9  A    between atoms: C_17  and  C_18 
REMARK   10  A    between atoms: C_18  and  O_19 
REMARK   11  A    between atoms: O_19  and  C_20 
REMARK   12  A    between atoms: C_20  and  C_21 
REMARK   13  A    between atoms: C_21  and  C_22 
REMARK   14  A    between atoms: C_21  and  C_24 
REMARK   15  A    between atoms: C_24  and  C_25 
REMARK   16  A    between atoms: C_25  and  C_26 
ROOT
HETATM    1  C   LIG     1       0.290   1.476   1.362  1.00  0.00     0.055 A 
HETATM    2  C   LIG     1       0.899   2.716   1.634  1.00  0.00     0.018 A 
HETATM    3  C   LIG     1       0.353   3.588   2.577  1.00  0.00     0.001 A 
HETATM    4  C   LIG     1      -0.811   3.241   3.258  1.00  0.00     0.001 A 
HETATM    5  C   LIG     1      -1.425   2.012   3.014  1.00  0.00     0.018 A 
HETATM    6  C   LIG     1      -0.880   1.105   2.084  1.00  0.00     0.055 A 
ENDROOT
BRANCH   1   7
HETATM    7  C   LIG     1       0.889   0.636   0.298  1.00  0.00     0.294 C 
HETATM    8  O   LIG     1       0.158  -0.078  -0.444  1.00  0.00    -0.259 OA
BRANCH   7   9
HETATM    9  O   LIG     1       2.270   0.683   0.086  1.00  0.00    -0.317 OA
BRANCH   9  10
HETATM   10  C   LIG     1       2.949  -0.209  -0.799  1.00  0.00     0.183 C 
BRANCH  10  11
HETATM   11  C   LIG     1       4.434   0.186  -0.933  1.00  0.00     0.010 C 
BRANCH  11  12
HETATM   12  C   LIG     1       4.584   1.601  -1.559  1.00  0.00     0.002 C 
HETATM   13  C   LIG     1       4.316   1.611  -3.067  1.00  0.00     0.005 C 
ENDBRANCH  11  12
BRANCH  11  14
HETATM   14  C   LIG     1       5.131   0.103   0.451  1.00  0.00     0.007 C 
BRANCH  14  15
HETATM   15  C   LIG     1       6.664  -0.049   0.364  1.00  0.00     0.000 C 
BRANCH  15  16
HETATM   16  C   LIG     1       7.097  -1.508   0.147  1.00  0.00    -0.005 C 
HETATM   17  C   LIG     1       8.616  -1.619   0.055  1.00  0.00     0.005 C 
ENDBRANCH  15  16
ENDBRANCH  14  15
ENDBRANCH  11  14
ENDBRANCH  10  11
ENDBRANCH   9  10
ENDBRANCH   7   9
ENDBRANCH   1   7
BRANCH   6  18
HETATM   18  C   LIG     1      -1.533  -0.218   1.946  1.00  0.00     0.294 C 
HETATM   19  O   LIG     1      -0.844  -1.245   1.708  1.00  0.00    -0.259 OA
BRANCH  18  20
HETATM   20  O   LIG     1      -2.915  -0.332   2.148  1.00  0.00    -0.317 OA
BRANCH  20  21
HETATM   21  C   LIG     1      -3.670  -1.475   1.751  1.00  0.00     0.183 C 
BRANCH  21  22
HETATM   22  C   LIG     1      -4.000  -1.393   0.245  1.00  0.00     0.010 C 
BRANCH  22  23
HETATM   23  C   LIG     1      -4.472  -2.758  -0.317  1.00  0.00     0.002 C 
HETATM   24  C   LIG     1      -5.734  -3.323   0.342  1.00  0.00     0.005 C 
ENDBRANCH  22  23
BRANCH  22  25
HETATM   25  C   LIG     1      -4.996  -0.235  -0.028  1.00  0.00     0.007 C 
BRANCH  25  26
HETATM   26  C   LIG     1      -5.122   0.146  -1.524  1.00  0.00     0.000 C 
BRANCH  26  27
HETATM   27  C   LIG     1      -6.415  -0.354  -2.191  1.00  0.00    -0.005 C 
HETATM   28  C   LIG     1      -7.654   0.400  -1.710  1.00  0.00     0.005 C 
ENDBRANCH  26  27
ENDBRANCH  25  26
ENDBRANCH  22  25
ENDBRANCH  21  22
ENDBRANCH  20  21
ENDBRANCH  18  20
ENDBRANCH   6  18
TORSDOF 16
