REMARK  5 active torsions:
REMARK  status: ('A' for Active; 'I' for Inactive)
REMARK    1  A    between atoms: C_2  and  C_5 
REMARK    2  A    between atoms: N_18  and  C_19 
REMARK    3  A    between atoms: C_19  and  C_20 
REMARK    4  A    between atoms: C_20  and  C_21 
REMARK    5  A    between atoms: C_21  and  N_22 
ROOT
HETATM    1  C   LIG     1       4.464  -2.067  -0.215  1.00  0.00     0.050 A 
HETATM    2  C   LIG     1       3.280  -1.626  -0.838  1.00  0.00     0.047 A 
HETATM    3  C   LIG     1       2.456  -0.673  -0.214  1.00  0.00     0.053 A 
HETATM    4  C   LIG     1       2.820  -0.172   1.049  1.00  0.00     0.032 A 
HETATM    5  C   LIG     1       4.006  -0.586   1.658  1.00  0.00     0.022 A 
HETATM    6  C   LIG     1       4.823  -1.528   1.031  1.00  0.00     0.017 A 
HETATM    7  S   LIG     1       1.698   0.923   1.925  1.00  0.00    -0.086 SA
HETATM    8  C   LIG     1       1.379   1.942   0.483  1.00  0.00     0.032 A 
HETATM    9  C   LIG     1       1.110   1.328  -0.756  1.00  0.00     0.052 A 
HETATM   10  C   LIG     1       0.788   2.133  -1.863  1.00  0.00     0.031 A 
HETATM   11  C   LIG     1       0.723   3.523  -1.728  1.00  0.00     0.002 A 
HETATM   12  C   LIG     1       1.002   4.123  -0.497  1.00  0.00     0.002 A 
HETATM   13  C   LIG     1       1.336   3.334   0.606  1.00  0.00     0.021 A 
HETATM   14  N   LIG     1       1.327  -0.092  -0.905  1.00  0.00    -0.345 N 
ENDROOT
BRANCH  14  15
HETATM   15  C   LIG     1       0.425  -0.910  -1.735  1.00  0.00     0.131 C 
BRANCH  15  16
HETATM   16  C   LIG     1      -0.248  -2.026  -0.917  1.00  0.00     0.050 C 
BRANCH  16  17
HETATM   17  C   LIG     1      -0.972  -1.504   0.337  1.00  0.00     0.274 C 
BRANCH  17  18
HETATM   18  N   LIG     1      -1.864  -0.365   0.026  1.00  0.00     0.091 N 
HETATM   19  C   LIG     1      -3.049  -0.798  -0.756  1.00  0.00     0.302 C 
HETATM   20  C   LIG     1      -4.201   0.205  -0.623  1.00  0.00     0.302 C 
HETATM   21  N   LIG     1      -4.676   0.289   0.777  1.00  0.00     0.087 N 
HETATM   22  C   LIG     1      -3.607   0.069   1.782  1.00  0.00     0.302 C 
HETATM   23  C   LIG     1      -5.376   1.563   1.006  1.00  0.00     0.310 C 
HETATM   24  C   LIG     1      -2.212   0.419   1.239  1.00  0.00     0.302 C 
ENDBRANCH  17  18
ENDBRANCH  16  17
ENDBRANCH  15  16
ENDBRANCH  14  15
BRANCH   1  25
HETATM   25  C   LIG     1       5.367  -3.086  -0.864  1.00  0.00     0.417 C 
HETATM   26  F   LIG     1       4.866  -3.517  -2.080  1.00  0.00    -0.166 F 
HETATM   27  F   LIG     1       5.499  -4.181  -0.029  1.00  0.00    -0.166 F 
HETATM   28  F   LIG     1       6.615  -2.527  -1.074  1.00  0.00    -0.166 F 
ENDBRANCH   1  25
TORSDOF 5
