REMARK  4 active torsions:
REMARK  status: ('A' for Active; 'I' for Inactive)
REMARK    1  A    between atoms: C_2  and  C_4 
REMARK    2  A    between atoms: C_2  and  O_3 
REMARK    3  A    between atoms: C_4  and  C_11 
REMARK    4  A    between atoms: C_4  and  C_5 
ROOT
HETATM    1  C   LIG     1       0.134  -0.025  -1.223  1.00  0.00     0.149 C 
ENDROOT
BRANCH   1   2
HETATM    2  C   LIG     1       0.221   1.234  -2.050  1.00  0.00     0.153 C 
HETATM    3  O   LIG     1      -0.270   1.251  -3.210  1.00  0.00    -0.649 OA
BRANCH   2   4
HETATM    4  O   LIG     1       0.797   2.392  -1.532  1.00  0.00    -0.776 OA
HETATM    5  H   LIG     1       0.840   3.242  -2.081  1.00  0.00     0.167 HD
ENDBRANCH   2   4
ENDBRANCH   1   2
BRANCH   1   6
HETATM    6  C   LIG     1      -1.222  -0.198  -0.557  1.00  0.00    -0.040 A 
HETATM    7  C   LIG     1      -1.721  -1.496  -0.345  1.00  0.00     0.008 A 
HETATM    8  C   LIG     1      -2.949  -1.689   0.294  1.00  0.00     0.001 A 
HETATM    9  C   LIG     1      -3.689  -0.591   0.738  1.00  0.00     0.000 A 
HETATM   10  C   LIG     1      -3.199   0.703   0.547  1.00  0.00     0.001 A 
HETATM   11  C   LIG     1      -1.972   0.902  -0.091  1.00  0.00     0.008 A 
ENDBRANCH   1   6
BRANCH   1  12
HETATM   12  C   LIG     1       1.257  -0.117  -0.205  1.00  0.00    -0.040 A 
HETATM   13  C   LIG     1       2.284  -1.064  -0.376  1.00  0.00     0.008 A 
HETATM   14  C   LIG     1       3.323  -1.160   0.556  1.00  0.00     0.001 A 
HETATM   15  C   LIG     1       3.349  -0.313   1.666  1.00  0.00     0.000 A 
HETATM   16  C   LIG     1       2.337   0.632   1.847  1.00  0.00     0.001 A 
HETATM   17  C   LIG     1       1.297   0.732   0.919  1.00  0.00     0.008 A 
ENDBRANCH   1  12
TORSDOF 4
