MODEL 1
REMARK VINA RESULT:      -9.3      0.000      0.000
REMARK  5 active torsions:
REMARK  status: ('A' for Active; 'I' for Inactive)
REMARK    1  A    between atoms: C_2  and  C_5 
REMARK    2  A    between atoms: N_18  and  C_19 
REMARK    3  A    between atoms: C_19  and  C_20 
REMARK    4  A    between atoms: C_20  and  C_21 
REMARK    5  A    between atoms: C_21  and  N_22 
ROOT
HETATM    1  C   LIG     1      17.679  36.041  25.513  1.00  0.00     0.050 A 
HETATM    2  C   LIG     1      17.591  35.658  24.161  1.00  0.00     0.047 A 
HETATM    3  C   LIG     1      17.328  36.613  23.163  1.00  0.00     0.053 A 
HETATM    4  C   LIG     1      17.140  37.957  23.531  1.00  0.00     0.032 A 
HETATM    5  C   LIG     1      17.253  38.345  24.867  1.00  0.00     0.022 A 
HETATM    6  C   LIG     1      17.520  37.394  25.853  1.00  0.00     0.017 A 
HETATM    7  S   LIG     1      16.647  39.156  22.288  1.00  0.00    -0.086 SA
HETATM    8  C   LIG     1      17.862  38.592  21.094  1.00  0.00     0.032 A 
HETATM    9  C   LIG     1      18.025  37.211  20.868  1.00  0.00     0.052 A 
HETATM   10  C   LIG     1      18.926  36.782  19.877  1.00  0.00     0.031 A 
HETATM   11  C   LIG     1      19.637  37.717  19.119  1.00  0.00     0.002 A 
HETATM   12  C   LIG     1      19.475  39.084  19.358  1.00  0.00     0.002 A 
HETATM   13  C   LIG     1      18.593  39.522  20.348  1.00  0.00     0.021 A 
HETATM   14  N   LIG     1      17.393  36.268  21.760  1.00  0.00    -0.345 N 
ENDROOT
BRANCH  14  15
HETATM   15  C   LIG     1      16.839  35.001  21.250  1.00  0.00     0.131 C 
BRANCH  15  16
HETATM   16  C   LIG     1      15.454  35.201  20.611  1.00  0.00     0.050 C 
BRANCH  16  17
HETATM   17  C   LIG     1      15.491  35.194  19.072  1.00  0.00     0.274 C 
BRANCH  17  18
HETATM   18  N   LIG     1      15.637  33.825  18.529  1.00  0.00     0.091 N 
HETATM   19  C   LIG     1      14.947  32.825  19.381  1.00  0.00     0.302 C 
HETATM   20  C   LIG     1      14.629  31.548  18.594  1.00  0.00     0.302 C 
HETATM   21  N   LIG     1      13.684  31.825  17.488  1.00  0.00     0.087 N 
HETATM   22  C   LIG     1      13.833  33.180  16.904  1.00  0.00     0.302 C 
HETATM   23  C   LIG     1      13.782  30.780  16.456  1.00  0.00     0.310 C 
HETATM   24  C   LIG     1      15.249  33.749  17.097  1.00  0.00     0.302 C 
ENDBRANCH  17  18
ENDBRANCH  16  17
ENDBRANCH  15  16
ENDBRANCH  14  15
BRANCH   1  25
HETATM   25  C   LIG     1      17.963  35.037  26.603  1.00  0.00     0.417 C 
HETATM   26  F   LIG     1      18.950  34.140  26.231  1.00  0.00    -0.166 F 
HETATM   27  F   LIG     1      16.809  34.329  26.888  1.00  0.00    -0.166 F 
HETATM   28  F   LIG     1      18.377  35.701  27.743  1.00  0.00    -0.166 F 
ENDBRANCH   1  25
TORSDOF 5
ENDMDL
