REMARK  6 active torsions:
REMARK  status: ('A' for Active; 'I' for Inactive)
REMARK    1  A    between atoms: C_13  and  O_14 
REMARK    2  A    between atoms: C_22  and  C_27 
REMARK    3  A    between atoms: C_22  and  O_23 
REMARK    4  A    between atoms: O_23  and  C_24 
REMARK    5  A    between atoms: C_27  and  C_28 
REMARK    6  A    between atoms: C_28  and  O_29 
ROOT
HETATM    1  O   LIG     1      -6.537  -0.151  -2.363  1.00  0.00    -0.289 OA
HETATM    2  C   LIG     1      -5.562  -0.242  -1.573  1.00  0.00     0.172 C 
HETATM    3  C   LIG     1      -4.928  -1.537  -1.334  1.00  0.00     0.052 C 
HETATM    4  C   LIG     1      -3.931  -1.654  -0.455  1.00  0.00    -0.006 C 
HETATM    5  C   LIG     1      -3.468  -0.508   0.447  1.00  0.00     0.036 C 
HETATM    6  C   LIG     1      -4.074  -0.821   1.838  1.00  0.00     0.028 C 
HETATM    7  C   LIG     1      -4.048   0.851  -0.004  1.00  0.00    -0.061 C 
HETATM    8  C   LIG     1      -3.324   2.101   0.438  1.00  0.00     0.036 C 
HETATM    9  C   LIG     1      -1.880   2.117  -0.111  1.00  0.00     0.013 C 
HETATM   10  C   LIG     1      -1.356   0.699  -0.478  1.00  0.00     0.035 C 
HETATM   11  C   LIG     1      -1.872  -0.373   0.541  1.00  0.00     0.147 C 
HETATM   12  F   LIG     1      -1.610   0.121   1.808  1.00  0.00    -0.238 F 
HETATM   13  C   LIG     1      -1.044  -1.707   0.423  1.00  0.00     0.160 C 
HETATM   14  C   LIG     1       0.508  -1.530   0.583  1.00  0.00     0.048 C 
HETATM   15  C   LIG     1       1.054  -0.081   0.314  1.00  0.00     0.002 C 
HETATM   16  C   LIG     1       1.048   0.723   1.672  1.00  0.00     0.019 C 
HETATM   17  C   LIG     1       0.179   0.593  -0.764  1.00  0.00     0.005 C 
HETATM   18  C   LIG     1       0.956   1.832  -1.208  1.00  0.00     0.013 C 
HETATM   19  C   LIG     1       2.452   1.463  -1.031  1.00  0.00     0.026 C 
HETATM   20  C   LIG     1       3.183   2.579  -0.254  1.00  0.00     0.013 C 
HETATM   21  C   LIG     1       2.487   0.029  -0.360  1.00  0.00     0.144 C 
HETATM   22  C   LIG     1      -5.032   0.950  -0.912  1.00  0.00     0.058 C 
ENDROOT
BRANCH  21  23
HETATM   23  C   LIG     1       2.715  -1.057  -1.439  1.00  0.00     0.186 C 
HETATM   24  O   LIG     1       2.353  -0.870  -2.592  1.00  0.00    -0.292 OA
BRANCH  23  25
HETATM   25  C   LIG     1       3.386  -2.373  -1.121  1.00  0.00     0.245 C 
BRANCH  25  26
HETATM   26  O   LIG     1       2.650  -3.425  -1.684  1.00  0.00    -0.393 OA
HETATM   27  H   LIG     1       3.116  -4.262  -1.418  1.00  0.00     0.209 HD
ENDBRANCH  25  26
ENDBRANCH  23  25
ENDBRANCH  21  23
BRANCH  21  28
HETATM   28  O   LIG     1       3.523  -0.082   0.635  1.00  0.00    -0.301 OA
BRANCH  28  29
HETATM   29  C   LIG     1       4.904  -0.032   0.390  1.00  0.00     0.256 C 
HETATM   30  C   LIG     1       5.848  -0.120   1.539  1.00  0.00     0.126 C 
HETATM   31  O   LIG     1       5.355   0.128  -0.777  1.00  0.00    -0.266 OA
ENDBRANCH  28  29
ENDBRANCH  21  28
BRANCH  13  32
HETATM   32  O   LIG     1      -1.307  -2.408  -0.770  1.00  0.00    -0.392 OA
HETATM   33  H   LIG     1      -1.072  -1.829  -1.536  1.00  0.00     0.210 HD
ENDBRANCH  13  32
TORSDOF 6
