MODEL 1
REMARK VINA RESULT:      -5.1      0.000      0.000
REMARK  6 active torsions:
REMARK  status: ('A' for Active; 'I' for Inactive)
REMARK    1  A    between atoms: C_13  and  O_14 
REMARK    2  A    between atoms: C_22  and  C_27 
REMARK    3  A    between atoms: C_22  and  O_23 
REMARK    4  A    between atoms: O_23  and  C_24 
REMARK    5  A    between atoms: C_27  and  C_28 
REMARK    6  A    between atoms: C_28  and  O_29 
ROOT
HETATM    1  O   LIG     1      21.682  18.398  14.967  1.00  0.00    -0.289 OA
HETATM    2  C   LIG     1      22.553  18.682  15.830  1.00  0.00     0.172 C 
HETATM    3  C   LIG     1      23.934  18.238  15.655  1.00  0.00     0.052 C 
HETATM    4  C   LIG     1      24.851  18.485  16.592  1.00  0.00    -0.006 C 
HETATM    5  C   LIG     1      24.520  19.116  17.946  1.00  0.00     0.036 C 
HETATM    6  C   LIG     1      24.525  17.938  18.951  1.00  0.00     0.028 C 
HETATM    7  C   LIG     1      23.100  19.724  17.967  1.00  0.00    -0.061 C 
HETATM    8  C   LIG     1      22.809  20.786  19.000  1.00  0.00     0.036 C 
HETATM    9  C   LIG     1      23.730  22.010  18.796  1.00  0.00     0.013 C 
HETATM   10  C   LIG     1      25.026  21.668  18.007  1.00  0.00     0.035 C 
HETATM   11  C   LIG     1      25.564  20.249  18.396  1.00  0.00     0.147 C 
HETATM   12  F   LIG     1      25.599  20.200  19.779  1.00  0.00    -0.238 F 
HETATM   13  C   LIG     1      27.054  20.062  17.923  1.00  0.00     0.160 C 
HETATM   14  C   LIG     1      28.047  21.163  18.440  1.00  0.00     0.048 C 
HETATM   15  C   LIG     1      27.384  22.518  18.880  1.00  0.00     0.002 C 
HETATM   16  C   LIG     1      27.030  22.435  20.415  1.00  0.00     0.019 C 
HETATM   17  C   LIG     1      26.135  22.772  18.009  1.00  0.00     0.005 C 
HETATM   18  C   LIG     1      25.754  24.232  18.254  1.00  0.00     0.013 C 
HETATM   19  C   LIG     1      27.089  24.959  18.558  1.00  0.00     0.026 C 
HETATM   20  C   LIG     1      26.948  25.807  19.841  1.00  0.00     0.013 C 
HETATM   21  C   LIG     1      28.212  23.843  18.599  1.00  0.00     0.144 C 
HETATM   22  C   LIG     1      22.200  19.487  16.999  1.00  0.00     0.058 C 
ENDROOT
BRANCH  21  23
HETATM   23  C   LIG     1      28.961  23.794  17.245  1.00  0.00     0.186 C 
HETATM   24  O   LIG     1      29.893  23.020  17.081  1.00  0.00    -0.292 OA
BRANCH  23  25
HETATM   25  C   LIG     1      28.577  24.683  16.085  1.00  0.00     0.245 C 
BRANCH  25  26
HETATM   26  O   LIG     1      29.371  25.838  16.094  1.00  0.00    -0.393 OA
HETATM   27  H   LIG     1      29.981  25.761  15.313  1.00  0.00     0.209 HD
ENDBRANCH  25  26
ENDBRANCH  23  25
ENDBRANCH  21  23
BRANCH  21  28
HETATM   28  O   LIG     1      29.171  24.072  19.650  1.00  0.00    -0.301 OA
BRANCH  28  29
HETATM   29  C   LIG     1      29.964  25.220  19.800  1.00  0.00     0.256 C 
HETATM   30  C   LIG     1      30.253  25.727  21.171  1.00  0.00     0.126 C 
HETATM   31  O   LIG     1      30.399  25.850  18.798  1.00  0.00    -0.266 OA
ENDBRANCH  28  29
ENDBRANCH  21  28
BRANCH  13  32
HETATM   32  O   LIG     1      27.172  19.956  16.523  1.00  0.00    -0.392 OA
HETATM   33  H   LIG     1      26.890  19.049  16.250  1.00  0.00     0.210 HD
ENDBRANCH  13  32
TORSDOF 6
ENDMDL
MODEL 2
REMARK VINA RESULT:      -5.0      5.834      7.573
REMARK  6 active torsions:
REMARK  status: ('A' for Active; 'I' for Inactive)
REMARK    1  A    between atoms: C_13  and  O_14 
REMARK    2  A    between atoms: C_22  and  C_27 
REMARK    3  A    between atoms: C_22  and  O_23 
REMARK    4  A    between atoms: O_23  and  C_24 
REMARK    5  A    between atoms: C_27  and  C_28 
REMARK    6  A    between atoms: C_28  and  O_29 
ROOT
HETATM    1  O   LIG     1      19.589  20.459  28.289  1.00  0.00    -0.289 OA
HETATM    2  C   LIG     1      20.586  20.150  27.586  1.00  0.00     0.172 C 
HETATM    3  C   LIG     1      20.502  19.043  26.637  1.00  0.00     0.052 C 
HETATM    4  C   LIG     1      21.571  18.671  25.929  1.00  0.00    -0.006 C 
HETATM    5  C   LIG     1      22.965  19.266  26.139  1.00  0.00     0.036 C 
HETATM    6  C   LIG     1      23.741  18.196  26.946  1.00  0.00     0.028 C 
HETATM    7  C   LIG     1      22.922  20.544  27.005  1.00  0.00    -0.061 C 
HETATM    8  C   LIG     1      24.083  21.504  26.893  1.00  0.00     0.036 C 
HETATM    9  C   LIG     1      24.208  22.042  25.451  1.00  0.00     0.013 C 
HETATM   10  C   LIG     1      23.532  21.116  24.399  1.00  0.00     0.035 C 
HETATM   11  C   LIG     1      23.727  19.607  24.769  1.00  0.00     0.147 C 
HETATM   12  F   LIG     1      25.075  19.431  25.035  1.00  0.00    -0.238 F 
HETATM   13  C   LIG     1      23.410  18.679  23.537  1.00  0.00     0.160 C 
HETATM   14  C   LIG     1      24.227  19.014  22.238  1.00  0.00     0.048 C 
HETATM   15  C   LIG     1      24.815  20.470  22.167  1.00  0.00     0.002 C 
HETATM   16  C   LIG     1      26.259  20.465  22.804  1.00  0.00     0.019 C 
HETATM   17  C   LIG     1      23.860  21.434  22.902  1.00  0.00     0.005 C 
HETATM   18  C   LIG     1      24.309  22.840  22.504  1.00  0.00     0.013 C 
HETATM   19  C   LIG     1      24.894  22.695  21.075  1.00  0.00     0.026 C 
HETATM   20  C   LIG     1      26.279  23.373  21.000  1.00  0.00     0.013 C 
HETATM   21  C   LIG     1      24.872  21.148  20.733  1.00  0.00     0.144 C 
HETATM   22  C   LIG     1      21.827  20.917  27.688  1.00  0.00     0.058 C 
ENDROOT
BRANCH  21  23
HETATM   23  C   LIG     1      23.629  20.812  19.873  1.00  0.00     0.186 C 
HETATM   24  O   LIG     1      23.341  19.649  19.630  1.00  0.00    -0.292 OA
BRANCH  23  25
HETATM   25  C   LIG     1      22.732  21.889  19.309  1.00  0.00     0.245 C 
BRANCH  25  26
HETATM   26  O   LIG     1      23.090  22.151  17.979  1.00  0.00    -0.393 OA
HETATM   27  H   LIG     1      23.333  21.273  17.580  1.00  0.00     0.209 HD
ENDBRANCH  25  26
ENDBRANCH  23  25
ENDBRANCH  21  23
BRANCH  21  28
HETATM   28  O   LIG     1      26.054  20.731  20.023  1.00  0.00    -0.301 OA
BRANCH  28  29
HETATM   29  C   LIG     1      26.189  20.659  18.628  1.00  0.00     0.256 C 
HETATM   30  C   LIG     1      26.435  19.335  17.990  1.00  0.00     0.126 C 
HETATM   31  O   LIG     1      26.149  21.698  17.913  1.00  0.00    -0.266 OA
ENDBRANCH  28  29
ENDBRANCH  21  28
BRANCH  13  32
HETATM   32  O   LIG     1      22.038  18.642  23.221  1.00  0.00    -0.392 OA
HETATM   33  H   LIG     1      21.775  17.702  23.063  1.00  0.00     0.210 HD
ENDBRANCH  13  32
TORSDOF 6
ENDMDL
MODEL 3
REMARK VINA RESULT:      -5.0      4.626      6.447
REMARK  6 active torsions:
REMARK  status: ('A' for Active; 'I' for Inactive)
REMARK    1  A    between atoms: C_13  and  O_14 
REMARK    2  A    between atoms: C_22  and  C_27 
REMARK    3  A    between atoms: C_22  and  O_23 
REMARK    4  A    between atoms: O_23  and  C_24 
REMARK    5  A    between atoms: C_27  and  C_28 
REMARK    6  A    between atoms: C_28  and  O_29 
ROOT
HETATM    1  O   LIG     1      26.302  18.158  15.852  1.00  0.00    -0.289 OA
HETATM    2  C   LIG     1      25.635  18.766  16.728  1.00  0.00     0.172 C 
HETATM    3  C   LIG     1      24.665  18.042  17.547  1.00  0.00     0.052 C 
HETATM    4  C   LIG     1      23.912  18.687  18.439  1.00  0.00    -0.006 C 
HETATM    5  C   LIG     1      23.903  20.210  18.586  1.00  0.00     0.036 C 
HETATM    6  C   LIG     1      22.601  20.674  17.885  1.00  0.00     0.028 C 
HETATM    7  C   LIG     1      25.081  20.868  17.833  1.00  0.00    -0.061 C 
HETATM    8  C   LIG     1      25.504  22.251  18.270  1.00  0.00     0.036 C 
HETATM    9  C   LIG     1      25.970  22.238  19.743  1.00  0.00     0.013 C 
HETATM   10  C   LIG     1      25.403  21.033  20.547  1.00  0.00     0.035 C 
HETATM   11  C   LIG     1      23.935  20.706  20.111  1.00  0.00     0.147 C 
HETATM   12  F   LIG     1      23.236  21.902  20.133  1.00  0.00    -0.238 F 
HETATM   13  C   LIG     1      23.226  19.779  21.168  1.00  0.00     0.160 C 
HETATM   14  C   LIG     1      23.230  20.338  22.636  1.00  0.00     0.048 C 
HETATM   15  C   LIG     1      24.335  21.411  22.947  1.00  0.00     0.002 C 
HETATM   16  C   LIG     1      23.750  22.845  22.641  1.00  0.00     0.019 C 
HETATM   17  C   LIG     1      25.588  21.102  22.099  1.00  0.00     0.005 C 
HETATM   18  C   LIG     1      26.707  21.957  22.694  1.00  0.00     0.013 C 
HETATM   19  C   LIG     1      26.364  22.092  24.200  1.00  0.00     0.026 C 
HETATM   20  C   LIG     1      26.440  23.574  24.628  1.00  0.00     0.013 C 
HETATM   21  C   LIG     1      24.958  21.394  24.407  1.00  0.00     0.144 C 
HETATM   22  C   LIG     1      25.846  20.194  16.960  1.00  0.00     0.058 C 
ENDROOT
BRANCH  21  23
HETATM   23  C   LIG     1      25.153  19.956  24.947  1.00  0.00     0.186 C 
HETATM   24  O   LIG     1      24.209  19.180  24.996  1.00  0.00    -0.292 OA
BRANCH  23  25
HETATM   25  C   LIG     1      26.496  19.457  25.425  1.00  0.00     0.245 C 
BRANCH  25  26
HETATM   26  O   LIG     1      26.574  19.578  26.820  1.00  0.00    -0.393 OA
HETATM   27  H   LIG     1      25.655  19.798  27.130  1.00  0.00     0.209 HD
ENDBRANCH  25  26
ENDBRANCH  23  25
ENDBRANCH  21  23
BRANCH  21  28
HETATM   28  O   LIG     1      24.117  22.122  25.323  1.00  0.00    -0.301 OA
BRANCH  28  29
HETATM   29  C   LIG     1      23.999  21.877  26.700  1.00  0.00     0.256 C 
HETATM   30  C   LIG     1      22.690  21.422  27.246  1.00  0.00     0.126 C 
HETATM   31  O   LIG     1      24.968  22.075  27.484  1.00  0.00    -0.266 OA
ENDBRANCH  28  29
ENDBRANCH  21  28
BRANCH  13  32
HETATM   32  O   LIG     1      23.740  18.468  21.174  1.00  0.00    -0.392 OA
HETATM   33  H   LIG     1      23.014  17.842  20.928  1.00  0.00     0.210 HD
ENDBRANCH  13  32
TORSDOF 6
ENDMDL
MODEL 4
REMARK VINA RESULT:      -5.0      3.934      7.556
REMARK  6 active torsions:
REMARK  status: ('A' for Active; 'I' for Inactive)
REMARK    1  A    between atoms: C_13  and  O_14 
REMARK    2  A    between atoms: C_22  and  C_27 
REMARK    3  A    between atoms: C_22  and  O_23 
REMARK    4  A    between atoms: O_23  and  C_24 
REMARK    5  A    between atoms: C_27  and  C_28 
REMARK    6  A    between atoms: C_28  and  O_29 
ROOT
HETATM    1  O   LIG     1      29.363  28.057  18.255  1.00  0.00    -0.289 OA
HETATM    2  C   LIG     1      29.160  26.867  18.606  1.00  0.00     0.172 C 
HETATM    3  C   LIG     1      29.974  26.263  19.660  1.00  0.00     0.052 C 
HETATM    4  C   LIG     1      29.806  24.984  20.000  1.00  0.00    -0.006 C 
HETATM    5  C   LIG     1      28.870  24.032  19.252  1.00  0.00     0.036 C 
HETATM    6  C   LIG     1      29.801  23.163  18.370  1.00  0.00     0.028 C 
HETATM    7  C   LIG     1      27.920  24.789  18.297  1.00  0.00    -0.061 C 
HETATM    8  C   LIG     1      26.645  24.093  17.882  1.00  0.00     0.036 C 
HETATM    9  C   LIG     1      25.764  23.790  19.114  1.00  0.00     0.013 C 
HETATM   10  C   LIG     1      26.573  23.751  20.442  1.00  0.00     0.035 C 
HETATM   11  C   LIG     1      27.985  23.111  20.223  1.00  0.00     0.147 C 
HETATM   12  F   LIG     1      27.784  21.925  19.536  1.00  0.00    -0.238 F 
HETATM   13  C   LIG     1      28.639  22.704  21.596  1.00  0.00     0.160 C 
HETATM   14  C   LIG     1      27.759  21.752  22.483  1.00  0.00     0.048 C 
HETATM   15  C   LIG     1      26.221  21.761  22.163  1.00  0.00     0.002 C 
HETATM   16  C   LIG     1      25.922  20.656  21.076  1.00  0.00     0.019 C 
HETATM   17  C   LIG     1      25.816  23.171  21.684  1.00  0.00     0.005 C 
HETATM   18  C   LIG     1      24.288  23.195  21.721  1.00  0.00     0.013 C 
HETATM   19  C   LIG     1      23.891  22.232  22.870  1.00  0.00     0.026 C 
HETATM   20  C   LIG     1      22.813  21.241  22.380  1.00  0.00     0.013 C 
HETATM   21  C   LIG     1      25.234  21.574  23.392  1.00  0.00     0.144 C 
HETATM   22  C   LIG     1      28.089  26.085  17.990  1.00  0.00     0.058 C 
ENDROOT
BRANCH  21  23
HETATM   23  C   LIG     1      25.728  22.311  24.661  1.00  0.00     0.186 C 
HETATM   24  O   LIG     1      26.827  22.060  25.134  1.00  0.00    -0.292 OA
BRANCH  23  25
HETATM   25  C   LIG     1      24.888  23.358  25.356  1.00  0.00     0.245 C 
BRANCH  25  26
HETATM   26  O   LIG     1      24.309  22.807  26.508  1.00  0.00    -0.393 OA
HETATM   27  H   LIG     1      24.126  23.571  27.118  1.00  0.00     0.209 HD
ENDBRANCH  25  26
ENDBRANCH  23  25
ENDBRANCH  21  23
BRANCH  21  28
HETATM   28  O   LIG     1      25.072  20.177  23.702  1.00  0.00    -0.301 OA
BRANCH  28  29
HETATM   29  C   LIG     1      24.756  19.647  24.963  1.00  0.00     0.256 C 
HETATM   30  C   LIG     1      25.705  18.699  25.610  1.00  0.00     0.126 C 
HETATM   31  O   LIG     1      23.667  19.927  25.534  1.00  0.00    -0.266 OA
ENDBRANCH  28  29
ENDBRANCH  21  28
BRANCH  13  32
HETATM   32  O   LIG     1      29.031  23.817  22.365  1.00  0.00    -0.392 OA
HETATM   33  H   LIG     1      28.280  24.075  22.954  1.00  0.00     0.210 HD
ENDBRANCH  13  32
TORSDOF 6
ENDMDL
MODEL 5
REMARK VINA RESULT:      -4.8      5.339      9.074
REMARK  6 active torsions:
REMARK  status: ('A' for Active; 'I' for Inactive)
REMARK    1  A    between atoms: C_13  and  O_14 
REMARK    2  A    between atoms: C_22  and  C_27 
REMARK    3  A    between atoms: C_22  and  O_23 
REMARK    4  A    between atoms: O_23  and  C_24 
REMARK    5  A    between atoms: C_27  and  C_28 
REMARK    6  A    between atoms: C_28  and  O_29 
ROOT
HETATM    1  O   LIG     1      27.570  26.382  28.689  1.00  0.00    -0.289 OA
HETATM    2  C   LIG     1      27.466  25.309  28.040  1.00  0.00     0.172 C 
HETATM    3  C   LIG     1      26.382  24.375  28.333  1.00  0.00     0.052 C 
HETATM    4  C   LIG     1      26.297  23.209  27.689  1.00  0.00    -0.006 C 
HETATM    5  C   LIG     1      27.366  22.707  26.716  1.00  0.00     0.036 C 
HETATM    6  C   LIG     1      28.168  21.647  27.512  1.00  0.00     0.028 C 
HETATM    7  C   LIG     1      28.357  23.824  26.323  1.00  0.00    -0.061 C 
HETATM    8  C   LIG     1      29.133  23.650  25.038  1.00  0.00     0.036 C 
HETATM    9  C   LIG     1      28.174  23.567  23.830  1.00  0.00     0.013 C 
HETATM   10  C   LIG     1      26.733  23.138  24.229  1.00  0.00     0.035 C 
HETATM   11  C   LIG     1      26.760  22.070  25.374  1.00  0.00     0.147 C 
HETATM   12  F   LIG     1      27.658  21.089  24.984  1.00  0.00    -0.238 F 
HETATM   13  C   LIG     1      25.367  21.347  25.503  1.00  0.00     0.160 C 
HETATM   14  C   LIG     1      24.847  20.687  24.177  1.00  0.00     0.048 C 
HETATM   15  C   LIG     1      25.469  21.255  22.850  1.00  0.00     0.002 C 
HETATM   16  C   LIG     1      26.760  20.418  22.497  1.00  0.00     0.019 C 
HETATM   17  C   LIG     1      25.784  22.753  23.045  1.00  0.00     0.005 C 
HETATM   18  C   LIG     1      26.057  23.301  21.645  1.00  0.00     0.013 C 
HETATM   19  C   LIG     1      25.187  22.441  20.691  1.00  0.00     0.026 C 
HETATM   20  C   LIG     1      26.042  21.930  19.512  1.00  0.00     0.013 C 
HETATM   21  C   LIG     1      24.515  21.318  21.583  1.00  0.00     0.144 C 
HETATM   22  C   LIG     1      28.408  25.003  26.964  1.00  0.00     0.058 C 
ENDROOT
BRANCH  21  23
HETATM   23  C   LIG     1      23.070  21.728  21.954  1.00  0.00     0.186 C 
HETATM   24  O   LIG     1      22.408  21.040  22.719  1.00  0.00    -0.292 OA
BRANCH  23  25
HETATM   25  C   LIG     1      22.424  22.976  21.399  1.00  0.00     0.245 C 
BRANCH  25  26
HETATM   26  O   LIG     1      21.874  22.701  20.139  1.00  0.00    -0.393 OA
HETATM   27  H   LIG     1      21.877  21.711  20.046  1.00  0.00     0.209 HD
ENDBRANCH  25  26
ENDBRANCH  23  25
ENDBRANCH  21  23
BRANCH  21  28
HETATM   28  O   LIG     1      24.478  20.041  20.915  1.00  0.00    -0.301 OA
BRANCH  28  29
HETATM   29  C   LIG     1      23.408  19.545  20.154  1.00  0.00     0.256 C 
HETATM   30  C   LIG     1      22.747  18.278  20.573  1.00  0.00     0.126 C 
HETATM   31  O   LIG     1      23.028  20.130  19.104  1.00  0.00    -0.266 OA
ENDBRANCH  28  29
ENDBRANCH  21  28
BRANCH  13  32
HETATM   32  O   LIG     1      24.364  22.186  26.024  1.00  0.00    -0.392 OA
HETATM   33  H   LIG     1      24.795  22.957  26.469  1.00  0.00     0.210 HD
ENDBRANCH  13  32
TORSDOF 6
ENDMDL
MODEL 6
REMARK VINA RESULT:      -4.6      4.177      6.024
REMARK  6 active torsions:
REMARK  status: ('A' for Active; 'I' for Inactive)
REMARK    1  A    between atoms: C_13  and  O_14 
REMARK    2  A    between atoms: C_22  and  C_27 
REMARK    3  A    between atoms: C_22  and  O_23 
REMARK    4  A    between atoms: O_23  and  C_24 
REMARK    5  A    between atoms: C_27  and  C_28 
REMARK    6  A    between atoms: C_28  and  O_29 
ROOT
HETATM    1  O   LIG     1      23.151  18.133  16.621  1.00  0.00    -0.289 OA
HETATM    2  C   LIG     1      23.505  19.122  17.315  1.00  0.00     0.172 C 
HETATM    3  C   LIG     1      22.547  19.776  18.203  1.00  0.00     0.052 C 
HETATM    4  C   LIG     1      22.896  20.859  18.900  1.00  0.00    -0.006 C 
HETATM    5  C   LIG     1      24.242  21.566  18.734  1.00  0.00     0.036 C 
HETATM    6  C   LIG     1      23.935  22.820  17.878  1.00  0.00     0.028 C 
HETATM    7  C   LIG     1      25.249  20.709  17.936  1.00  0.00    -0.061 C 
HETATM    8  C   LIG     1      26.719  21.015  18.109  1.00  0.00     0.036 C 
HETATM    9  C   LIG     1      27.148  20.813  19.579  1.00  0.00     0.013 C 
HETATM   10  C   LIG     1      25.955  20.894  20.575  1.00  0.00     0.035 C 
HETATM   11  C   LIG     1      24.922  21.983  20.127  1.00  0.00     0.147 C 
HETATM   12  F   LIG     1      25.643  23.135  19.864  1.00  0.00    -0.238 F 
HETATM   13  C   LIG     1      23.944  22.350  21.305  1.00  0.00     0.160 C 
HETATM   14  C   LIG     1      24.657  22.810  22.627  1.00  0.00     0.048 C 
HETATM   15  C   LIG     1      26.154  22.357  22.780  1.00  0.00     0.002 C 
HETATM   16  C   LIG     1      27.086  23.468  22.156  1.00  0.00     0.019 C 
HETATM   17  C   LIG     1      26.338  20.989  22.089  1.00  0.00     0.005 C 
HETATM   18  C   LIG     1      27.694  20.468  22.564  1.00  0.00     0.013 C 
HETATM   19  C   LIG     1      27.881  21.052  23.989  1.00  0.00     0.026 C 
HETATM   20  C   LIG     1      29.274  21.707  24.112  1.00  0.00     0.013 C 
HETATM   21  C   LIG     1      26.650  22.013  24.248  1.00  0.00     0.144 C 
HETATM   22  C   LIG     1      24.884  19.605  17.265  1.00  0.00     0.058 C 
ENDROOT
BRANCH  21  23
HETATM   23  C   LIG     1      25.569  21.280  25.078  1.00  0.00     0.186 C 
HETATM   24  O   LIG     1      24.460  21.773  25.225  1.00  0.00    -0.292 OA
BRANCH  23  25
HETATM   25  C   LIG     1      25.831  19.942  25.730  1.00  0.00     0.245 C 
BRANCH  25  26
HETATM   26  O   LIG     1      26.089  20.125  27.096  1.00  0.00    -0.393 OA
HETATM   27  H   LIG     1      25.734  19.318  27.555  1.00  0.00     0.209 HD
ENDBRANCH  25  26
ENDBRANCH  23  25
ENDBRANCH  21  23
BRANCH  21  28
HETATM   28  O   LIG     1      27.033  23.214  24.946  1.00  0.00    -0.301 OA
BRANCH  28  29
HETATM   29  C   LIG     1      27.002  23.400  26.337  1.00  0.00     0.256 C 
HETATM   30  C   LIG     1      26.137  24.471  26.906  1.00  0.00     0.126 C 
HETATM   31  O   LIG     1      27.723  22.707  27.105  1.00  0.00    -0.266 OA
ENDBRANCH  28  29
ENDBRANCH  21  28
BRANCH  13  32
HETATM   32  O   LIG     1      23.040  21.313  21.607  1.00  0.00    -0.392 OA
HETATM   33  H   LIG     1      23.428  20.456  21.303  1.00  0.00     0.210 HD
ENDBRANCH  13  32
TORSDOF 6
ENDMDL
MODEL 7
REMARK VINA RESULT:      -4.5      6.626      8.430
REMARK  6 active torsions:
REMARK  status: ('A' for Active; 'I' for Inactive)
REMARK    1  A    between atoms: C_13  and  O_14 
REMARK    2  A    between atoms: C_22  and  C_27 
REMARK    3  A    between atoms: C_22  and  O_23 
REMARK    4  A    between atoms: O_23  and  C_24 
REMARK    5  A    between atoms: C_27  and  C_28 
REMARK    6  A    between atoms: C_28  and  O_29 
ROOT
HETATM    1  O   LIG     1      21.684  23.172  20.880  1.00  0.00    -0.289 OA
HETATM    2  C   LIG     1      22.661  22.639  21.466  1.00  0.00     0.172 C 
HETATM    3  C   LIG     1      24.006  23.186  21.300  1.00  0.00     0.052 C 
HETATM    4  C   LIG     1      25.057  22.594  21.871  1.00  0.00    -0.006 C 
HETATM    5  C   LIG     1      24.967  21.260  22.614  1.00  0.00     0.036 C 
HETATM    6  C   LIG     1      25.535  20.210  21.627  1.00  0.00     0.028 C 
HETATM    7  C   LIG     1      23.504  20.860  22.907  1.00  0.00    -0.061 C 
HETATM    8  C   LIG     1      23.259  19.878  24.028  1.00  0.00     0.036 C 
HETATM    9  C   LIG     1      23.760  20.450  25.373  1.00  0.00     0.013 C 
HETATM   10  C   LIG     1      24.832  21.563  25.196  1.00  0.00     0.035 C 
HETATM   11  C   LIG     1      25.785  21.241  23.995  1.00  0.00     0.147 C 
HETATM   12  F   LIG     1      26.211  19.934  24.162  1.00  0.00    -0.238 F 
HETATM   13  C   LIG     1      27.086  22.125  24.055  1.00  0.00     0.160 C 
HETATM   14  C   LIG     1      27.883  22.025  25.404  1.00  0.00     0.048 C 
HETATM   15  C   LIG     1      27.057  21.517  26.641  1.00  0.00     0.002 C 
HETATM   16  C   LIG     1      27.171  19.945  26.716  1.00  0.00     0.019 C 
HETATM   17  C   LIG     1      25.594  21.987  26.495  1.00  0.00     0.005 C 
HETATM   18  C   LIG     1      24.951  21.759  27.862  1.00  0.00     0.013 C 
HETATM   19  C   LIG     1      26.099  21.933  28.890  1.00  0.00     0.026 C 
HETATM   20  C   LIG     1      26.114  20.742  29.872  1.00  0.00     0.013 C 
HETATM   21  C   LIG     1      27.427  22.143  28.052  1.00  0.00     0.144 C 
HETATM   22  C   LIG     1      22.458  21.488  22.345  1.00  0.00     0.058 C 
ENDROOT
BRANCH  21  23
HETATM   23  C   LIG     1      27.763  23.651  27.958  1.00  0.00     0.186 C 
HETATM   24  O   LIG     1      28.666  24.040  27.232  1.00  0.00    -0.292 OA
BRANCH  23  25
HETATM   25  C   LIG     1      26.999  24.691  28.744  1.00  0.00     0.245 C 
BRANCH  25  26
HETATM   26  O   LIG     1      26.184  25.432  27.877  1.00  0.00    -0.393 OA
HETATM   27  H   LIG     1      26.790  26.055  27.393  1.00  0.00     0.209 HD
ENDBRANCH  25  26
ENDBRANCH  23  25
ENDBRANCH  21  23
BRANCH  21  28
HETATM   28  O   LIG     1      28.551  21.453  28.631  1.00  0.00    -0.301 OA
BRANCH  28  29
HETATM   29  C   LIG     1      29.517  22.024  29.475  1.00  0.00     0.256 C 
HETATM   30  C   LIG     1      29.137  22.395  30.866  1.00  0.00     0.126 C 
HETATM   31  O   LIG     1      30.684  22.265  29.062  1.00  0.00    -0.266 OA
ENDBRANCH  28  29
ENDBRANCH  21  28
BRANCH  13  32
HETATM   32  O   LIG     1      26.837  23.481  23.767  1.00  0.00    -0.392 OA
HETATM   33  H   LIG     1      25.860  23.633  23.775  1.00  0.00     0.210 HD
ENDBRANCH  13  32
TORSDOF 6
ENDMDL
MODEL 8
REMARK VINA RESULT:      -4.5     16.053     17.801
REMARK  6 active torsions:
REMARK  status: ('A' for Active; 'I' for Inactive)
REMARK    1  A    between atoms: C_13  and  O_14 
REMARK    2  A    between atoms: C_22  and  C_27 
REMARK    3  A    between atoms: C_22  and  O_23 
REMARK    4  A    between atoms: O_23  and  C_24 
REMARK    5  A    between atoms: C_27  and  C_28 
REMARK    6  A    between atoms: C_28  and  O_29 
ROOT
HETATM    1  O   LIG     1      19.053  22.417  31.077  1.00  0.00    -0.289 OA
HETATM    2  C   LIG     1      19.620  22.033  32.132  1.00  0.00     0.172 C 
HETATM    3  C   LIG     1      20.222  20.703  32.200  1.00  0.00     0.052 C 
HETATM    4  C   LIG     1      20.775  20.264  33.332  1.00  0.00    -0.006 C 
HETATM    5  C   LIG     1      20.711  21.035  34.652  1.00  0.00     0.036 C 
HETATM    6  C   LIG     1      19.620  20.317  35.485  1.00  0.00     0.028 C 
HETATM    7  C   LIG     1      20.238  22.491  34.446  1.00  0.00    -0.061 C 
HETATM    8  C   LIG     1      20.590  23.498  35.516  1.00  0.00     0.036 C 
HETATM    9  C   LIG     1      22.123  23.626  35.661  1.00  0.00     0.013 C 
HETATM   10  C   LIG     1      22.887  22.380  35.128  1.00  0.00     0.035 C 
HETATM   11  C   LIG     1      22.105  21.061  35.446  1.00  0.00     0.147 C 
HETATM   12  F   LIG     1      21.772  21.107  36.789  1.00  0.00    -0.238 F 
HETATM   13  C   LIG     1      23.035  19.801  35.278  1.00  0.00     0.160 C 
HETATM   14  C   LIG     1      24.357  19.847  36.123  1.00  0.00     0.048 C 
HETATM   15  C   LIG     1      24.821  21.279  36.575  1.00  0.00     0.002 C 
HETATM   16  C   LIG     1      24.178  21.601  37.979  1.00  0.00     0.019 C 
HETATM   17  C   LIG     1      24.406  22.304  35.497  1.00  0.00     0.005 C 
HETATM   18  C   LIG     1      25.172  23.584  35.832  1.00  0.00     0.013 C 
HETATM   19  C   LIG     1      26.490  23.111  36.497  1.00  0.00     0.026 C 
HETATM   20  C   LIG     1      26.723  23.882  37.814  1.00  0.00     0.013 C 
HETATM   21  C   LIG     1      26.386  21.537  36.638  1.00  0.00     0.144 C 
HETATM   22  C   LIG     1      19.711  22.922  33.289  1.00  0.00     0.058 C 
ENDROOT
BRANCH  21  23
HETATM   23  C   LIG     1      27.143  20.849  35.476  1.00  0.00     0.186 C 
HETATM   24  O   LIG     1      26.931  19.675  35.209  1.00  0.00    -0.292 OA
BRANCH  23  25
HETATM   25  C   LIG     1      28.159  21.586  34.635  1.00  0.00     0.245 C 
BRANCH  25  26
HETATM   26  O   LIG     1      27.533  22.113  33.496  1.00  0.00    -0.393 OA
HETATM   27  H   LIG     1      28.216  22.675  33.040  1.00  0.00     0.209 HD
ENDBRANCH  25  26
ENDBRANCH  23  25
ENDBRANCH  21  23
BRANCH  21  28
HETATM   28  O   LIG     1      26.926  21.064  37.887  1.00  0.00    -0.301 OA
BRANCH  28  29
HETATM   29  C   LIG     1      28.188  20.478  38.065  1.00  0.00     0.256 C 
HETATM   30  C   LIG     1      29.392  21.353  38.129  1.00  0.00     0.126 C 
HETATM   31  O   LIG     1      28.324  19.226  38.129  1.00  0.00    -0.266 OA
ENDBRANCH  28  29
ENDBRANCH  21  28
BRANCH  13  32
HETATM   32  O   LIG     1      23.356  19.535  33.933  1.00  0.00    -0.392 OA
HETATM   33  H   LIG     1      24.296  19.232  33.886  1.00  0.00     0.210 HD
ENDBRANCH  13  32
TORSDOF 6
ENDMDL
MODEL 9
REMARK VINA RESULT:      -4.4      5.891      8.358
REMARK  6 active torsions:
REMARK  status: ('A' for Active; 'I' for Inactive)
REMARK    1  A    between atoms: C_13  and  O_14 
REMARK    2  A    between atoms: C_22  and  C_27 
REMARK    3  A    between atoms: C_22  and  O_23 
REMARK    4  A    between atoms: O_23  and  C_24 
REMARK    5  A    between atoms: C_27  and  C_28 
REMARK    6  A    between atoms: C_28  and  O_29 
ROOT
HETATM    1  O   LIG     1      25.952  25.942  19.032  1.00  0.00    -0.289 OA
HETATM    2  C   LIG     1      26.297  25.009  19.801  1.00  0.00     0.172 C 
HETATM    3  C   LIG     1      27.616  25.023  20.430  1.00  0.00     0.052 C 
HETATM    4  C   LIG     1      28.013  24.009  21.202  1.00  0.00    -0.006 C 
HETATM    5  C   LIG     1      27.201  22.725  21.384  1.00  0.00     0.036 C 
HETATM    6  C   LIG     1      27.906  21.674  20.490  1.00  0.00     0.028 C 
HETATM    7  C   LIG     1      25.758  22.875  20.853  1.00  0.00    -0.061 C 
HETATM    8  C   LIG     1      24.714  21.924  21.390  1.00  0.00     0.036 C 
HETATM    9  C   LIG     1      24.562  22.087  22.918  1.00  0.00     0.013 C 
HETATM   10  C   LIG     1      25.815  22.724  23.586  1.00  0.00     0.035 C 
HETATM   11  C   LIG     1      27.133  22.222  22.906  1.00  0.00     0.147 C 
HETATM   12  F   LIG     1      27.049  20.841  22.842  1.00  0.00    -0.238 F 
HETATM   13  C   LIG     1      28.386  22.532  23.807  1.00  0.00     0.160 C 
HETATM   14  C   LIG     1      28.297  21.966  25.269  1.00  0.00     0.048 C 
HETATM   15  C   LIG     1      26.845  21.655  25.786  1.00  0.00     0.002 C 
HETATM   16  C   LIG     1      26.488  20.161  25.425  1.00  0.00     0.019 C 
HETATM   17  C   LIG     1      25.861  22.659  25.149  1.00  0.00     0.005 C 
HETATM   18  C   LIG     1      24.561  22.518  25.942  1.00  0.00     0.013 C 
HETATM   19  C   LIG     1      24.997  22.111  27.374  1.00  0.00     0.026 C 
HETATM   20  C   LIG     1      24.182  20.889  27.847  1.00  0.00     0.013 C 
HETATM   21  C   LIG     1      26.567  21.908  27.328  1.00  0.00     0.144 C 
HETATM   22  C   LIG     1      25.370  23.918  20.102  1.00  0.00     0.058 C 
ENDROOT
BRANCH  21  23
HETATM   23  C   LIG     1      27.282  23.176  27.855  1.00  0.00     0.186 C 
HETATM   24  O   LIG     1      28.480  23.333  27.669  1.00  0.00    -0.292 OA
BRANCH  23  25
HETATM   25  C   LIG     1      26.543  24.257  28.608  1.00  0.00     0.245 C 
BRANCH  25  26
HETATM   26  O   LIG     1      26.132  25.257  27.715  1.00  0.00    -0.393 OA
HETATM   27  H   LIG     1      25.353  25.705  28.140  1.00  0.00     0.209 HD
ENDBRANCH  25  26
ENDBRANCH  23  25
ENDBRANCH  21  23
BRANCH  21  28
HETATM   28  O   LIG     1      26.993  20.777  28.111  1.00  0.00    -0.301 OA
BRANCH  28  29
HETATM   29  C   LIG     1      27.514  20.830  29.413  1.00  0.00     0.256 C 
HETATM   30  C   LIG     1      26.579  20.971  30.563  1.00  0.00     0.126 C 
HETATM   31  O   LIG     1      28.758  20.802  29.620  1.00  0.00    -0.266 OA
ENDBRANCH  28  29
ENDBRANCH  21  28
BRANCH  13  32
HETATM   32  O   LIG     1      28.690  23.906  23.863  1.00  0.00    -0.392 OA
HETATM   33  H   LIG     1      27.853  24.410  24.020  1.00  0.00     0.210 HD
ENDBRANCH  13  32
TORSDOF 6
ENDMDL
MODEL 10
REMARK VINA RESULT:      -4.1      4.788      6.328
REMARK  6 active torsions:
REMARK  status: ('A' for Active; 'I' for Inactive)
REMARK    1  A    between atoms: C_13  and  O_14 
REMARK    2  A    between atoms: C_22  and  C_27 
REMARK    3  A    between atoms: C_22  and  O_23 
REMARK    4  A    between atoms: O_23  and  C_24 
REMARK    5  A    between atoms: C_27  and  C_28 
REMARK    6  A    between atoms: C_28  and  O_29 
ROOT
HETATM    1  O   LIG     1      23.264  22.381  17.882  1.00  0.00    -0.289 OA
HETATM    2  C   LIG     1      23.878  21.895  18.866  1.00  0.00     0.172 C 
HETATM    3  C   LIG     1      25.331  21.742  18.824  1.00  0.00     0.052 C 
HETATM    4  C   LIG     1      25.985  21.174  19.839  1.00  0.00    -0.006 C 
HETATM    5  C   LIG     1      25.281  20.535  21.039  1.00  0.00     0.036 C 
HETATM    6  C   LIG     1      25.356  19.009  20.783  1.00  0.00     0.028 C 
HETATM    7  C   LIG     1      23.784  20.912  21.096  1.00  0.00    -0.061 C 
HETATM    8  C   LIG     1      23.085  20.795  22.430  1.00  0.00     0.036 C 
HETATM    9  C   LIG     1      23.739  21.729  23.472  1.00  0.00     0.013 C 
HETATM   10  C   LIG     1      25.201  22.114  23.106  1.00  0.00     0.035 C 
HETATM   11  C   LIG     1      25.953  20.908  22.447  1.00  0.00     0.147 C 
HETATM   12  F   LIG     1      25.743  19.811  23.266  1.00  0.00    -0.238 F 
HETATM   13  C   LIG     1      27.509  21.148  22.444  1.00  0.00     0.160 C 
HETATM   14  C   LIG     1      28.128  21.448  23.856  1.00  0.00     0.048 C 
HETATM   15  C   LIG     1      27.117  21.977  24.937  1.00  0.00     0.002 C 
HETATM   16  C   LIG     1      26.514  20.742  25.713  1.00  0.00     0.019 C 
HETATM   17  C   LIG     1      26.025  22.813  24.238  1.00  0.00     0.005 C 
HETATM   18  C   LIG     1      25.298  23.557  25.358  1.00  0.00     0.013 C 
HETATM   19  C   LIG     1      26.364  23.782  26.461  1.00  0.00     0.026 C 
HETATM   20  C   LIG     1      25.809  23.336  27.831  1.00  0.00     0.013 C 
HETATM   21  C   LIG     1      27.675  23.035  25.980  1.00  0.00     0.144 C 
HETATM   22  C   LIG     1      23.150  21.509  20.074  1.00  0.00     0.058 C 
ENDROOT
BRANCH  21  23
HETATM   23  C   LIG     1      28.653  24.044  25.330  1.00  0.00     0.186 C 
HETATM   24  O   LIG     1      29.425  23.681  24.453  1.00  0.00    -0.292 OA
BRANCH  23  25
HETATM   25  C   LIG     1      28.693  25.497  25.740  1.00  0.00     0.245 C 
BRANCH  25  26
HETATM   26  O   LIG     1      29.885  25.758  26.431  1.00  0.00    -0.393 OA
HETATM   27  H   LIG     1      30.369  24.892  26.484  1.00  0.00     0.209 HD
ENDBRANCH  25  26
ENDBRANCH  23  25
ENDBRANCH  21  23
BRANCH  21  28
HETATM   28  O   LIG     1      28.351  22.368  27.064  1.00  0.00    -0.301 OA
BRANCH  28  29
HETATM   29  C   LIG     1      29.741  22.318  27.256  1.00  0.00     0.256 C 
HETATM   30  C   LIG     1      30.509  21.170  26.698  1.00  0.00     0.126 C 
HETATM   31  O   LIG     1      30.340  23.202  27.927  1.00  0.00    -0.266 OA
ENDBRANCH  28  29
ENDBRANCH  21  28
BRANCH  13  32
HETATM   32  O   LIG     1      27.903  22.157  21.544  1.00  0.00    -0.392 OA
HETATM   33  H   LIG     1      27.849  23.031  22.004  1.00  0.00     0.210 HD
ENDBRANCH  13  32
TORSDOF 6
ENDMDL
MODEL 11
REMARK VINA RESULT:      -4.0      3.469      3.900
REMARK  6 active torsions:
REMARK  status: ('A' for Active; 'I' for Inactive)
REMARK    1  A    between atoms: C_13  and  O_14 
REMARK    2  A    between atoms: C_22  and  C_27 
REMARK    3  A    between atoms: C_22  and  O_23 
REMARK    4  A    between atoms: O_23  and  C_24 
REMARK    5  A    between atoms: C_27  and  C_28 
REMARK    6  A    between atoms: C_28  and  O_29 
ROOT
HETATM    1  O   LIG     1      22.278  18.073  22.048  1.00  0.00    -0.289 OA
HETATM    2  C   LIG     1      23.185  18.920  22.257  1.00  0.00     0.172 C 
HETATM    3  C   LIG     1      24.580  18.494  22.355  1.00  0.00     0.052 C 
HETATM    4  C   LIG     1      25.542  19.376  22.633  1.00  0.00    -0.006 C 
HETATM    5  C   LIG     1      25.263  20.837  22.991  1.00  0.00     0.036 C 
HETATM    6  C   LIG     1      25.431  20.913  24.530  1.00  0.00     0.028 C 
HETATM    7  C   LIG     1      23.806  21.241  22.675  1.00  0.00    -0.061 C 
HETATM    8  C   LIG     1      23.512  22.712  22.495  1.00  0.00     0.036 C 
HETATM    9  C   LIG     1      24.319  23.288  21.310  1.00  0.00     0.013 C 
HETATM   10  C   LIG     1      25.577  22.439  20.964  1.00  0.00     0.035 C 
HETATM   11  C   LIG     1      26.248  21.873  22.262  1.00  0.00     0.147 C 
HETATM   12  F   LIG     1      26.389  22.938  23.136  1.00  0.00    -0.238 F 
HETATM   13  C   LIG     1      27.709  21.367  21.966  1.00  0.00     0.160 C 
HETATM   14  C   LIG     1      28.651  22.438  21.307  1.00  0.00     0.048 C 
HETATM   15  C   LIG     1      27.921  23.622  20.576  1.00  0.00     0.002 C 
HETATM   16  C   LIG     1      27.688  24.790  21.611  1.00  0.00     0.019 C 
HETATM   17  C   LIG     1      26.596  23.102  19.979  1.00  0.00     0.005 C 
HETATM   18  C   LIG     1      26.123  24.192  19.017  1.00  0.00     0.013 C 
HETATM   19  C   LIG     1      27.418  24.862  18.489  1.00  0.00     0.026 C 
HETATM   20  C   LIG     1      27.307  26.397  18.613  1.00  0.00     0.013 C 
HETATM   21  C   LIG     1      28.623  24.199  19.274  1.00  0.00     0.144 C 
HETATM   22  C   LIG     1      22.858  20.341  22.369  1.00  0.00     0.058 C 
ENDROOT
BRANCH  21  23
HETATM   23  C   LIG     1      29.272  23.088  18.414  1.00  0.00     0.186 C 
HETATM   24  O   LIG     1      30.244  22.473  18.827  1.00  0.00    -0.292 OA
BRANCH  23  25
HETATM   25  C   LIG     1      28.739  22.720  17.048  1.00  0.00     0.245 C 
BRANCH  25  26
HETATM   26  O   LIG     1      29.591  23.229  16.058  1.00  0.00    -0.393 OA
HETATM   27  H   LIG     1      30.329  22.569  15.962  1.00  0.00     0.209 HD
ENDBRANCH  25  26
ENDBRANCH  23  25
ENDBRANCH  21  23
BRANCH  21  28
HETATM   28  O   LIG     1      29.635  25.160  19.631  1.00  0.00    -0.301 OA
BRANCH  28  29
HETATM   29  C   LIG     1      30.345  25.974  18.735  1.00  0.00     0.256 C 
HETATM   30  C   LIG     1      30.662  27.377  19.125  1.00  0.00     0.126 C 
HETATM   31  O   LIG     1      30.679  25.553  17.594  1.00  0.00    -0.266 OA
ENDBRANCH  28  29
ENDBRANCH  21  28
BRANCH  13  32
HETATM   32  O   LIG     1      27.732  20.193  21.188  1.00  0.00    -0.392 OA
HETATM   33  H   LIG     1      28.589  19.726  21.345  1.00  0.00     0.210 HD
ENDBRANCH  13  32
TORSDOF 6
ENDMDL
MODEL 12
REMARK VINA RESULT:      -3.7     15.110     16.745
REMARK  6 active torsions:
REMARK  status: ('A' for Active; 'I' for Inactive)
REMARK    1  A    between atoms: C_13  and  O_14 
REMARK    2  A    between atoms: C_22  and  C_27 
REMARK    3  A    between atoms: C_22  and  O_23 
REMARK    4  A    between atoms: O_23  and  C_24 
REMARK    5  A    between atoms: C_27  and  C_28 
REMARK    6  A    between atoms: C_28  and  O_29 
ROOT
HETATM    1  O   LIG     1      19.858  20.913  28.287  1.00  0.00    -0.289 OA
HETATM    2  C   LIG     1      20.245  20.518  29.417  1.00  0.00     0.172 C 
HETATM    3  C   LIG     1      21.507  19.792  29.549  1.00  0.00     0.052 C 
HETATM    4  C   LIG     1      21.898  19.320  30.734  1.00  0.00    -0.006 C 
HETATM    5  C   LIG     1      21.027  19.379  31.991  1.00  0.00     0.036 C 
HETATM    6  C   LIG     1      20.465  17.945  32.158  1.00  0.00     0.028 C 
HETATM    7  C   LIG     1      19.817  20.322  31.810  1.00  0.00    -0.061 C 
HETATM    8  C   LIG     1      19.166  20.872  33.057  1.00  0.00     0.036 C 
HETATM    9  C   LIG     1      20.173  21.718  33.868  1.00  0.00     0.013 C 
HETATM   10  C   LIG     1      21.655  21.367  33.548  1.00  0.00     0.035 C 
HETATM   11  C   LIG     1      21.830  19.830  33.305  1.00  0.00     0.147 C 
HETATM   12  F   LIG     1      21.212  19.185  34.363  1.00  0.00    -0.238 F 
HETATM   13  C   LIG     1      23.347  19.417  33.380  1.00  0.00     0.160 C 
HETATM   14  C   LIG     1      24.072  19.827  34.711  1.00  0.00     0.048 C 
HETATM   15  C   LIG     1      23.395  20.994  35.517  1.00  0.00     0.002 C 
HETATM   16  C   LIG     1      22.360  20.374  36.535  1.00  0.00     0.019 C 
HETATM   17  C   LIG     1      22.722  21.965  34.524  1.00  0.00     0.005 C 
HETATM   18  C   LIG     1      22.393  23.219  35.334  1.00  0.00     0.013 C 
HETATM   19  C   LIG     1      23.487  23.297  36.431  1.00  0.00     0.026 C 
HETATM   20  C   LIG     1      22.834  23.513  37.813  1.00  0.00     0.013 C 
HETATM   21  C   LIG     1      24.364  21.987  36.288  1.00  0.00     0.144 C 
HETATM   22  C   LIG     1      19.456  20.810  30.613  1.00  0.00     0.058 C 
ENDROOT
BRANCH  21  23
HETATM   23  C   LIG     1      25.651  22.295  35.484  1.00  0.00     0.186 C 
HETATM   24  O   LIG     1      26.165  21.434  34.784  1.00  0.00    -0.292 OA
BRANCH  23  25
HETATM   25  C   LIG     1      26.316  23.651  35.527  1.00  0.00     0.245 C 
BRANCH  25  26
HETATM   26  O   LIG     1      26.749  23.922  36.832  1.00  0.00    -0.393 OA
HETATM   27  H   LIG     1      27.124  23.071  37.182  1.00  0.00     0.209 HD
ENDBRANCH  25  26
ENDBRANCH  23  25
ENDBRANCH  21  23
BRANCH  21  28
HETATM   28  O   LIG     1      24.737  21.438  37.566  1.00  0.00    -0.301 OA
BRANCH  28  29
HETATM   29  C   LIG     1      25.906  20.710  37.837  1.00  0.00     0.256 C 
HETATM   30  C   LIG     1      25.831  19.225  37.924  1.00  0.00     0.126 C 
HETATM   31  O   LIG     1      27.004  21.292  38.049  1.00  0.00    -0.266 OA
ENDBRANCH  28  29
ENDBRANCH  21  28
BRANCH  13  32
HETATM   32  O   LIG     1      24.095  19.889  32.284  1.00  0.00    -0.392 OA
HETATM   33  H   LIG     1      24.988  20.165  32.606  1.00  0.00     0.210 HD
ENDBRANCH  13  32
TORSDOF 6
ENDMDL
MODEL 13
REMARK VINA RESULT:      -2.8     14.230     17.679
REMARK  6 active torsions:
REMARK  status: ('A' for Active; 'I' for Inactive)
REMARK    1  A    between atoms: C_13  and  O_14 
REMARK    2  A    between atoms: C_22  and  C_27 
REMARK    3  A    between atoms: C_22  and  O_23 
REMARK    4  A    between atoms: O_23  and  C_24 
REMARK    5  A    between atoms: C_27  and  C_28 
REMARK    6  A    between atoms: C_28  and  O_29 
ROOT
HETATM    1  O   LIG     1      28.354  27.942  29.117  1.00  0.00    -0.289 OA
HETATM    2  C   LIG     1      28.412  27.494  30.292  1.00  0.00     0.172 C 
HETATM    3  C   LIG     1      27.406  27.885  31.277  1.00  0.00     0.052 C 
HETATM    4  C   LIG     1      27.490  27.461  32.540  1.00  0.00    -0.006 C 
HETATM    5  C   LIG     1      28.679  26.665  33.080  1.00  0.00     0.036 C 
HETATM    6  C   LIG     1      29.516  27.689  33.887  1.00  0.00     0.028 C 
HETATM    7  C   LIG     1      29.583  26.136  31.945  1.00  0.00    -0.061 C 
HETATM    8  C   LIG     1      30.474  24.956  32.253  1.00  0.00     0.036 C 
HETATM    9  C   LIG     1      29.630  23.726  32.653  1.00  0.00     0.013 C 
HETATM   10  C   LIG     1      28.211  24.106  33.165  1.00  0.00     0.035 C 
HETATM   11  C   LIG     1      28.251  25.427  34.007  1.00  0.00     0.147 C 
HETATM   12  F   LIG     1      29.271  25.280  34.933  1.00  0.00    -0.238 F 
HETATM   13  C   LIG     1      26.932  25.600  34.848  1.00  0.00     0.160 C 
HETATM   14  C   LIG     1      26.590  24.387  35.785  1.00  0.00     0.048 C 
HETATM   15  C   LIG     1      27.258  23.020  35.391  1.00  0.00     0.002 C 
HETATM   16  C   LIG     1      28.650  22.906  36.127  1.00  0.00     0.019 C 
HETATM   17  C   LIG     1      27.405  22.956  33.856  1.00  0.00     0.005 C 
HETATM   18  C   LIG     1      27.735  21.499  33.535  1.00  0.00     0.013 C 
HETATM   19  C   LIG     1      27.036  20.667  34.642  1.00  0.00     0.026 C 
HETATM   20  C   LIG     1      28.031  19.656  35.251  1.00  0.00     0.013 C 
HETATM   21  C   LIG     1      26.409  21.706  35.660  1.00  0.00     0.144 C 
HETATM   22  C   LIG     1      29.464  26.553  30.674  1.00  0.00     0.058 C 
ENDROOT
BRANCH  21  23
HETATM   23  C   LIG     1      24.904  21.905  35.356  1.00  0.00     0.186 C 
HETATM   24  O   LIG     1      24.330  22.924  35.714  1.00  0.00    -0.292 OA
BRANCH  23  25
HETATM   25  C   LIG     1      24.093  20.868  34.616  1.00  0.00     0.245 C 
BRANCH  25  26
HETATM   26  O   LIG     1      23.033  20.434  35.425  1.00  0.00    -0.393 OA
HETATM   27  H   LIG     1      22.352  20.054  34.808  1.00  0.00     0.209 HD
ENDBRANCH  25  26
ENDBRANCH  23  25
ENDBRANCH  21  23
BRANCH  21  28
HETATM   28  O   LIG     1      26.553  21.282  37.029  1.00  0.00    -0.301 OA
BRANCH  28  29
HETATM   29  C   LIG     1      25.644  20.484  37.741  1.00  0.00     0.256 C 
HETATM   30  C   LIG     1      25.981  19.057  38.003  1.00  0.00     0.126 C 
HETATM   31  O   LIG     1      24.533  20.943  38.123  1.00  0.00    -0.266 OA
ENDBRANCH  28  29
ENDBRANCH  21  28
BRANCH  13  32
HETATM   32  O   LIG     1      25.810  25.895  34.049  1.00  0.00    -0.392 OA
HETATM   33  H   LIG     1      25.921  25.452  33.172  1.00  0.00     0.210 HD
ENDBRANCH  13  32
TORSDOF 6
ENDMDL
MODEL 14
REMARK VINA RESULT:      -2.7     15.816     17.673
REMARK  6 active torsions:
REMARK  status: ('A' for Active; 'I' for Inactive)
REMARK    1  A    between atoms: C_13  and  O_14 
REMARK    2  A    between atoms: C_22  and  C_27 
REMARK    3  A    between atoms: C_22  and  O_23 
REMARK    4  A    between atoms: O_23  and  C_24 
REMARK    5  A    between atoms: C_27  and  C_28 
REMARK    6  A    between atoms: C_28  and  O_29 
ROOT
HETATM    1  O   LIG     1      18.843  23.304  33.936  1.00  0.00    -0.289 OA
HETATM    2  C   LIG     1      19.751  22.636  34.495  1.00  0.00     0.172 C 
HETATM    3  C   LIG     1      20.104  21.310  33.993  1.00  0.00     0.052 C 
HETATM    4  C   LIG     1      21.026  20.571  34.614  1.00  0.00    -0.006 C 
HETATM    5  C   LIG     1      21.677  20.979  35.937  1.00  0.00     0.036 C 
HETATM    6  C   LIG     1      20.972  20.117  37.014  1.00  0.00     0.028 C 
HETATM    7  C   LIG     1      21.397  22.457  36.286  1.00  0.00    -0.061 C 
HETATM    8  C   LIG     1      22.341  23.139  37.249  1.00  0.00     0.036 C 
HETATM    9  C   LIG     1      23.777  23.160  36.681  1.00  0.00     0.013 C 
HETATM   10  C   LIG     1      24.019  22.063  35.605  1.00  0.00     0.035 C 
HETATM   11  C   LIG     1      23.263  20.741  35.969  1.00  0.00     0.147 C 
HETATM   12  F   LIG     1      23.574  20.453  37.288  1.00  0.00    -0.238 F 
HETATM   13  C   LIG     1      23.811  19.528  35.127  1.00  0.00     0.160 C 
HETATM   14  C   LIG     1      25.360  19.300  35.241  1.00  0.00     0.048 C 
HETATM   15  C   LIG     1      26.195  20.547  35.709  1.00  0.00     0.002 C 
HETATM   16  C   LIG     1      26.302  20.523  37.283  1.00  0.00     0.019 C 
HETATM   17  C   LIG     1      25.511  21.831  35.193  1.00  0.00     0.005 C 
HETATM   18  C   LIG     1      26.535  22.948  35.387  1.00  0.00     0.013 C 
HETATM   19  C   LIG     1      27.920  22.265  35.241  1.00  0.00     0.026 C 
HETATM   20  C   LIG     1      28.832  22.660  36.422  1.00  0.00     0.013 C 
HETATM   21  C   LIG     1      27.644  20.714  35.082  1.00  0.00     0.144 C 
HETATM   22  C   LIG     1      20.485  23.193  35.631  1.00  0.00     0.058 C 
ENDROOT
BRANCH  21  23
HETATM   23  C   LIG     1      27.687  20.316  33.587  1.00  0.00     0.186 C 
HETATM   24  O   LIG     1      27.801  21.173  32.721  1.00  0.00    -0.292 OA
BRANCH  23  25
HETATM   25  C   LIG     1      27.596  18.876  33.138  1.00  0.00     0.245 C 
BRANCH  25  26
HETATM   26  O   LIG     1      28.522  18.644  32.111  1.00  0.00    -0.393 OA
HETATM   27  H   LIG     1      28.131  17.927  31.544  1.00  0.00     0.209 HD
ENDBRANCH  25  26
ENDBRANCH  23  25
ENDBRANCH  21  23
BRANCH  21  28
HETATM   28  O   LIG     1      28.601  19.913  35.802  1.00  0.00    -0.301 OA
BRANCH  28  29
HETATM   29  C   LIG     1      29.995  20.059  35.752  1.00  0.00     0.256 C 
HETATM   30  C   LIG     1      30.674  20.094  34.426  1.00  0.00     0.126 C 
HETATM   31  O   LIG     1      30.684  20.119  36.807  1.00  0.00    -0.266 OA
ENDBRANCH  28  29
ENDBRANCH  21  28
BRANCH  13  32
HETATM   32  O   LIG     1      23.455  19.605  33.767  1.00  0.00    -0.392 OA
HETATM   33  H   LIG     1      24.269  19.787  33.236  1.00  0.00     0.210 HD
ENDBRANCH  13  32
TORSDOF 6
ENDMDL
MODEL 15
REMARK VINA RESULT:      -2.7     15.390     18.259
REMARK  6 active torsions:
REMARK  status: ('A' for Active; 'I' for Inactive)
REMARK    1  A    between atoms: C_13  and  O_14 
REMARK    2  A    between atoms: C_22  and  C_27 
REMARK    3  A    between atoms: C_22  and  O_23 
REMARK    4  A    between atoms: O_23  and  C_24 
REMARK    5  A    between atoms: C_27  and  C_28 
REMARK    6  A    between atoms: C_28  and  O_29 
ROOT
HETATM    1  O   LIG     1      28.339  28.354  31.661  1.00  0.00    -0.289 OA
HETATM    2  C   LIG     1      28.111  27.570  32.619  1.00  0.00     0.172 C 
HETATM    3  C   LIG     1      26.796  27.550  33.256  1.00  0.00     0.052 C 
HETATM    4  C   LIG     1      26.562  26.764  34.308  1.00  0.00    -0.006 C 
HETATM    5  C   LIG     1      27.650  25.940  35.000  1.00  0.00     0.036 C 
HETATM    6  C   LIG     1      27.994  26.729  36.288  1.00  0.00     0.028 C 
HETATM    7  C   LIG     1      28.942  25.867  34.155  1.00  0.00    -0.061 C 
HETATM    8  C   LIG     1      29.894  24.728  34.432  1.00  0.00     0.036 C 
HETATM    9  C   LIG     1      29.208  23.369  34.171  1.00  0.00     0.013 C 
HETATM   10  C   LIG     1      27.656  23.452  34.236  1.00  0.00     0.035 C 
HETATM   11  C   LIG     1      27.191  24.445  35.356  1.00  0.00     0.147 C 
HETATM   12  F   LIG     1      27.883  24.102  36.505  1.00  0.00    -0.238 F 
HETATM   13  C   LIG     1      25.668  24.237  35.696  1.00  0.00     0.160 C 
HETATM   14  C   LIG     1      25.281  22.769  36.098  1.00  0.00     0.048 C 
HETATM   15  C   LIG     1      26.277  21.653  35.616  1.00  0.00     0.002 C 
HETATM   16  C   LIG     1      27.370  21.432  36.734  1.00  0.00     0.019 C 
HETATM   17  C   LIG     1      26.900  22.082  34.271  1.00  0.00     0.005 C 
HETATM   18  C   LIG     1      27.574  20.829  33.712  1.00  0.00     0.013 C 
HETATM   19  C   LIG     1      26.732  19.640  34.242  1.00  0.00     0.026 C 
HETATM   20  C   LIG     1      27.657  18.575  34.871  1.00  0.00     0.013 C 
HETATM   21  C   LIG     1      25.642  20.255  35.213  1.00  0.00     0.144 C 
HETATM   22  C   LIG     1      29.147  26.647  33.082  1.00  0.00     0.058 C 
ENDROOT
BRANCH  21  23
HETATM   23  C   LIG     1      24.295  20.413  34.467  1.00  0.00     0.186 C 
HETATM   24  O   LIG     1      23.558  21.357  34.713  1.00  0.00    -0.292 OA
BRANCH  23  25
HETATM   25  C   LIG     1      23.841  19.426  33.417  1.00  0.00     0.245 C 
BRANCH  25  26
HETATM   26  O   LIG     1      22.741  18.701  33.897  1.00  0.00    -0.393 OA
HETATM   27  H   LIG     1      21.932  19.166  33.554  1.00  0.00     0.209 HD
ENDBRANCH  25  26
ENDBRANCH  23  25
ENDBRANCH  21  23
BRANCH  21  28
HETATM   28  O   LIG     1      25.431  19.440  36.382  1.00  0.00    -0.301 OA
BRANCH  28  29
HETATM   29  C   LIG     1      24.218  19.294  37.071  1.00  0.00     0.256 C 
HETATM   30  C   LIG     1      23.861  20.280  38.129  1.00  0.00     0.126 C 
HETATM   31  O   LIG     1      23.448  18.322  36.840  1.00  0.00    -0.266 OA
ENDBRANCH  28  29
ENDBRANCH  21  28
BRANCH  13  32
HETATM   32  O   LIG     1      24.815  24.672  34.663  1.00  0.00    -0.392 OA
HETATM   33  H   LIG     1      24.692  23.931  34.021  1.00  0.00     0.210 HD
ENDBRANCH  13  32
TORSDOF 6
ENDMDL
MODEL 16
REMARK VINA RESULT:      -2.6      6.720      9.720
REMARK  6 active torsions:
REMARK  status: ('A' for Active; 'I' for Inactive)
REMARK    1  A    between atoms: C_13  and  O_14 
REMARK    2  A    between atoms: C_22  and  C_27 
REMARK    3  A    between atoms: C_22  and  O_23 
REMARK    4  A    between atoms: O_23  and  C_24 
REMARK    5  A    between atoms: C_27  and  C_28 
REMARK    6  A    between atoms: C_28  and  O_29 
ROOT
HETATM    1  O   LIG     1      29.771  25.880  21.695  1.00  0.00    -0.289 OA
HETATM    2  C   LIG     1      29.272  24.777  22.037  1.00  0.00     0.172 C 
HETATM    3  C   LIG     1      30.063  23.821  22.810  1.00  0.00     0.052 C 
HETATM    4  C   LIG     1      29.563  22.626  23.129  1.00  0.00    -0.006 C 
HETATM    5  C   LIG     1      28.214  22.116  22.616  1.00  0.00     0.036 C 
HETATM    6  C   LIG     1      28.565  21.120  21.483  1.00  0.00     0.028 C 
HETATM    7  C   LIG     1      27.374  23.247  21.981  1.00  0.00    -0.061 C 
HETATM    8  C   LIG     1      25.881  23.040  21.890  1.00  0.00     0.036 C 
HETATM    9  C   LIG     1      25.267  22.873  23.298  1.00  0.00     0.013 C 
HETATM   10  C   LIG     1      26.306  22.415  24.361  1.00  0.00     0.035 C 
HETATM   11  C   LIG     1      27.330  21.400  23.747  1.00  0.00     0.147 C 
HETATM   12  F   LIG     1      26.588  20.433  23.089  1.00  0.00    -0.238 F 
HETATM   13  C   LIG     1      28.116  20.638  24.879  1.00  0.00     0.160 C 
HETATM   14  C   LIG     1      27.205  19.903  25.926  1.00  0.00     0.048 C 
HETATM   15  C   LIG     1      25.729  20.432  26.027  1.00  0.00     0.002 C 
HETATM   16  C   LIG     1      24.831  19.622  25.012  1.00  0.00     0.019 C 
HETATM   17  C   LIG     1      25.717  21.947  25.733  1.00  0.00     0.005 C 
HETATM   18  C   LIG     1      24.339  22.440  26.175  1.00  0.00     0.013 C 
HETATM   19  C   LIG     1      23.928  21.510  27.346  1.00  0.00     0.026 C 
HETATM   20  C   LIG     1      22.497  20.976  27.118  1.00  0.00     0.013 C 
HETATM   21  C   LIG     1      25.057  20.406  27.465  1.00  0.00     0.144 C 
HETATM   22  C   LIG     1      27.888  24.454  21.695  1.00  0.00     0.058 C 
ENDROOT
BRANCH  21  23
HETATM   23  C   LIG     1      26.054  20.785  28.587  1.00  0.00     0.186 C 
HETATM   24  O   LIG     1      25.789  21.683  29.374  1.00  0.00    -0.292 OA
BRANCH  23  25
HETATM   25  C   LIG     1      27.375  20.073  28.758  1.00  0.00     0.245 C 
BRANCH  25  26
HETATM   26  O   LIG     1      27.467  19.554  30.057  1.00  0.00    -0.393 OA
HETATM   27  H   LIG     1      28.097  20.146  30.547  1.00  0.00     0.209 HD
ENDBRANCH  25  26
ENDBRANCH  23  25
ENDBRANCH  21  23
BRANCH  21  28
HETATM   28  O   LIG     1      24.516  19.101  27.747  1.00  0.00    -0.301 OA
BRANCH  28  29
HETATM   29  C   LIG     1      24.336  18.547  29.024  1.00  0.00     0.256 C 
HETATM   30  C   LIG     1      23.031  18.733  29.717  1.00  0.00     0.126 C 
HETATM   31  O   LIG     1      25.270  17.933  29.607  1.00  0.00    -0.266 OA
ENDBRANCH  28  29
ENDBRANCH  21  28
BRANCH  13  32
HETATM   32  O   LIG     1      29.027  21.467  25.562  1.00  0.00    -0.392 OA
HETATM   33  H   LIG     1      28.626  21.733  26.426  1.00  0.00     0.210 HD
ENDBRANCH  13  32
TORSDOF 6
ENDMDL
MODEL 17
REMARK VINA RESULT:      -2.3      7.233      9.779
REMARK  6 active torsions:
REMARK  status: ('A' for Active; 'I' for Inactive)
REMARK    1  A    between atoms: C_13  and  O_14 
REMARK    2  A    between atoms: C_22  and  C_27 
REMARK    3  A    between atoms: C_22  and  O_23 
REMARK    4  A    between atoms: O_23  and  C_24 
REMARK    5  A    between atoms: C_27  and  C_28 
REMARK    6  A    between atoms: C_28  and  O_29 
ROOT
HETATM    1  O   LIG     1      29.928  22.903  21.879  1.00  0.00    -0.289 OA
HETATM    2  C   LIG     1      28.926  22.179  22.112  1.00  0.00     0.172 C 
HETATM    3  C   LIG     1      29.104  20.805  22.576  1.00  0.00     0.052 C 
HETATM    4  C   LIG     1      28.050  20.011  22.770  1.00  0.00    -0.006 C 
HETATM    5  C   LIG     1      26.618  20.412  22.409  1.00  0.00     0.036 C 
HETATM    6  C   LIG     1      26.313  19.668  21.085  1.00  0.00     0.028 C 
HETATM    7  C   LIG     1      26.501  21.925  22.116  1.00  0.00    -0.061 C 
HETATM    8  C   LIG     1      25.134  22.556  22.239  1.00  0.00     0.036 C 
HETATM    9  C   LIG     1      24.597  22.418  23.681  1.00  0.00     0.013 C 
HETATM   10  C   LIG     1      25.270  21.257  24.469  1.00  0.00     0.035 C 
HETATM   11  C   LIG     1      25.543  20.028  23.536  1.00  0.00     0.147 C 
HETATM   12  F   LIG     1      24.363  19.771  22.858  1.00  0.00    -0.238 F 
HETATM   13  C   LIG     1      25.841  18.734  24.382  1.00  0.00     0.160 C 
HETATM   14  C   LIG     1      24.729  18.367  25.429  1.00  0.00     0.048 C 
HETATM   15  C   LIG     1      23.787  19.549  25.856  1.00  0.00     0.002 C 
HETATM   16  C   LIG     1      22.544  19.584  24.884  1.00  0.00     0.019 C 
HETATM   17  C   LIG     1      24.588  20.867  25.822  1.00  0.00     0.005 C 
HETATM   18  C   LIG     1      23.726  21.891  26.560  1.00  0.00     0.013 C 
HETATM   19  C   LIG     1      22.932  21.075  27.613  1.00  0.00     0.026 C 
HETATM   20  C   LIG     1      21.432  21.435  27.539  1.00  0.00     0.013 C 
HETATM   21  C   LIG     1      23.281  19.551  27.361  1.00  0.00     0.144 C 
HETATM   22  C   LIG     1      27.574  22.714  21.952  1.00  0.00     0.058 C 
ENDROOT
BRANCH  21  23
HETATM   23  C   LIG     1      24.377  19.087  28.351  1.00  0.00     0.186 C 
HETATM   24  O   LIG     1      24.800  17.940  28.313  1.00  0.00    -0.292 OA
BRANCH  23  25
HETATM   25  C   LIG     1      24.964  20.015  29.389  1.00  0.00     0.245 C 
BRANCH  25  26
HETATM   26  O   LIG     1      26.268  20.371  29.018  1.00  0.00    -0.393 OA
HETATM   27  H   LIG     1      26.742  19.519  28.823  1.00  0.00     0.209 HD
ENDBRANCH  25  26
ENDBRANCH  23  25
ENDBRANCH  21  23
BRANCH  21  28
HETATM   28  O   LIG     1      22.131  18.697  27.509  1.00  0.00    -0.301 OA
BRANCH  28  29
HETATM   29  C   LIG     1      21.282  18.650  28.626  1.00  0.00     0.256 C 
HETATM   30  C   LIG     1      21.858  18.329  29.962  1.00  0.00     0.126 C 
HETATM   31  O   LIG     1      20.040  18.832  28.510  1.00  0.00    -0.266 OA
ENDBRANCH  28  29
ENDBRANCH  21  28
BRANCH  13  32
HETATM   32  O   LIG     1      27.089  18.784  25.034  1.00  0.00    -0.392 OA
HETATM   33  H   LIG     1      27.090  19.553  25.656  1.00  0.00     0.210 HD
ENDBRANCH  13  32
TORSDOF 6
ENDMDL
