REMARK  2 active torsions:
REMARK  status: ('A' for Active; 'I' for Inactive)
REMARK    1  A    between atoms: C_2  and  C_3 
REMARK    2  A    between atoms: C_2  and  O_10 
ROOT
HETATM    1  C   LIG     1       0.496  -0.565  -0.253  1.00  0.00     0.043 A 
HETATM    2  C   LIG     1      -0.309  -1.698  -0.461  1.00  0.00     0.019 A 
HETATM    3  C   LIG     1      -1.696  -1.622  -0.319  1.00  0.00     0.001 A 
HETATM    4  C   LIG     1      -2.297  -0.413   0.028  1.00  0.00     0.001 A 
HETATM    5  C   LIG     1      -1.516   0.728   0.217  1.00  0.00     0.008 A 
HETATM    6  C   LIG     1      -0.120   0.676   0.058  1.00  0.00    -0.045 A 
HETATM    7  C   LIG     1       0.668   1.949   0.224  1.00  0.00     0.049 C 
ENDROOT
BRANCH   1   8
HETATM    8  C   LIG     1       1.963  -0.713  -0.382  1.00  0.00     0.176 C 
HETATM    9  O   LIG     1       2.442  -1.355  -1.354  1.00  0.00    -0.646 OA
BRANCH   8  10
HETATM   10  O   LIG     1       2.829  -0.197   0.579  1.00  0.00    -0.773 OA
HETATM   11  H   LIG     1       2.486   0.217   1.436  1.00  0.00     0.167 HD
ENDBRANCH   8  10
ENDBRANCH   1   8
TORSDOF 2
