MODEL 1
REMARK VINA RESULT:      -7.1      0.000      0.000
REMARK  2 active torsions:
REMARK  status: ('A' for Active; 'I' for Inactive)
REMARK    1  A    between atoms: C_2  and  C_3 
REMARK    2  A    between atoms: C_2  and  O_10 
ROOT
HETATM    1  C   LIG     1      17.156  37.102  24.330  1.00  0.00     0.043 A 
HETATM    2  C   LIG     1      17.653  37.583  25.553  1.00  0.00     0.019 A 
HETATM    3  C   LIG     1      18.115  36.699  26.531  1.00  0.00     0.001 A 
HETATM    4  C   LIG     1      18.092  35.325  26.297  1.00  0.00     0.001 A 
HETATM    5  C   LIG     1      17.623  34.830  25.079  1.00  0.00     0.008 A 
HETATM    6  C   LIG     1      17.173  35.705  24.075  1.00  0.00    -0.045 A 
HETATM    7  C   LIG     1      16.726  35.119  22.761  1.00  0.00     0.049 C 
ENDROOT
BRANCH   1   8
HETATM    8  C   LIG     1      16.646  38.083  23.346  1.00  0.00     0.176 C 
HETATM    9  O   LIG     1      17.458  38.772  22.673  1.00  0.00    -0.646 OA
BRANCH   8  10
HETATM   10  O   LIG     1      15.280  38.297  23.181  1.00  0.00    -0.773 OA
HETATM   11  H   LIG     1      14.807  38.075  22.314  1.00  0.00     0.167 HD
ENDBRANCH   8  10
ENDBRANCH   1   8
TORSDOF 2
ENDMDL
MODEL 2
REMARK VINA RESULT:      -6.8      2.637      4.006
REMARK  2 active torsions:
REMARK  status: ('A' for Active; 'I' for Inactive)
REMARK    1  A    between atoms: C_2  and  C_3 
REMARK    2  A    between atoms: C_2  and  O_10 
ROOT
HETATM    1  C   LIG     1      17.364  37.840  22.007  1.00  0.00     0.043 A 
HETATM    2  C   LIG     1      18.052  39.035  21.738  1.00  0.00     0.019 A 
HETATM    3  C   LIG     1      18.938  39.119  20.662  1.00  0.00     0.001 A 
HETATM    4  C   LIG     1      19.144  38.013  19.838  1.00  0.00     0.001 A 
HETATM    5  C   LIG     1      18.452  36.825  20.077  1.00  0.00     0.008 A 
HETATM    6  C   LIG     1      17.541  36.727  21.143  1.00  0.00    -0.045 A 
HETATM    7  C   LIG     1      16.784  35.437  21.322  1.00  0.00     0.049 C 
ENDROOT
BRANCH   1   8
HETATM    8  C   LIG     1      16.465  37.797  23.182  1.00  0.00     0.176 C 
HETATM    9  O   LIG     1      16.909  37.402  24.293  1.00  0.00    -0.646 OA
BRANCH   8  10
HETATM   10  O   LIG     1      15.119  38.139  23.076  1.00  0.00    -0.773 OA
HETATM   11  H   LIG     1      14.419  37.463  22.800  1.00  0.00     0.167 HD
ENDBRANCH   8  10
ENDBRANCH   1   8
TORSDOF 2
ENDMDL
MODEL 3
REMARK VINA RESULT:      -6.4      1.785      3.227
REMARK  2 active torsions:
REMARK  status: ('A' for Active; 'I' for Inactive)
REMARK    1  A    between atoms: C_2  and  C_3 
REMARK    2  A    between atoms: C_2  and  O_10 
ROOT
HETATM    1  C   LIG     1      17.396  37.064  24.167  1.00  0.00     0.043 A 
HETATM    2  C   LIG     1      17.293  37.822  22.989  1.00  0.00     0.019 A 
HETATM    3  C   LIG     1      17.059  37.201  21.760  1.00  0.00     0.001 A 
HETATM    4  C   LIG     1      16.920  35.816  21.694  1.00  0.00     0.001 A 
HETATM    5  C   LIG     1      16.997  35.048  22.856  1.00  0.00     0.008 A 
HETATM    6  C   LIG     1      17.211  35.657  24.105  1.00  0.00    -0.045 A 
HETATM    7  C   LIG     1      17.234  34.785  25.333  1.00  0.00     0.049 C 
ENDROOT
BRANCH   1   8
HETATM    8  C   LIG     1      17.681  37.772  25.435  1.00  0.00     0.176 C 
HETATM    9  O   LIG     1      16.911  38.690  25.823  1.00  0.00    -0.646 OA
BRANCH   8  10
HETATM   10  O   LIG     1      18.814  37.477  26.189  1.00  0.00    -0.773 OA
HETATM   11  H   LIG     1      18.758  37.294  27.183  1.00  0.00     0.167 HD
ENDBRANCH   8  10
ENDBRANCH   1   8
TORSDOF 2
ENDMDL
MODEL 4
REMARK VINA RESULT:      -6.4      2.542      4.062
REMARK  2 active torsions:
REMARK  status: ('A' for Active; 'I' for Inactive)
REMARK    1  A    between atoms: C_2  and  C_3 
REMARK    2  A    between atoms: C_2  and  O_10 
ROOT
HETATM    1  C   LIG     1      17.268  35.659  24.621  1.00  0.00     0.043 A 
HETATM    2  C   LIG     1      17.107  34.933  23.429  1.00  0.00     0.019 A 
HETATM    3  C   LIG     1      16.855  35.590  22.223  1.00  0.00     0.001 A 
HETATM    4  C   LIG     1      16.764  36.981  22.192  1.00  0.00     0.001 A 
HETATM    5  C   LIG     1      16.944  37.720  23.361  1.00  0.00     0.008 A 
HETATM    6  C   LIG     1      17.219  37.078  24.581  1.00  0.00    -0.045 A 
HETATM    7  C   LIG     1      17.454  37.928  25.802  1.00  0.00     0.049 C 
ENDROOT
BRANCH   1   8
HETATM    8  C   LIG     1      17.498  34.908  25.875  1.00  0.00     0.176 C 
HETATM    9  O   LIG     1      18.674  34.730  26.289  1.00  0.00    -0.646 OA
BRANCH   8  10
HETATM   10  O   LIG     1      16.440  34.348  26.587  1.00  0.00    -0.773 OA
HETATM   11  H   LIG     1      15.685  34.915  26.951  1.00  0.00     0.167 HD
ENDBRANCH   8  10
ENDBRANCH   1   8
TORSDOF 2
ENDMDL
MODEL 5
REMARK VINA RESULT:      -6.3      3.143      4.887
REMARK  2 active torsions:
REMARK  status: ('A' for Active; 'I' for Inactive)
REMARK    1  A    between atoms: C_2  and  C_3 
REMARK    2  A    between atoms: C_2  and  O_10 
ROOT
HETATM    1  C   LIG     1      17.590  37.098  21.215  1.00  0.00     0.043 A 
HETATM    2  C   LIG     1      18.358  36.638  20.132  1.00  0.00     0.019 A 
HETATM    3  C   LIG     1      19.247  37.491  19.475  1.00  0.00     0.001 A 
HETATM    4  C   LIG     1      19.384  38.814  19.895  1.00  0.00     0.001 A 
HETATM    5  C   LIG     1      18.646  39.283  20.983  1.00  0.00     0.008 A 
HETATM    6  C   LIG     1      17.762  38.432  21.669  1.00  0.00    -0.045 A 
HETATM    7  C   LIG     1      17.030  38.977  22.868  1.00  0.00     0.049 C 
ENDROOT
BRANCH   1   8
HETATM    8  C   LIG     1      16.638  36.159  21.849  1.00  0.00     0.176 C 
HETATM    9  O   LIG     1      17.061  35.298  22.665  1.00  0.00    -0.646 OA
BRANCH   8  10
HETATM   10  O   LIG     1      15.284  36.175  21.526  1.00  0.00    -0.773 OA
HETATM   11  H   LIG     1      14.830  37.010  21.178  1.00  0.00     0.167 HD
ENDBRANCH   8  10
ENDBRANCH   1   8
TORSDOF 2
ENDMDL
MODEL 6
REMARK VINA RESULT:      -6.3      1.451      2.459
REMARK  2 active torsions:
REMARK  status: ('A' for Active; 'I' for Inactive)
REMARK    1  A    between atoms: C_2  and  C_3 
REMARK    2  A    between atoms: C_2  and  O_10 
ROOT
HETATM    1  C   LIG     1      17.106  36.090  23.693  1.00  0.00     0.043 A 
HETATM    2  C   LIG     1      17.208  34.939  24.493  1.00  0.00     0.019 A 
HETATM    3  C   LIG     1      17.681  35.023  25.804  1.00  0.00     0.001 A 
HETATM    4  C   LIG     1      18.055  36.257  26.334  1.00  0.00     0.001 A 
HETATM    5  C   LIG     1      17.940  37.413  25.562  1.00  0.00     0.008 A 
HETATM    6  C   LIG     1      17.446  37.352  24.247  1.00  0.00    -0.045 A 
HETATM    7  C   LIG     1      17.295  38.638  23.477  1.00  0.00     0.049 C 
ENDROOT
BRANCH   1   8
HETATM    8  C   LIG     1      16.632  35.936  22.299  1.00  0.00     0.176 C 
HETATM    9  O   LIG     1      17.444  35.595  21.398  1.00  0.00    -0.646 OA
BRANCH   8  10
HETATM   10  O   LIG     1      15.312  36.209  21.950  1.00  0.00    -0.773 OA
HETATM   11  H   LIG     1      15.034  37.110  21.584  1.00  0.00     0.167 HD
ENDBRANCH   8  10
ENDBRANCH   1   8
TORSDOF 2
ENDMDL
MODEL 7
REMARK VINA RESULT:      -6.2      1.866      3.622
REMARK  2 active torsions:
REMARK  status: ('A' for Active; 'I' for Inactive)
REMARK    1  A    between atoms: C_2  and  C_3 
REMARK    2  A    between atoms: C_2  and  O_10 
ROOT
HETATM    1  C   LIG     1      17.396  37.017  23.602  1.00  0.00     0.043 A 
HETATM    2  C   LIG     1      17.039  35.658  23.634  1.00  0.00     0.019 A 
HETATM    3  C   LIG     1      16.809  34.954  22.451  1.00  0.00     0.001 A 
HETATM    4  C   LIG     1      16.937  35.596  21.220  1.00  0.00     0.001 A 
HETATM    5  C   LIG     1      17.312  36.939  21.167  1.00  0.00     0.008 A 
HETATM    6  C   LIG     1      17.569  37.659  22.347  1.00  0.00    -0.045 A 
HETATM    7  C   LIG     1      18.020  39.091  22.228  1.00  0.00     0.049 C 
ENDROOT
BRANCH   1   8
HETATM    8  C   LIG     1      17.593  37.722  24.888  1.00  0.00     0.176 C 
HETATM    9  O   LIG     1      16.697  38.496  25.318  1.00  0.00    -0.646 OA
BRANCH   8  10
HETATM   10  O   LIG     1      18.774  37.586  25.614  1.00  0.00    -0.773 OA
HETATM   11  H   LIG     1      18.880  36.878  26.329  1.00  0.00     0.167 HD
ENDBRANCH   8  10
ENDBRANCH   1   8
TORSDOF 2
ENDMDL
MODEL 8
REMARK VINA RESULT:      -6.1      8.239     10.122
REMARK  2 active torsions:
REMARK  status: ('A' for Active; 'I' for Inactive)
REMARK    1  A    between atoms: C_2  and  C_3 
REMARK    2  A    between atoms: C_2  and  O_10 
ROOT
HETATM    1  C   LIG     1      14.623  32.364  16.438  1.00  0.00     0.043 A 
HETATM    2  C   LIG     1      13.411  31.716  16.731  1.00  0.00     0.019 A 
HETATM    3  C   LIG     1      13.003  30.602  15.995  1.00  0.00     0.001 A 
HETATM    4  C   LIG     1      13.802  30.118  14.960  1.00  0.00     0.001 A 
HETATM    5  C   LIG     1      15.020  30.734  14.669  1.00  0.00     0.008 A 
HETATM    6  C   LIG     1      15.457  31.845  15.413  1.00  0.00    -0.045 A 
HETATM    7  C   LIG     1      16.803  32.439  15.089  1.00  0.00     0.049 C 
ENDROOT
BRANCH   1   8
HETATM    8  C   LIG     1      14.988  33.562  17.227  1.00  0.00     0.176 C 
HETATM    9  O   LIG     1      15.020  34.690  16.669  1.00  0.00    -0.646 OA
BRANCH   8  10
HETATM   10  O   LIG     1      15.345  33.462  18.570  1.00  0.00    -0.773 OA
HETATM   11  H   LIG     1      14.773  32.960  19.236  1.00  0.00     0.167 HD
ENDBRANCH   8  10
ENDBRANCH   1   8
TORSDOF 2
ENDMDL
MODEL 9
REMARK VINA RESULT:      -6.1      9.703     10.879
REMARK  2 active torsions:
REMARK  status: ('A' for Active; 'I' for Inactive)
REMARK    1  A    between atoms: C_2  and  C_3 
REMARK    2  A    between atoms: C_2  and  O_10 
ROOT
HETATM    1  C   LIG     1      15.374  31.892  15.343  1.00  0.00     0.043 A 
HETATM    2  C   LIG     1      14.801  32.470  16.489  1.00  0.00     0.019 A 
HETATM    3  C   LIG     1      13.604  31.976  17.012  1.00  0.00     0.001 A 
HETATM    4  C   LIG     1      12.967  30.897  16.400  1.00  0.00     0.001 A 
HETATM    5  C   LIG     1      13.533  30.296  15.275  1.00  0.00     0.008 A 
HETATM    6  C   LIG     1      14.749  30.766  14.746  1.00  0.00    -0.045 A 
HETATM    7  C   LIG     1      15.340  30.048  13.561  1.00  0.00     0.049 C 
ENDROOT
BRANCH   1   8
HETATM    8  C   LIG     1      16.625  32.480  14.812  1.00  0.00     0.176 C 
HETATM    9  O   LIG     1      17.718  32.252  15.395  1.00  0.00    -0.646 OA
BRANCH   8  10
HETATM   10  O   LIG     1      16.613  33.324  13.705  1.00  0.00    -0.773 OA
HETATM   11  H   LIG     1      16.000  34.127  13.655  1.00  0.00     0.167 HD
ENDBRANCH   8  10
ENDBRANCH   1   8
TORSDOF 2
ENDMDL
MODEL 10
REMARK VINA RESULT:      -6.0      2.523      4.220
REMARK  2 active torsions:
REMARK  status: ('A' for Active; 'I' for Inactive)
REMARK    1  A    between atoms: C_2  and  C_3 
REMARK    2  A    between atoms: C_2  and  O_10 
ROOT
HETATM    1  C   LIG     1      17.050  37.395  22.267  1.00  0.00     0.043 A 
HETATM    2  C   LIG     1      16.837  36.152  21.649  1.00  0.00     0.019 A 
HETATM    3  C   LIG     1      17.486  35.829  20.456  1.00  0.00     0.001 A 
HETATM    4  C   LIG     1      18.361  36.742  19.868  1.00  0.00     0.001 A 
HETATM    5  C   LIG     1      18.603  37.973  20.479  1.00  0.00     0.008 A 
HETATM    6  C   LIG     1      17.974  38.307  21.691  1.00  0.00    -0.045 A 
HETATM    7  C   LIG     1      18.311  39.628  22.332  1.00  0.00     0.049 C 
ENDROOT
BRANCH   1   8
HETATM    8  C   LIG     1      16.307  37.698  23.511  1.00  0.00     0.176 C 
HETATM    9  O   LIG     1      16.865  37.530  24.628  1.00  0.00    -0.646 OA
BRANCH   8  10
HETATM   10  O   LIG     1      14.980  38.120  23.476  1.00  0.00    -0.773 OA
HETATM   11  H   LIG     1      14.735  39.091  23.335  1.00  0.00     0.167 HD
ENDBRANCH   8  10
ENDBRANCH   1   8
TORSDOF 2
ENDMDL
MODEL 11
REMARK VINA RESULT:      -6.0      3.396      4.732
REMARK  2 active torsions:
REMARK  status: ('A' for Active; 'I' for Inactive)
REMARK    1  A    between atoms: C_2  and  C_3 
REMARK    2  A    between atoms: C_2  and  O_10 
ROOT
HETATM    1  C   LIG     1      18.043  37.115  20.694  1.00  0.00     0.043 A 
HETATM    2  C   LIG     1      17.227  36.178  21.350  1.00  0.00     0.019 A 
HETATM    3  C   LIG     1      16.570  36.512  22.536  1.00  0.00     0.001 A 
HETATM    4  C   LIG     1      16.717  37.788  23.080  1.00  0.00     0.001 A 
HETATM    5  C   LIG     1      17.506  38.739  22.431  1.00  0.00     0.008 A 
HETATM    6  C   LIG     1      18.158  38.427  21.225  1.00  0.00    -0.045 A 
HETATM    7  C   LIG     1      18.955  39.508  20.542  1.00  0.00     0.049 C 
ENDROOT
BRANCH   1   8
HETATM    8  C   LIG     1      18.743  36.694  19.460  1.00  0.00     0.176 C 
HETATM    9  O   LIG     1      18.126  36.692  18.362  1.00  0.00    -0.646 OA
BRANCH   8  10
HETATM   10  O   LIG     1      20.063  36.251  19.493  1.00  0.00    -0.773 OA
HETATM   11  H   LIG     1      20.838  36.873  19.299  1.00  0.00     0.167 HD
ENDBRANCH   8  10
ENDBRANCH   1   8
TORSDOF 2
ENDMDL
MODEL 12
REMARK VINA RESULT:      -6.0      3.514      4.486
REMARK  2 active torsions:
REMARK  status: ('A' for Active; 'I' for Inactive)
REMARK    1  A    between atoms: C_2  and  C_3 
REMARK    2  A    between atoms: C_2  and  O_10 
ROOT
HETATM    1  C   LIG     1      17.376  36.972  21.301  1.00  0.00     0.043 A 
HETATM    2  C   LIG     1      16.744  37.726  22.304  1.00  0.00     0.019 A 
HETATM    3  C   LIG     1      17.197  39.008  22.624  1.00  0.00     0.001 A 
HETATM    4  C   LIG     1      18.284  39.554  21.943  1.00  0.00     0.001 A 
HETATM    5  C   LIG     1      18.910  38.829  20.928  1.00  0.00     0.008 A 
HETATM    6  C   LIG     1      18.455  37.546  20.578  1.00  0.00    -0.045 A 
HETATM    7  C   LIG     1      19.136  36.830  19.441  1.00  0.00     0.049 C 
ENDROOT
BRANCH   1   8
HETATM    8  C   LIG     1      16.876  35.606  21.029  1.00  0.00     0.176 C 
HETATM    9  O   LIG     1      17.021  34.705  21.897  1.00  0.00    -0.646 OA
BRANCH   8  10
HETATM   10  O   LIG     1      16.289  35.280  19.809  1.00  0.00    -0.773 OA
HETATM   11  H   LIG     1      16.714  34.615  19.176  1.00  0.00     0.167 HD
ENDBRANCH   8  10
ENDBRANCH   1   8
TORSDOF 2
ENDMDL
MODEL 13
REMARK VINA RESULT:      -6.0      3.529      4.468
REMARK  2 active torsions:
REMARK  status: ('A' for Active; 'I' for Inactive)
REMARK    1  A    between atoms: C_2  and  C_3 
REMARK    2  A    between atoms: C_2  and  O_10 
ROOT
HETATM    1  C   LIG     1      18.548  38.661  20.625  1.00  0.00     0.043 A 
HETATM    2  C   LIG     1      18.285  39.394  21.795  1.00  0.00     0.019 A 
HETATM    3  C   LIG     1      17.558  38.827  22.843  1.00  0.00     0.001 A 
HETATM    4  C   LIG     1      17.088  37.518  22.739  1.00  0.00     0.001 A 
HETATM    5  C   LIG     1      17.358  36.767  21.594  1.00  0.00     0.008 A 
HETATM    6  C   LIG     1      18.106  37.314  20.537  1.00  0.00    -0.045 A 
HETATM    7  C   LIG     1      18.411  36.441  19.348  1.00  0.00     0.049 C 
ENDROOT
BRANCH   1   8
HETATM    8  C   LIG     1      19.292  39.325  19.532  1.00  0.00     0.176 C 
HETATM    9  O   LIG     1      20.551  39.342  19.555  1.00  0.00    -0.646 OA
BRANCH   8  10
HETATM   10  O   LIG     1      18.627  39.978  18.497  1.00  0.00    -0.773 OA
HETATM   11  H   LIG     1      19.004  40.010  17.559  1.00  0.00     0.167 HD
ENDBRANCH   8  10
ENDBRANCH   1   8
TORSDOF 2
ENDMDL
MODEL 14
REMARK VINA RESULT:      -5.8      8.689     10.674
REMARK  2 active torsions:
REMARK  status: ('A' for Active; 'I' for Inactive)
REMARK    1  A    between atoms: C_2  and  C_3 
REMARK    2  A    between atoms: C_2  and  O_10 
ROOT
HETATM    1  C   LIG     1      15.069  32.106  15.821  1.00  0.00     0.043 A 
HETATM    2  C   LIG     1      16.012  32.383  14.817  1.00  0.00     0.019 A 
HETATM    3  C   LIG     1      16.107  31.570  13.686  1.00  0.00     0.001 A 
HETATM    4  C   LIG     1      15.258  30.473  13.541  1.00  0.00     0.001 A 
HETATM    5  C   LIG     1      14.300  30.196  14.517  1.00  0.00     0.008 A 
HETATM    6  C   LIG     1      14.176  31.015  15.653  1.00  0.00    -0.045 A 
HETATM    7  C   LIG     1      13.091  30.699  16.649  1.00  0.00     0.049 C 
ENDROOT
BRANCH   1   8
HETATM    8  C   LIG     1      15.038  32.981  17.015  1.00  0.00     0.176 C 
HETATM    9  O   LIG     1      15.641  32.628  18.063  1.00  0.00    -0.646 OA
BRANCH   8  10
HETATM   10  O   LIG     1      14.311  34.169  17.022  1.00  0.00    -0.773 OA
HETATM   11  H   LIG     1      14.405  34.853  16.283  1.00  0.00     0.167 HD
ENDBRANCH   8  10
ENDBRANCH   1   8
TORSDOF 2
ENDMDL
MODEL 15
REMARK VINA RESULT:      -5.8      9.090     11.062
REMARK  2 active torsions:
REMARK  status: ('A' for Active; 'I' for Inactive)
REMARK    1  A    between atoms: C_2  and  C_3 
REMARK    2  A    between atoms: C_2  and  O_10 
ROOT
HETATM    1  C   LIG     1      15.586  31.814  14.941  1.00  0.00     0.043 A 
HETATM    2  C   LIG     1      15.260  30.737  14.099  1.00  0.00     0.019 A 
HETATM    3  C   LIG     1      14.170  29.912  14.387  1.00  0.00     0.001 A 
HETATM    4  C   LIG     1      13.390  30.156  15.516  1.00  0.00     0.001 A 
HETATM    5  C   LIG     1      13.685  31.234  16.352  1.00  0.00     0.008 A 
HETATM    6  C   LIG     1      14.765  32.087  16.067  1.00  0.00    -0.045 A 
HETATM    7  C   LIG     1      15.006  33.265  16.974  1.00  0.00     0.049 C 
ENDROOT
BRANCH   1   8
HETATM    8  C   LIG     1      16.773  32.632  14.606  1.00  0.00     0.176 C 
HETATM    9  O   LIG     1      16.715  33.456  13.655  1.00  0.00    -0.646 OA
BRANCH   8  10
HETATM   10  O   LIG     1      17.975  32.476  15.292  1.00  0.00    -0.773 OA
HETATM   11  H   LIG     1      18.742  31.941  14.905  1.00  0.00     0.167 HD
ENDBRANCH   8  10
ENDBRANCH   1   8
TORSDOF 2
ENDMDL
MODEL 16
REMARK VINA RESULT:      -5.7      3.603      4.891
REMARK  2 active torsions:
REMARK  status: ('A' for Active; 'I' for Inactive)
REMARK    1  A    between atoms: C_2  and  C_3 
REMARK    2  A    between atoms: C_2  and  O_10 
ROOT
HETATM    1  C   LIG     1      18.535  37.843  20.372  1.00  0.00     0.043 A 
HETATM    2  C   LIG     1      18.123  36.563  19.961  1.00  0.00     0.019 A 
HETATM    3  C   LIG     1      17.284  35.792  20.766  1.00  0.00     0.001 A 
HETATM    4  C   LIG     1      16.841  36.289  21.991  1.00  0.00     0.001 A 
HETATM    5  C   LIG     1      17.221  37.566  22.407  1.00  0.00     0.008 A 
HETATM    6  C   LIG     1      18.049  38.366  21.600  1.00  0.00    -0.045 A 
HETATM    7  C   LIG     1      18.386  39.755  22.075  1.00  0.00     0.049 C 
ENDROOT
BRANCH   1   8
HETATM    8  C   LIG     1      19.454  38.601  19.494  1.00  0.00     0.176 C 
HETATM    9  O   LIG     1      20.697  38.427  19.594  1.00  0.00    -0.646 OA
BRANCH   8  10
HETATM   10  O   LIG     1      18.974  39.544  18.588  1.00  0.00    -0.773 OA
HETATM   11  H   LIG     1      18.157  40.106  18.789  1.00  0.00     0.167 HD
ENDBRANCH   8  10
ENDBRANCH   1   8
TORSDOF 2
ENDMDL
MODEL 17
REMARK VINA RESULT:      -5.7      9.238     11.116
REMARK  2 active torsions:
REMARK  status: ('A' for Active; 'I' for Inactive)
REMARK    1  A    between atoms: C_2  and  C_3 
REMARK    2  A    between atoms: C_2  and  O_10 
ROOT
HETATM    1  C   LIG     1      14.224  31.268  15.892  1.00  0.00     0.043 A 
HETATM    2  C   LIG     1      13.946  30.115  15.138  1.00  0.00     0.019 A 
HETATM    3  C   LIG     1      14.648  29.848  13.961  1.00  0.00     0.001 A 
HETATM    4  C   LIG     1      15.640  30.725  13.525  1.00  0.00     0.001 A 
HETATM    5  C   LIG     1      15.945  31.864  14.273  1.00  0.00     0.008 A 
HETATM    6  C   LIG     1      15.263  32.139  15.471  1.00  0.00    -0.045 A 
HETATM    7  C   LIG     1      15.668  33.354  16.263  1.00  0.00     0.049 C 
ENDROOT
BRANCH   1   8
HETATM    8  C   LIG     1      13.423  31.519  17.112  1.00  0.00     0.176 C 
HETATM    9  O   LIG     1      12.238  31.932  17.005  1.00  0.00    -0.646 OA
BRANCH   8  10
HETATM   10  O   LIG     1      13.969  31.354  18.382  1.00  0.00    -0.773 OA
HETATM   11  H   LIG     1      14.831  31.808  18.653  1.00  0.00     0.167 HD
ENDBRANCH   8  10
ENDBRANCH   1   8
TORSDOF 2
ENDMDL
MODEL 18
REMARK VINA RESULT:      -5.6      9.457     10.713
REMARK  2 active torsions:
REMARK  status: ('A' for Active; 'I' for Inactive)
REMARK    1  A    between atoms: C_2  and  C_3 
REMARK    2  A    between atoms: C_2  and  O_10 
ROOT
HETATM    1  C   LIG     1      14.561  31.753  16.122  1.00  0.00     0.043 A 
HETATM    2  C   LIG     1      15.503  32.794  16.198  1.00  0.00     0.019 A 
HETATM    3  C   LIG     1      16.462  32.961  15.197  1.00  0.00     0.001 A 
HETATM    4  C   LIG     1      16.489  32.095  14.105  1.00  0.00     0.001 A 
HETATM    5  C   LIG     1      15.548  31.070  14.001  1.00  0.00     0.008 A 
HETATM    6  C   LIG     1      14.563  30.898  14.988  1.00  0.00    -0.045 A 
HETATM    7  C   LIG     1      13.541  29.807  14.799  1.00  0.00     0.049 C 
ENDROOT
BRANCH   1   8
HETATM    8  C   LIG     1      13.592  31.602  17.230  1.00  0.00     0.176 C 
HETATM    9  O   LIG     1      12.364  31.779  17.013  1.00  0.00    -0.646 OA
BRANCH   8  10
HETATM   10  O   LIG     1      14.014  31.313  18.525  1.00  0.00    -0.773 OA
HETATM   11  H   LIG     1      14.441  32.016  19.114  1.00  0.00     0.167 HD
ENDBRANCH   8  10
ENDBRANCH   1   8
TORSDOF 2
ENDMDL
MODEL 19
REMARK VINA RESULT:      -5.5      2.809      3.817
REMARK  2 active torsions:
REMARK  status: ('A' for Active; 'I' for Inactive)
REMARK    1  A    between atoms: C_2  and  C_3 
REMARK    2  A    between atoms: C_2  and  O_10 
ROOT
HETATM    1  C   LIG     1      17.629  37.122  21.341  1.00  0.00     0.043 A 
HETATM    2  C   LIG     1      17.898  38.500  21.413  1.00  0.00     0.019 A 
HETATM    3  C   LIG     1      17.631  39.218  22.581  1.00  0.00     0.001 A 
HETATM    4  C   LIG     1      17.097  38.569  23.692  1.00  0.00     0.001 A 
HETATM    5  C   LIG     1      16.844  37.197  23.647  1.00  0.00     0.008 A 
HETATM    6  C   LIG     1      17.125  36.453  22.488  1.00  0.00    -0.045 A 
HETATM    7  C   LIG     1      16.880  34.967  22.513  1.00  0.00     0.049 C 
ENDROOT
BRANCH   1   8
HETATM    8  C   LIG     1      17.899  36.420  20.067  1.00  0.00     0.176 C 
HETATM    9  O   LIG     1      16.984  35.750  19.518  1.00  0.00    -0.646 OA
BRANCH   8  10
HETATM   10  O   LIG     1      19.162  36.443  19.481  1.00  0.00    -0.773 OA
HETATM   11  H   LIG     1      19.353  36.987  18.650  1.00  0.00     0.167 HD
ENDBRANCH   8  10
ENDBRANCH   1   8
TORSDOF 2
ENDMDL
MODEL 20
REMARK VINA RESULT:      -5.3     10.183     11.545
REMARK  2 active torsions:
REMARK  status: ('A' for Active; 'I' for Inactive)
REMARK    1  A    between atoms: C_2  and  C_3 
REMARK    2  A    between atoms: C_2  and  O_10 
ROOT
HETATM    1  C   LIG     1      14.770  30.842  14.828  1.00  0.00     0.043 A 
HETATM    2  C   LIG     1      13.500  30.360  15.188  1.00  0.00     0.019 A 
HETATM    3  C   LIG     1      12.859  30.830  16.336  1.00  0.00     0.001 A 
HETATM    4  C   LIG     1      13.475  31.792  17.135  1.00  0.00     0.001 A 
HETATM    5  C   LIG     1      14.726  32.299  16.781  1.00  0.00     0.008 A 
HETATM    6  C   LIG     1      15.378  31.853  15.619  1.00  0.00    -0.045 A 
HETATM    7  C   LIG     1      16.703  32.472  15.258  1.00  0.00     0.049 C 
ENDROOT
BRANCH   1   8
HETATM    8  C   LIG     1      15.418  30.281  13.621  1.00  0.00     0.176 C 
HETATM    9  O   LIG     1      16.061  31.040  12.848  1.00  0.00    -0.646 OA
BRANCH   8  10
HETATM   10  O   LIG     1      15.291  28.933  13.293  1.00  0.00    -0.773 OA
HETATM   11  H   LIG     1      16.096  28.361  13.074  1.00  0.00     0.167 HD
ENDBRANCH   8  10
ENDBRANCH   1   8
TORSDOF 2
ENDMDL
