MODEL 1
REMARK VINA RESULT:      -5.2      0.000      0.000
REMARK  3 active torsions:
REMARK  status: ('A' for Active; 'I' for Inactive)
REMARK    1  A    between atoms: O_2  and  C_3 
REMARK    2  A    between atoms: C_7  and  C_8 
REMARK    3  A    between atoms: C_25  and  O_26 
ROOT
HETATM    1  C   LIG     1      27.007  24.063  26.208  1.00  0.00     0.102 A 
HETATM    2  C   LIG     1      25.591  23.945  26.164  1.00  0.00     0.040 A 
HETATM    3  C   LIG     1      24.955  23.252  25.124  1.00  0.00     0.014 A 
HETATM    4  C   LIG     1      25.738  22.686  24.123  1.00  0.00    -0.007 A 
HETATM    5  C   LIG     1      25.293  21.906  22.909  1.00  0.00     0.204 A 
HETATM    6  O   LIG     1      26.538  21.542  22.294  1.00  0.00    -0.304 OA
HETATM    7  C   LIG     1      27.603  22.062  23.017  1.00  0.00     0.297 A 
HETATM    8  C   LIG     1      27.108  22.780  24.166  1.00  0.00     0.084 A 
HETATM    9  C   LIG     1      27.788  23.459  25.180  1.00  0.00     0.118 A 
HETATM   10  O   LIG     1      28.811  21.915  22.698  1.00  0.00    -0.259 OA
ENDROOT
BRANCH   5  11
HETATM   11  C   LIG     1      24.406  22.741  21.946  1.00  0.00     0.289 C 
HETATM   12  C   LIG     1      25.154  23.151  20.687  1.00  0.00    -0.013 A 
HETATM   13  C   LIG     1      24.908  22.503  19.441  1.00  0.00    -0.045 A 
HETATM   14  C   LIG     1      26.106  24.197  20.752  1.00  0.00     0.049 A 
HETATM   15  C   LIG     1      23.861  21.432  19.306  1.00  0.00     0.069 C 
HETATM   16  C   LIG     1      25.617  22.902  18.287  1.00  0.00     0.047 A 
HETATM   17  C   LIG     1      23.338  20.924  20.657  1.00  0.00     0.277 C 
HETATM   18  N   LIG     1      23.152  22.005  21.646  1.00  0.00     0.096 N 
HETATM   19  C   LIG     1      22.056  22.915  21.266  1.00  0.00     0.310 C 
HETATM   20  C   LIG     1      26.551  23.923  18.411  1.00  0.00     0.105 A 
HETATM   21  C   LIG     1      26.785  24.545  19.591  1.00  0.00     0.105 A 
HETATM   22  O   LIG     1      27.360  24.472  17.434  1.00  0.00    -0.323 OA
HETATM   23  O   LIG     1      27.751  25.516  19.419  1.00  0.00    -0.323 OA
HETATM   24  C   LIG     1      28.151  25.503  18.041  1.00  0.00     0.352 A 
ENDBRANCH   5  11
BRANCH   9  25
HETATM   25  O   LIG     1      29.193  23.500  25.118  1.00  0.00    -0.352 OA
HETATM   26  C   LIG     1      29.981  24.591  24.656  1.00  0.00     0.210 C 
ENDBRANCH   9  25
BRANCH   1  27
HETATM   27  O   LIG     1      27.639  24.762  27.248  1.00  0.00    -0.353 OA
HETATM   28  C   LIG     1      26.975  25.312  28.380  1.00  0.00     0.210 C 
ENDBRANCH   1  27
TORSDOF 3
ENDMDL
MODEL 2
REMARK VINA RESULT:      -4.9      2.024      2.927
REMARK  3 active torsions:
REMARK  status: ('A' for Active; 'I' for Inactive)
REMARK    1  A    between atoms: O_2  and  C_3 
REMARK    2  A    between atoms: C_7  and  C_8 
REMARK    3  A    between atoms: C_25  and  O_26 
ROOT
HETATM    1  C   LIG     1      23.591  21.484  25.761  1.00  0.00     0.102 A 
HETATM    2  C   LIG     1      23.211  20.704  24.634  1.00  0.00     0.040 A 
HETATM    3  C   LIG     1      23.892  20.818  23.414  1.00  0.00     0.014 A 
HETATM    4  C   LIG     1      24.947  21.721  23.319  1.00  0.00    -0.007 A 
HETATM    5  C   LIG     1      25.819  22.027  22.126  1.00  0.00     0.204 A 
HETATM    6  O   LIG     1      26.750  22.984  22.652  1.00  0.00    -0.304 OA
HETATM    7  C   LIG     1      26.461  23.255  23.982  1.00  0.00     0.297 A 
HETATM    8  C   LIG     1      25.332  22.465  24.408  1.00  0.00     0.084 A 
HETATM    9  C   LIG     1      24.688  22.388  25.645  1.00  0.00     0.118 A 
HETATM   10  O   LIG     1      27.105  24.072  24.692  1.00  0.00    -0.259 OA
ENDROOT
BRANCH   5  11
HETATM   11  C   LIG     1      25.022  22.608  20.928  1.00  0.00     0.289 C 
HETATM   12  C   LIG     1      25.916  23.361  19.955  1.00  0.00    -0.013 A 
HETATM   13  C   LIG     1      26.285  22.790  18.701  1.00  0.00    -0.045 A 
HETATM   14  C   LIG     1      26.386  24.652  20.296  1.00  0.00     0.049 A 
HETATM   15  C   LIG     1      25.760  21.451  18.263  1.00  0.00     0.069 C 
HETATM   16  C   LIG     1      27.117  23.510  17.816  1.00  0.00     0.047 A 
HETATM   17  C   LIG     1      25.072  20.672  19.393  1.00  0.00     0.277 C 
HETATM   18  N   LIG     1      24.245  21.531  20.265  1.00  0.00     0.096 N 
HETATM   19  C   LIG     1      23.065  22.058  19.556  1.00  0.00     0.310 C 
HETATM   20  C   LIG     1      27.562  24.766  18.209  1.00  0.00     0.105 A 
HETATM   21  C   LIG     1      27.211  25.314  19.397  1.00  0.00     0.105 A 
HETATM   22  O   LIG     1      28.381  25.643  17.522  1.00  0.00    -0.323 OA
HETATM   23  O   LIG     1      27.789  26.562  19.518  1.00  0.00    -0.323 OA
HETATM   24  C   LIG     1      28.553  26.814  18.331  1.00  0.00     0.352 A 
ENDBRANCH   5  11
BRANCH   9  25
HETATM   25  O   LIG     1      25.161  23.205  26.687  1.00  0.00    -0.352 OA
HETATM   26  C   LIG     1      25.968  22.786  27.782  1.00  0.00     0.210 C 
ENDBRANCH   9  25
BRANCH   1  27
HETATM   27  O   LIG     1      22.905  21.370  26.979  1.00  0.00    -0.353 OA
HETATM   28  C   LIG     1      22.955  20.236  27.839  1.00  0.00     0.210 C 
ENDBRANCH   1  27
TORSDOF 3
ENDMDL
MODEL 3
REMARK VINA RESULT:      -4.8      1.854      6.477
REMARK  3 active torsions:
REMARK  status: ('A' for Active; 'I' for Inactive)
REMARK    1  A    between atoms: O_2  and  C_3 
REMARK    2  A    between atoms: C_7  and  C_8 
REMARK    3  A    between atoms: C_25  and  O_26 
ROOT
HETATM    1  C   LIG     1      28.472  23.001  16.918  1.00  0.00     0.102 A 
HETATM    2  C   LIG     1      27.875  21.713  16.992  1.00  0.00     0.040 A 
HETATM    3  C   LIG     1      26.810  21.459  17.867  1.00  0.00     0.014 A 
HETATM    4  C   LIG     1      26.350  22.493  18.677  1.00  0.00    -0.007 A 
HETATM    5  C   LIG     1      25.234  22.466  19.694  1.00  0.00     0.204 A 
HETATM    6  O   LIG     1      25.195  23.824  20.155  1.00  0.00    -0.304 OA
HETATM    7  C   LIG     1      26.181  24.574  19.529  1.00  0.00     0.297 A 
HETATM    8  C   LIG     1      26.909  23.745  18.599  1.00  0.00     0.084 A 
HETATM    9  C   LIG     1      27.970  24.050  17.744  1.00  0.00     0.118 A 
HETATM   10  O   LIG     1      26.389  25.795  19.755  1.00  0.00    -0.259 OA
ENDROOT
BRANCH   5  11
HETATM   11  C   LIG     1      25.503  21.477  20.860  1.00  0.00     0.289 C 
HETATM   12  C   LIG     1      25.616  22.187  22.200  1.00  0.00    -0.013 A 
HETATM   13  C   LIG     1      24.555  22.135  23.152  1.00  0.00    -0.045 A 
HETATM   14  C   LIG     1      26.795  22.907  22.510  1.00  0.00     0.049 A 
HETATM   15  C   LIG     1      23.311  21.330  22.897  1.00  0.00     0.069 C 
HETATM   16  C   LIG     1      24.685  22.803  24.389  1.00  0.00     0.047 A 
HETATM   17  C   LIG     1      23.184  20.854  21.443  1.00  0.00     0.277 C 
HETATM   18  N   LIG     1      24.471  20.411  20.869  1.00  0.00     0.096 N 
HETATM   19  C   LIG     1      24.960  19.174  21.506  1.00  0.00     0.310 C 
HETATM   20  C   LIG     1      25.856  23.509  24.635  1.00  0.00     0.105 A 
HETATM   21  C   LIG     1      26.868  23.557  23.735  1.00  0.00     0.105 A 
HETATM   22  O   LIG     1      26.202  24.237  25.757  1.00  0.00    -0.323 OA
HETATM   23  O   LIG     1      27.902  24.318  24.244  1.00  0.00    -0.323 OA
HETATM   24  C   LIG     1      27.514  24.777  25.547  1.00  0.00     0.352 A 
ENDBRANCH   5  11
BRANCH   9  25
HETATM   25  O   LIG     1      28.470  25.364  17.756  1.00  0.00    -0.352 OA
HETATM   26  C   LIG     1      29.650  25.807  18.417  1.00  0.00     0.210 C 
ENDBRANCH   9  25
BRANCH   1  27
HETATM   27  O   LIG     1      29.541  23.250  16.044  1.00  0.00    -0.353 OA
HETATM   28  C   LIG     1      29.409  23.767  14.723  1.00  0.00     0.210 C 
ENDBRANCH   1  27
TORSDOF 3
ENDMDL
MODEL 4
REMARK VINA RESULT:      -4.8      3.178      5.927
REMARK  3 active torsions:
REMARK  status: ('A' for Active; 'I' for Inactive)
REMARK    1  A    between atoms: O_2  and  C_3 
REMARK    2  A    between atoms: C_7  and  C_8 
REMARK    3  A    between atoms: C_25  and  O_26 
ROOT
HETATM    1  C   LIG     1      25.668  21.971  22.160  1.00  0.00     0.102 A 
HETATM    2  C   LIG     1      26.579  22.937  22.670  1.00  0.00     0.040 A 
HETATM    3  C   LIG     1      27.040  23.989  21.867  1.00  0.00     0.014 A 
HETATM    4  C   LIG     1      26.598  24.069  20.550  1.00  0.00    -0.007 A 
HETATM    5  C   LIG     1      26.954  25.092  19.499  1.00  0.00     0.204 A 
HETATM    6  O   LIG     1      26.153  24.685  18.379  1.00  0.00    -0.304 OA
HETATM    7  C   LIG     1      25.432  23.541  18.693  1.00  0.00     0.297 A 
HETATM    8  C   LIG     1      25.705  23.150  20.054  1.00  0.00     0.084 A 
HETATM    9  C   LIG     1      25.216  22.084  20.812  1.00  0.00     0.118 A 
HETATM   10  O   LIG     1      24.659  22.952  17.893  1.00  0.00    -0.259 OA
ENDROOT
BRANCH   5  11
HETATM   11  C   LIG     1      28.465  25.097  19.146  1.00  0.00     0.289 C 
HETATM   12  C   LIG     1      28.730  24.560  17.748  1.00  0.00    -0.013 A 
HETATM   13  C   LIG     1      29.056  25.437  16.672  1.00  0.00    -0.045 A 
HETATM   14  C   LIG     1      28.657  23.165  17.512  1.00  0.00     0.049 A 
HETATM   15  C   LIG     1      29.210  26.917  16.885  1.00  0.00     0.069 C 
HETATM   16  C   LIG     1      29.296  24.913  15.383  1.00  0.00     0.047 A 
HETATM   17  C   LIG     1      28.695  27.389  18.252  1.00  0.00     0.277 C 
HETATM   18  N   LIG     1      29.029  26.455  19.347  1.00  0.00     0.096 N 
HETATM   19  C   LIG     1      30.479  26.417  19.613  1.00  0.00     0.310 C 
HETATM   20  C   LIG     1      29.195  23.538  15.204  1.00  0.00     0.105 A 
HETATM   21  C   LIG     1      28.890  22.701  16.224  1.00  0.00     0.105 A 
HETATM   22  O   LIG     1      29.377  22.806  14.046  1.00  0.00    -0.323 OA
HETATM   23  O   LIG     1      28.864  21.400  15.761  1.00  0.00    -0.323 OA
HETATM   24  C   LIG     1      29.172  21.422  14.361  1.00  0.00     0.352 A 
ENDBRANCH   5  11
BRANCH   9  25
HETATM   25  O   LIG     1      24.313  21.198  20.198  1.00  0.00    -0.352 OA
HETATM   26  C   LIG     1      24.632  19.930  19.636  1.00  0.00     0.210 C 
ENDBRANCH   9  25
BRANCH   1  27
HETATM   27  O   LIG     1      25.212  20.916  22.964  1.00  0.00    -0.353 OA
HETATM   28  C   LIG     1      24.015  20.939  23.734  1.00  0.00     0.210 C 
ENDBRANCH   1  27
TORSDOF 3
ENDMDL
MODEL 5
REMARK VINA RESULT:      -4.7      9.019     12.787
REMARK  3 active torsions:
REMARK  status: ('A' for Active; 'I' for Inactive)
REMARK    1  A    between atoms: O_2  and  C_3 
REMARK    2  A    between atoms: C_7  and  C_8 
REMARK    3  A    between atoms: C_25  and  O_26 
ROOT
HETATM    1  C   LIG     1      28.628  23.682  32.350  1.00  0.00     0.102 A 
HETATM    2  C   LIG     1      28.582  23.837  33.763  1.00  0.00     0.040 A 
HETATM    3  C   LIG     1      28.030  24.986  34.346  1.00  0.00     0.014 A 
HETATM    4  C   LIG     1      27.533  25.985  33.514  1.00  0.00    -0.007 A 
HETATM    5  C   LIG     1      26.904  27.303  33.898  1.00  0.00     0.204 A 
HETATM    6  O   LIG     1      26.548  27.864  32.627  1.00  0.00    -0.304 OA
HETATM    7  C   LIG     1      26.940  27.017  31.599  1.00  0.00     0.297 A 
HETATM    8  C   LIG     1      27.558  25.836  32.148  1.00  0.00     0.084 A 
HETATM    9  C   LIG     1      28.096  24.711  31.519  1.00  0.00     0.118 A 
HETATM   10  O   LIG     1      26.769  27.265  30.376  1.00  0.00    -0.259 OA
ENDROOT
BRANCH   5  11
HETATM   11  C   LIG     1      27.874  28.230  34.678  1.00  0.00     0.289 C 
HETATM   12  C   LIG     1      28.334  29.413  33.840  1.00  0.00    -0.013 A 
HETATM   13  C   LIG     1      27.809  30.720  34.061  1.00  0.00    -0.045 A 
HETATM   14  C   LIG     1      29.304  29.215  32.827  1.00  0.00     0.049 A 
HETATM   15  C   LIG     1      26.827  30.996  35.166  1.00  0.00     0.069 C 
HETATM   16  C   LIG     1      28.253  31.802  33.268  1.00  0.00     0.047 A 
HETATM   17  C   LIG     1      26.247  29.720  35.791  1.00  0.00     0.277 C 
HETATM   18  N   LIG     1      27.254  28.651  35.959  1.00  0.00     0.096 N 
HETATM   19  C   LIG     1      28.265  29.003  36.973  1.00  0.00     0.310 C 
HETATM   20  C   LIG     1      29.194  31.547  32.278  1.00  0.00     0.105 A 
HETATM   21  C   LIG     1      29.698  30.308  32.067  1.00  0.00     0.105 A 
HETATM   22  O   LIG     1      29.764  32.435  31.385  1.00  0.00    -0.323 OA
HETATM   23  O   LIG     1      30.611  30.351  31.033  1.00  0.00    -0.323 OA
HETATM   24  C   LIG     1      30.685  31.705  30.562  1.00  0.00     0.352 A 
ENDBRANCH   5  11
BRANCH   9  25
HETATM   25  O   LIG     1      28.078  24.671  30.113  1.00  0.00    -0.352 OA
HETATM   26  C   LIG     1      29.183  24.918  29.251  1.00  0.00     0.210 C 
ENDBRANCH   9  25
BRANCH   1  27
HETATM   27  O   LIG     1      29.186  22.533  31.770  1.00  0.00    -0.353 OA
HETATM   28  C   LIG     1      29.747  21.444  32.496  1.00  0.00     0.210 C 
ENDBRANCH   1  27
TORSDOF 3
ENDMDL
MODEL 6
REMARK VINA RESULT:      -4.3      4.114      8.333
REMARK  3 active torsions:
REMARK  status: ('A' for Active; 'I' for Inactive)
REMARK    1  A    between atoms: O_2  and  C_3 
REMARK    2  A    between atoms: C_7  and  C_8 
REMARK    3  A    between atoms: C_25  and  O_26 
ROOT
HETATM    1  C   LIG     1      23.310  21.782  21.278  1.00  0.00     0.102 A 
HETATM    2  C   LIG     1      23.987  22.912  21.814  1.00  0.00     0.040 A 
HETATM    3  C   LIG     1      24.755  22.808  22.982  1.00  0.00     0.014 A 
HETATM    4  C   LIG     1      24.836  21.573  23.620  1.00  0.00    -0.007 A 
HETATM    5  C   LIG     1      25.585  21.213  24.881  1.00  0.00     0.204 A 
HETATM    6  O   LIG     1      25.340  19.804  25.001  1.00  0.00    -0.304 OA
HETATM    7  C   LIG     1      24.518  19.368  23.971  1.00  0.00     0.297 A 
HETATM    8  C   LIG     1      24.200  20.472  23.100  1.00  0.00     0.084 A 
HETATM    9  C   LIG     1      23.424  20.524  21.939  1.00  0.00     0.118 A 
HETATM   10  O   LIG     1      24.125  18.180  23.837  1.00  0.00    -0.259 OA
ENDROOT
BRANCH   5  11
HETATM   11  C   LIG     1      25.078  21.988  26.127  1.00  0.00     0.289 C 
HETATM   12  C   LIG     1      24.140  21.149  26.981  1.00  0.00    -0.013 A 
HETATM   13  C   LIG     1      24.577  20.582  28.214  1.00  0.00    -0.045 A 
HETATM   14  C   LIG     1      22.809  20.933  26.548  1.00  0.00     0.049 A 
HETATM   15  C   LIG     1      25.959  20.837  28.750  1.00  0.00     0.069 C 
HETATM   16  C   LIG     1      23.686  19.807  28.988  1.00  0.00     0.047 A 
HETATM   17  C   LIG     1      26.897  21.481  27.721  1.00  0.00     0.277 C 
HETATM   18  N   LIG     1      26.231  22.513  26.900  1.00  0.00     0.096 N 
HETATM   19  C   LIG     1      25.866  23.698  27.698  1.00  0.00     0.310 C 
HETATM   20  C   LIG     1      22.396  19.613  28.508  1.00  0.00     0.105 A 
HETATM   21  C   LIG     1      21.976  20.154  27.339  1.00  0.00     0.105 A 
HETATM   22  O   LIG     1      21.363  18.895  29.081  1.00  0.00    -0.323 OA
HETATM   23  O   LIG     1      20.659  19.805  27.116  1.00  0.00    -0.323 OA
HETATM   24  C   LIG     1      20.224  18.992  28.215  1.00  0.00     0.352 A 
ENDBRANCH   5  11
BRANCH   9  25
HETATM   25  O   LIG     1      22.809  19.337  21.504  1.00  0.00    -0.352 OA
HETATM   26  C   LIG     1      23.263  18.494  20.451  1.00  0.00     0.210 C 
ENDBRANCH   9  25
BRANCH   1  27
HETATM   27  O   LIG     1      22.538  21.892  20.112  1.00  0.00    -0.353 OA
HETATM   28  C   LIG     1      23.052  21.816  18.786  1.00  0.00     0.210 C 
ENDBRANCH   1  27
TORSDOF 3
ENDMDL
MODEL 7
REMARK VINA RESULT:      -4.2      1.972      2.732
REMARK  3 active torsions:
REMARK  status: ('A' for Active; 'I' for Inactive)
REMARK    1  A    between atoms: O_2  and  C_3 
REMARK    2  A    between atoms: C_7  and  C_8 
REMARK    3  A    between atoms: C_25  and  O_26 
ROOT
HETATM    1  C   LIG     1      26.298  24.231  25.727  1.00  0.00     0.102 A 
HETATM    2  C   LIG     1      25.120  23.444  25.606  1.00  0.00     0.040 A 
HETATM    3  C   LIG     1      24.926  22.596  24.506  1.00  0.00     0.014 A 
HETATM    4  C   LIG     1      25.908  22.546  23.521  1.00  0.00    -0.007 A 
HETATM    5  C   LIG     1      25.927  21.727  22.253  1.00  0.00     0.204 A 
HETATM    6  O   LIG     1      27.204  22.053  21.686  1.00  0.00    -0.304 OA
HETATM    7  C   LIG     1      27.864  22.977  22.484  1.00  0.00     0.297 A 
HETATM    8  C   LIG     1      27.057  23.290  23.638  1.00  0.00     0.084 A 
HETATM    9  C   LIG     1      27.297  24.148  24.714  1.00  0.00     0.118 A 
HETATM   10  O   LIG     1      28.998  23.455  22.220  1.00  0.00    -0.259 OA
ENDROOT
BRANCH   5  11
HETATM   11  C   LIG     1      24.768  22.085  21.285  1.00  0.00     0.289 C 
HETATM   12  C   LIG     1      24.801  21.249  20.015  1.00  0.00    -0.013 A 
HETATM   13  C   LIG     1      23.883  20.178  19.814  1.00  0.00    -0.045 A 
HETATM   14  C   LIG     1      25.757  21.543  19.013  1.00  0.00     0.049 A 
HETATM   15  C   LIG     1      22.807  19.868  20.818  1.00  0.00     0.069 C 
HETATM   16  C   LIG     1      23.936  19.416  18.626  1.00  0.00     0.047 A 
HETATM   17  C   LIG     1      23.000  20.595  22.156  1.00  0.00     0.277 C 
HETATM   18  N   LIG     1      23.467  21.987  21.993  1.00  0.00     0.096 N 
HETATM   19  C   LIG     1      22.436  22.843  21.377  1.00  0.00     0.310 C 
HETATM   20  C   LIG     1      24.905  19.738  17.683  1.00  0.00     0.105 A 
HETATM   21  C   LIG     1      25.777  20.757  17.868  1.00  0.00     0.105 A 
HETATM   22  O   LIG     1      25.151  19.137  16.463  1.00  0.00    -0.323 OA
HETATM   23  O   LIG     1      26.615  20.851  16.775  1.00  0.00    -0.323 OA
HETATM   24  C   LIG     1      26.247  19.823  15.844  1.00  0.00     0.352 A 
ENDBRANCH   5  11
BRANCH   9  25
HETATM   25  O   LIG     1      28.504  24.869  24.724  1.00  0.00    -0.352 OA
HETATM   26  C   LIG     1      28.698  26.190  24.229  1.00  0.00     0.210 C 
ENDBRANCH   9  25
BRANCH   1  27
HETATM   27  O   LIG     1      26.485  25.081  26.827  1.00  0.00    -0.353 OA
HETATM   28  C   LIG     1      26.571  24.653  28.182  1.00  0.00     0.210 C 
ENDBRANCH   1  27
TORSDOF 3
ENDMDL
MODEL 8
REMARK VINA RESULT:      -4.1      2.667      6.456
REMARK  3 active torsions:
REMARK  status: ('A' for Active; 'I' for Inactive)
REMARK    1  A    between atoms: O_2  and  C_3 
REMARK    2  A    between atoms: C_7  and  C_8 
REMARK    3  A    between atoms: C_25  and  O_26 
ROOT
HETATM    1  C   LIG     1      29.229  24.021  17.628  1.00  0.00     0.102 A 
HETATM    2  C   LIG     1      28.965  22.765  17.015  1.00  0.00     0.040 A 
HETATM    3  C   LIG     1      27.753  22.095  17.234  1.00  0.00     0.014 A 
HETATM    4  C   LIG     1      26.811  22.677  18.076  1.00  0.00    -0.007 A 
HETATM    5  C   LIG     1      25.451  22.153  18.470  1.00  0.00     0.204 A 
HETATM    6  O   LIG     1      24.935  23.205  19.299  1.00  0.00    -0.304 OA
HETATM    7  C   LIG     1      25.871  24.222  19.424  1.00  0.00     0.297 A 
HETATM    8  C   LIG     1      27.050  23.898  18.659  1.00  0.00     0.084 A 
HETATM    9  C   LIG     1      28.239  24.606  18.472  1.00  0.00     0.118 A 
HETATM   10  O   LIG     1      25.695  25.264  20.109  1.00  0.00    -0.259 OA
ENDROOT
BRANCH   5  11
HETATM   11  C   LIG     1      25.522  20.806  19.239  1.00  0.00     0.289 C 
HETATM   12  C   LIG     1      24.960  20.920  20.648  1.00  0.00    -0.013 A 
HETATM   13  C   LIG     1      23.679  20.388  20.975  1.00  0.00    -0.045 A 
HETATM   14  C   LIG     1      25.725  21.559  21.654  1.00  0.00     0.049 A 
HETATM   15  C   LIG     1      22.856  19.643  19.960  1.00  0.00     0.069 C 
HETATM   16  C   LIG     1      23.180  20.507  22.290  1.00  0.00     0.047 A 
HETATM   17  C   LIG     1      23.386  19.787  18.527  1.00  0.00     0.277 C 
HETATM   18  N   LIG     1      24.861  19.736  18.451  1.00  0.00     0.096 N 
HETATM   19  C   LIG     1      25.382  18.399  18.789  1.00  0.00     0.310 C 
HETATM   20  C   LIG     1      23.965  21.159  23.234  1.00  0.00     0.105 A 
HETATM   21  C   LIG     1      25.185  21.662  22.929  1.00  0.00     0.105 A 
HETATM   22  O   LIG     1      23.688  21.400  24.566  1.00  0.00    -0.323 OA
HETATM   23  O   LIG     1      25.738  22.244  24.052  1.00  0.00    -0.323 OA
HETATM   24  C   LIG     1      24.805  22.098  25.132  1.00  0.00     0.352 A 
ENDBRANCH   5  11
BRANCH   9  25
HETATM   25  O   LIG     1      28.380  25.842  19.126  1.00  0.00    -0.352 OA
HETATM   26  C   LIG     1      28.100  27.123  18.572  1.00  0.00     0.210 C 
ENDBRANCH   9  25
BRANCH   1  27
HETATM   27  O   LIG     1      30.444  24.687  17.410  1.00  0.00    -0.353 OA
HETATM   28  C   LIG     1      30.684  25.620  16.361  1.00  0.00     0.210 C 
ENDBRANCH   1  27
TORSDOF 3
ENDMDL
MODEL 9
REMARK VINA RESULT:      -4.1      3.416      7.802
REMARK  3 active torsions:
REMARK  status: ('A' for Active; 'I' for Inactive)
REMARK    1  A    between atoms: O_2  and  C_3 
REMARK    2  A    between atoms: C_7  and  C_8 
REMARK    3  A    between atoms: C_25  and  O_26 
ROOT
HETATM    1  C   LIG     1      25.833  23.632  20.214  1.00  0.00     0.102 A 
HETATM    2  C   LIG     1      26.812  23.884  21.214  1.00  0.00     0.040 A 
HETATM    3  C   LIG     1      26.756  23.241  22.458  1.00  0.00     0.014 A 
HETATM    4  C   LIG     1      25.713  22.354  22.705  1.00  0.00    -0.007 A 
HETATM    5  C   LIG     1      25.434  21.554  23.955  1.00  0.00     0.204 A 
HETATM    6  O   LIG     1      24.273  20.793  23.590  1.00  0.00    -0.304 OA
HETATM    7  C   LIG     1      23.872  21.113  22.300  1.00  0.00     0.297 A 
HETATM    8  C   LIG     1      24.772  22.091  21.739  1.00  0.00     0.084 A 
HETATM    9  C   LIG     1      24.784  22.704  20.484  1.00  0.00     0.118 A 
HETATM   10  O   LIG     1      22.871  20.611  21.727  1.00  0.00    -0.259 OA
ENDROOT
BRANCH   5  11
HETATM   11  C   LIG     1      25.163  22.446  25.196  1.00  0.00     0.289 C 
HETATM   12  C   LIG     1      24.561  21.657  26.349  1.00  0.00    -0.013 A 
HETATM   13  C   LIG     1      25.346  21.299  27.484  1.00  0.00    -0.045 A 
HETATM   14  C   LIG     1      23.198  21.278  26.297  1.00  0.00     0.049 A 
HETATM   15  C   LIG     1      26.779  21.734  27.617  1.00  0.00     0.069 C 
HETATM   16  C   LIG     1      24.763  20.566  28.541  1.00  0.00     0.047 A 
HETATM   17  C   LIG     1      27.360  22.308  26.317  1.00  0.00     0.277 C 
HETATM   18  N   LIG     1      26.402  23.163  25.586  1.00  0.00     0.096 N 
HETATM   19  C   LIG     1      26.112  24.411  26.315  1.00  0.00     0.310 C 
HETATM   20  C   LIG     1      23.426  20.206  28.431  1.00  0.00     0.105 A 
HETATM   21  C   LIG     1      22.676  20.548  27.357  1.00  0.00     0.105 A 
HETATM   22  O   LIG     1      22.651  19.490  29.325  1.00  0.00    -0.323 OA
HETATM   23  O   LIG     1      21.391  20.066  27.518  1.00  0.00    -0.323 OA
HETATM   24  C   LIG     1      21.332  19.377  28.774  1.00  0.00     0.352 A 
ENDBRANCH   5  11
BRANCH   9  25
HETATM   25  O   LIG     1      23.765  22.367  19.576  1.00  0.00    -0.352 OA
HETATM   26  C   LIG     1      23.897  21.514  18.444  1.00  0.00     0.210 C 
ENDBRANCH   9  25
BRANCH   1  27
HETATM   27  O   LIG     1      25.890  24.281  18.971  1.00  0.00    -0.353 OA
HETATM   28  C   LIG     1      26.595  25.491  18.717  1.00  0.00     0.210 C 
ENDBRANCH   1  27
TORSDOF 3
ENDMDL
MODEL 10
REMARK VINA RESULT:      -4.0      2.979      4.469
REMARK  3 active torsions:
REMARK  status: ('A' for Active; 'I' for Inactive)
REMARK    1  A    between atoms: O_2  and  C_3 
REMARK    2  A    between atoms: C_7  and  C_8 
REMARK    3  A    between atoms: C_25  and  O_26 
ROOT
HETATM    1  C   LIG     1      27.751  24.511  29.185  1.00  0.00     0.102 A 
HETATM    2  C   LIG     1      27.094  23.267  29.393  1.00  0.00     0.040 A 
HETATM    3  C   LIG     1      26.589  22.527  28.315  1.00  0.00     0.014 A 
HETATM    4  C   LIG     1      26.732  23.038  27.029  1.00  0.00    -0.007 A 
HETATM    5  C   LIG     1      26.271  22.440  25.722  1.00  0.00     0.204 A 
HETATM    6  O   LIG     1      26.749  23.387  24.755  1.00  0.00    -0.304 OA
HETATM    7  C   LIG     1      27.386  24.444  25.390  1.00  0.00     0.297 A 
HETATM    8  C   LIG     1      27.380  24.231  26.817  1.00  0.00     0.084 A 
HETATM    9  C   LIG     1      27.901  25.005  27.856  1.00  0.00     0.118 A 
HETATM   10  O   LIG     1      27.888  25.430  24.789  1.00  0.00    -0.259 OA
ENDROOT
BRANCH   5  11
HETATM   11  C   LIG     1      24.730  22.275  25.643  1.00  0.00     0.289 C 
HETATM   12  C   LIG     1      24.276  21.762  24.285  1.00  0.00    -0.013 A 
HETATM   13  C   LIG     1      23.861  20.409  24.111  1.00  0.00    -0.045 A 
HETATM   14  C   LIG     1      24.260  22.643  23.177  1.00  0.00     0.049 A 
HETATM   15  C   LIG     1      23.797  19.452  25.269  1.00  0.00     0.069 C 
HETATM   16  C   LIG     1      23.446  19.957  22.840  1.00  0.00     0.047 A 
HETATM   17  C   LIG     1      24.493  19.982  26.531  1.00  0.00     0.277 C 
HETATM   18  N   LIG     1      24.253  21.421  26.759  1.00  0.00     0.096 N 
HETATM   19  C   LIG     1      22.845  21.696  27.102  1.00  0.00     0.310 C 
HETATM   20  C   LIG     1      23.465  20.859  21.783  1.00  0.00     0.105 A 
HETATM   21  C   LIG     1      23.855  22.146  21.945  1.00  0.00     0.105 A 
HETATM   22  O   LIG     1      23.114  20.647  20.463  1.00  0.00    -0.323 OA
HETATM   23  O   LIG     1      23.768  22.810  20.737  1.00  0.00    -0.323 OA
HETATM   24  C   LIG     1      23.295  21.880  19.753  1.00  0.00     0.352 A 
ENDBRANCH   5  11
BRANCH   9  25
HETATM   25  O   LIG     1      28.536  26.215  27.523  1.00  0.00    -0.352 OA
HETATM   26  C   LIG     1      29.941  26.438  27.464  1.00  0.00     0.210 C 
ENDBRANCH   9  25
BRANCH   1  27
HETATM   27  O   LIG     1      28.251  25.251  30.268  1.00  0.00    -0.353 OA
HETATM   28  C   LIG     1      29.212  24.774  31.204  1.00  0.00     0.210 C 
ENDBRANCH   1  27
TORSDOF 3
ENDMDL
MODEL 11
REMARK VINA RESULT:      -4.0      2.430      7.083
REMARK  3 active torsions:
REMARK  status: ('A' for Active; 'I' for Inactive)
REMARK    1  A    between atoms: O_2  and  C_3 
REMARK    2  A    between atoms: C_7  and  C_8 
REMARK    3  A    between atoms: C_25  and  O_26 
ROOT
HETATM    1  C   LIG     1      25.270  22.516  19.460  1.00  0.00     0.102 A 
HETATM    2  C   LIG     1      25.814  23.829  19.405  1.00  0.00     0.040 A 
HETATM    3  C   LIG     1      26.842  24.222  20.274  1.00  0.00     0.014 A 
HETATM    4  C   LIG     1      27.317  23.304  21.205  1.00  0.00    -0.007 A 
HETATM    5  C   LIG     1      28.400  23.490  22.241  1.00  0.00     0.204 A 
HETATM    6  O   LIG     1      28.478  22.193  22.851  1.00  0.00    -0.304 OA
HETATM    7  C   LIG     1      27.540  21.338  22.288  1.00  0.00     0.297 A 
HETATM    8  C   LIG     1      26.810  22.028  21.254  1.00  0.00     0.084 A 
HETATM    9  C   LIG     1      25.787  21.588  20.411  1.00  0.00     0.118 A 
HETATM   10  O   LIG     1      27.373  20.142  22.643  1.00  0.00    -0.259 OA
ENDROOT
BRANCH   5  11
HETATM   11  C   LIG     1      28.059  24.589  23.281  1.00  0.00     0.289 C 
HETATM   12  C   LIG     1      27.471  24.008  24.558  1.00  0.00    -0.013 A 
HETATM   13  C   LIG     1      28.248  23.918  25.751  1.00  0.00    -0.045 A 
HETATM   14  C   LIG     1      26.130  23.556  24.565  1.00  0.00     0.049 A 
HETATM   15  C   LIG     1      29.655  24.445  25.814  1.00  0.00     0.069 C 
HETATM   16  C   LIG     1      27.679  23.373  26.923  1.00  0.00     0.047 A 
HETATM   17  C   LIG     1      30.235  24.786  24.434  1.00  0.00     0.277 C 
HETATM   18  N   LIG     1      29.253  25.432  23.540  1.00  0.00     0.096 N 
HETATM   19  C   LIG     1      28.886  26.781  24.010  1.00  0.00     0.310 C 
HETATM   20  C   LIG     1      26.363  22.929  26.869  1.00  0.00     0.105 A 
HETATM   21  C   LIG     1      25.621  23.017  25.740  1.00  0.00     0.105 A 
HETATM   22  O   LIG     1      25.605  22.360  27.875  1.00  0.00    -0.323 OA
HETATM   23  O   LIG     1      24.358  22.510  25.976  1.00  0.00    -0.323 OA
HETATM   24  C   LIG     1      24.305  22.074  27.342  1.00  0.00     0.352 A 
ENDBRANCH   5  11
BRANCH   9  25
HETATM   25  O   LIG     1      25.337  20.263  20.557  1.00  0.00    -0.352 OA
HETATM   26  C   LIG     1      25.676  19.164  19.718  1.00  0.00     0.210 C 
ENDBRANCH   9  25
BRANCH   1  27
HETATM   27  O   LIG     1      24.238  22.128  18.593  1.00  0.00    -0.353 OA
HETATM   28  C   LIG     1      22.894  21.875  18.988  1.00  0.00     0.210 C 
ENDBRANCH   1  27
TORSDOF 3
ENDMDL
MODEL 12
REMARK VINA RESULT:      -3.9      8.152     14.075
REMARK  3 active torsions:
REMARK  status: ('A' for Active; 'I' for Inactive)
REMARK    1  A    between atoms: O_2  and  C_3 
REMARK    2  A    between atoms: C_7  and  C_8 
REMARK    3  A    between atoms: C_25  and  O_26 
ROOT
HETATM    1  C   LIG     1      29.133  23.627  31.020  1.00  0.00     0.102 A 
HETATM    2  C   LIG     1      29.304  23.120  32.338  1.00  0.00     0.040 A 
HETATM    3  C   LIG     1      28.725  23.764  33.441  1.00  0.00     0.014 A 
HETATM    4  C   LIG     1      27.984  24.922  33.225  1.00  0.00    -0.007 A 
HETATM    5  C   LIG     1      27.277  25.789  34.238  1.00  0.00     0.204 A 
HETATM    6  O   LIG     1      26.651  26.786  33.418  1.00  0.00    -0.304 OA
HETATM    7  C   LIG     1      26.964  26.578  32.082  1.00  0.00     0.297 A 
HETATM    8  C   LIG     1      27.799  25.409  31.953  1.00  0.00     0.084 A 
HETATM    9  C   LIG     1      28.354  24.804  30.823  1.00  0.00     0.118 A 
HETATM   10  O   LIG     1      26.566  27.312  31.140  1.00  0.00    -0.259 OA
ENDROOT
BRANCH   5  11
HETATM   11  C   LIG     1      28.246  26.427  35.269  1.00  0.00     0.289 C 
HETATM   12  C   LIG     1      27.594  27.561  36.045  1.00  0.00    -0.013 A 
HETATM   13  C   LIG     1      27.177  27.383  37.397  1.00  0.00    -0.045 A 
HETATM   14  C   LIG     1      27.403  28.815  35.417  1.00  0.00     0.049 A 
HETATM   15  C   LIG     1      27.417  26.092  38.129  1.00  0.00     0.069 C 
HETATM   16  C   LIG     1      26.573  28.452  38.095  1.00  0.00     0.047 A 
HETATM   17  C   LIG     1      27.854  24.945  37.207  1.00  0.00     0.277 C 
HETATM   18  N   LIG     1      28.802  25.378  36.160  1.00  0.00     0.096 N 
HETATM   19  C   LIG     1      30.106  25.768  36.726  1.00  0.00     0.310 C 
HETATM   20  C   LIG     1      26.395  29.656  37.424  1.00  0.00     0.105 A 
HETATM   21  C   LIG     1      26.793  29.830  36.142  1.00  0.00     0.105 A 
HETATM   22  O   LIG     1      25.828  30.826  37.894  1.00  0.00    -0.323 OA
HETATM   23  O   LIG     1      26.499  31.118  35.738  1.00  0.00    -0.323 OA
HETATM   24  C   LIG     1      25.874  31.795  36.838  1.00  0.00     0.352 A 
ENDBRANCH   5  11
BRANCH   9  25
HETATM   25  O   LIG     1      28.108  25.396  29.571  1.00  0.00    -0.352 OA
HETATM   26  C   LIG     1      27.137  24.975  28.619  1.00  0.00     0.210 C 
ENDBRANCH   9  25
BRANCH   1  27
HETATM   27  O   LIG     1      29.718  22.982  29.920  1.00  0.00    -0.353 OA
HETATM   28  C   LIG     1      29.163  21.858  29.246  1.00  0.00     0.210 C 
ENDBRANCH   1  27
TORSDOF 3
ENDMDL
MODEL 13
REMARK VINA RESULT:      -3.9      2.696      7.152
REMARK  3 active torsions:
REMARK  status: ('A' for Active; 'I' for Inactive)
REMARK    1  A    between atoms: O_2  and  C_3 
REMARK    2  A    between atoms: C_7  and  C_8 
REMARK    3  A    between atoms: C_25  and  O_26 
ROOT
HETATM    1  C   LIG     1      27.584  20.144  15.780  1.00  0.00     0.102 A 
HETATM    2  C   LIG     1      26.272  19.643  16.001  1.00  0.00     0.040 A 
HETATM    3  C   LIG     1      25.447  20.191  16.992  1.00  0.00     0.014 A 
HETATM    4  C   LIG     1      25.940  21.234  17.771  1.00  0.00    -0.007 A 
HETATM    5  C   LIG     1      25.254  21.976  18.893  1.00  0.00     0.204 A 
HETATM    6  O   LIG     1      26.230  22.961  19.261  1.00  0.00    -0.304 OA
HETATM    7  C   LIG     1      27.376  22.817  18.491  1.00  0.00     0.297 A 
HETATM    8  C   LIG     1      27.200  21.736  17.553  1.00  0.00     0.084 A 
HETATM    9  C   LIG     1      28.060  21.226  16.578  1.00  0.00     0.118 A 
HETATM   10  O   LIG     1      28.402  23.536  18.611  1.00  0.00    -0.259 OA
ENDROOT
BRANCH   5  11
HETATM   11  C   LIG     1      24.892  21.059  20.091  1.00  0.00     0.289 C 
HETATM   12  C   LIG     1      25.281  21.676  21.425  1.00  0.00    -0.013 A 
HETATM   13  C   LIG     1      24.297  22.240  22.290  1.00  0.00    -0.045 A 
HETATM   14  C   LIG     1      26.641  21.687  21.818  1.00  0.00     0.049 A 
HETATM   15  C   LIG     1      22.833  22.195  21.950  1.00  0.00     0.069 C 
HETATM   16  C   LIG     1      24.685  22.808  23.523  1.00  0.00     0.047 A 
HETATM   17  C   LIG     1      22.563  21.777  20.498  1.00  0.00     0.277 C 
HETATM   18  N   LIG     1      23.454  20.694  20.034  1.00  0.00     0.096 N 
HETATM   19  C   LIG     1      23.179  19.422  20.727  1.00  0.00     0.310 C 
HETATM   20  C   LIG     1      26.036  22.807  23.851  1.00  0.00     0.105 A 
HETATM   21  C   LIG     1      26.973  22.269  23.035  1.00  0.00     0.105 A 
HETATM   22  O   LIG     1      26.646  23.306  24.986  1.00  0.00    -0.323 OA
HETATM   23  O   LIG     1      28.220  22.401  23.612  1.00  0.00    -0.323 OA
HETATM   24  C   LIG     1      28.055  23.065  24.873  1.00  0.00     0.352 A 
ENDBRANCH   5  11
BRANCH   9  25
HETATM   25  O   LIG     1      29.332  21.811  16.450  1.00  0.00    -0.352 OA
HETATM   26  C   LIG     1      29.728  22.752  15.458  1.00  0.00     0.210 C 
ENDBRANCH   9  25
BRANCH   1  27
HETATM   27  O   LIG     1      28.409  19.591  14.789  1.00  0.00    -0.353 OA
HETATM   28  C   LIG     1      28.196  19.720  13.387  1.00  0.00     0.210 C 
ENDBRANCH   1  27
TORSDOF 3
ENDMDL
MODEL 14
REMARK VINA RESULT:      -3.8      2.687      3.995
REMARK  3 active torsions:
REMARK  status: ('A' for Active; 'I' for Inactive)
REMARK    1  A    between atoms: O_2  and  C_3 
REMARK    2  A    between atoms: C_7  and  C_8 
REMARK    3  A    between atoms: C_25  and  O_26 
ROOT
HETATM    1  C   LIG     1      24.599  22.259  26.229  1.00  0.00     0.102 A 
HETATM    2  C   LIG     1      25.054  23.112  25.186  1.00  0.00     0.040 A 
HETATM    3  C   LIG     1      24.737  22.848  23.847  1.00  0.00     0.014 A 
HETATM    4  C   LIG     1      23.974  21.723  23.550  1.00  0.00    -0.007 A 
HETATM    5  C   LIG     1      23.514  21.227  22.200  1.00  0.00     0.204 A 
HETATM    6  O   LIG     1      22.728  20.075  22.538  1.00  0.00    -0.304 OA
HETATM    7  C   LIG     1      22.737  19.872  23.911  1.00  0.00     0.297 A 
HETATM    8  C   LIG     1      23.515  20.903  24.552  1.00  0.00     0.084 A 
HETATM    9  C   LIG     1      23.802  21.123  25.902  1.00  0.00     0.118 A 
HETATM   10  O   LIG     1      22.144  18.923  24.488  1.00  0.00    -0.259 OA
ENDROOT
BRANCH   5  11
HETATM   11  C   LIG     1      24.692  20.856  21.260  1.00  0.00     0.289 C 
HETATM   12  C   LIG     1      25.734  21.962  21.181  1.00  0.00    -0.013 A 
HETATM   13  C   LIG     1      26.982  21.845  21.860  1.00  0.00    -0.045 A 
HETATM   14  C   LIG     1      25.462  23.123  20.418  1.00  0.00     0.049 A 
HETATM   15  C   LIG     1      27.346  20.605  22.628  1.00  0.00     0.069 C 
HETATM   16  C   LIG     1      27.932  22.886  21.772  1.00  0.00     0.047 A 
HETATM   17  C   LIG     1      26.157  19.660  22.850  1.00  0.00     0.277 C 
HETATM   18  N   LIG     1      25.277  19.555  21.668  1.00  0.00     0.096 N 
HETATM   19  C   LIG     1      25.946  18.873  20.544  1.00  0.00     0.310 C 
HETATM   20  C   LIG     1      27.606  24.011  21.022  1.00  0.00     0.105 A 
HETATM   21  C   LIG     1      26.423  24.123  20.373  1.00  0.00     0.105 A 
HETATM   22  O   LIG     1      28.364  25.145  20.800  1.00  0.00    -0.323 OA
HETATM   23  O   LIG     1      26.375  25.333  19.709  1.00  0.00    -0.323 OA
HETATM   24  C   LIG     1      27.606  26.025  19.958  1.00  0.00     0.352 A 
ENDBRANCH   5  11
BRANCH   9  25
HETATM   25  O   LIG     1      23.289  20.212  26.842  1.00  0.00    -0.352 OA
HETATM   26  C   LIG     1      24.009  19.157  27.468  1.00  0.00     0.210 C 
ENDBRANCH   9  25
BRANCH   1  27
HETATM   27  O   LIG     1      24.921  22.525  27.569  1.00  0.00    -0.353 OA
HETATM   28  C   LIG     1      26.149  23.093  28.013  1.00  0.00     0.210 C 
ENDBRANCH   1  27
TORSDOF 3
ENDMDL
MODEL 15
REMARK VINA RESULT:      -3.8      2.738      4.448
REMARK  3 active torsions:
REMARK  status: ('A' for Active; 'I' for Inactive)
REMARK    1  A    between atoms: O_2  and  C_3 
REMARK    2  A    between atoms: C_7  and  C_8 
REMARK    3  A    between atoms: C_25  and  O_26 
ROOT
HETATM    1  C   LIG     1      28.499  21.280  25.189  1.00  0.00     0.102 A 
HETATM    2  C   LIG     1      29.398  21.947  24.312  1.00  0.00     0.040 A 
HETATM    3  C   LIG     1      28.927  22.675  23.210  1.00  0.00     0.014 A 
HETATM    4  C   LIG     1      27.555  22.724  22.980  1.00  0.00    -0.007 A 
HETATM    5  C   LIG     1      26.812  23.427  21.869  1.00  0.00     0.204 A 
HETATM    6  O   LIG     1      25.439  23.166  22.194  1.00  0.00    -0.304 OA
HETATM    7  C   LIG     1      25.354  22.376  23.332  1.00  0.00     0.297 A 
HETATM    8  C   LIG     1      26.678  22.096  23.831  1.00  0.00     0.084 A 
HETATM    9  C   LIG     1      27.097  21.361  24.942  1.00  0.00     0.118 A 
HETATM   10  O   LIG     1      24.272  21.978  23.836  1.00  0.00    -0.259 OA
ENDROOT
BRANCH   5  11
HETATM   11  C   LIG     1      27.177  22.885  20.461  1.00  0.00     0.289 C 
HETATM   12  C   LIG     1      25.974  22.289  19.746  1.00  0.00    -0.013 A 
HETATM   13  C   LIG     1      25.327  22.990  18.687  1.00  0.00    -0.045 A 
HETATM   14  C   LIG     1      25.493  21.016  20.135  1.00  0.00     0.049 A 
HETATM   15  C   LIG     1      25.839  24.314  18.192  1.00  0.00     0.069 C 
HETATM   16  C   LIG     1      24.211  22.415  18.039  1.00  0.00     0.047 A 
HETATM   17  C   LIG     1      26.891  24.939  19.119  1.00  0.00     0.277 C 
HETATM   18  N   LIG     1      27.840  23.947  19.665  1.00  0.00     0.096 N 
HETATM   19  C   LIG     1      28.714  23.388  18.617  1.00  0.00     0.310 C 
HETATM   20  C   LIG     1      23.771  21.170  18.472  1.00  0.00     0.105 A 
HETATM   21  C   LIG     1      24.385  20.499  19.475  1.00  0.00     0.105 A 
HETATM   22  O   LIG     1      22.708  20.422  18.001  1.00  0.00    -0.323 OA
HETATM   23  O   LIG     1      23.743  19.295  19.688  1.00  0.00    -0.323 OA
HETATM   24  C   LIG     1      22.654  19.205  18.758  1.00  0.00     0.352 A 
ENDBRANCH   5  11
BRANCH   9  25
HETATM   25  O   LIG     1      26.112  20.752  25.739  1.00  0.00    -0.352 OA
HETATM   26  C   LIG     1      25.627  21.231  26.989  1.00  0.00     0.210 C 
ENDBRANCH   9  25
BRANCH   1  27
HETATM   27  O   LIG     1      28.975  20.549  26.288  1.00  0.00    -0.353 OA
HETATM   28  C   LIG     1      29.833  21.067  27.300  1.00  0.00     0.210 C 
ENDBRANCH   1  27
TORSDOF 3
ENDMDL
MODEL 16
REMARK VINA RESULT:      -3.8      2.158      3.572
REMARK  3 active torsions:
REMARK  status: ('A' for Active; 'I' for Inactive)
REMARK    1  A    between atoms: O_2  and  C_3 
REMARK    2  A    between atoms: C_7  and  C_8 
REMARK    3  A    between atoms: C_25  and  O_26 
ROOT
HETATM    1  C   LIG     1      26.462  21.891  24.333  1.00  0.00     0.102 A 
HETATM    2  C   LIG     1      27.018  22.900  23.499  1.00  0.00     0.040 A 
HETATM    3  C   LIG     1      26.338  23.350  22.358  1.00  0.00     0.014 A 
HETATM    4  C   LIG     1      25.107  22.781  22.047  1.00  0.00    -0.007 A 
HETATM    5  C   LIG     1      24.196  23.086  20.882  1.00  0.00     0.204 A 
HETATM    6  O   LIG     1      23.069  22.234  21.130  1.00  0.00    -0.304 OA
HETATM    7  C   LIG     1      23.279  21.479  22.276  1.00  0.00     0.297 A 
HETATM    8  C   LIG     1      24.554  21.818  22.857  1.00  0.00     0.084 A 
HETATM    9  C   LIG     1      25.191  21.337  24.004  1.00  0.00     0.118 A 
HETATM   10  O   LIG     1      22.461  20.632  22.722  1.00  0.00    -0.259 OA
ENDROOT
BRANCH   5  11
HETATM   11  C   LIG     1      24.850  22.780  19.508  1.00  0.00     0.289 C 
HETATM   12  C   LIG     1      26.196  23.470  19.347  1.00  0.00    -0.013 A 
HETATM   13  C   LIG     1      27.415  22.737  19.452  1.00  0.00    -0.045 A 
HETATM   14  C   LIG     1      26.240  24.860  19.082  1.00  0.00     0.049 A 
HETATM   15  C   LIG     1      27.421  21.249  19.666  1.00  0.00     0.069 C 
HETATM   16  C   LIG     1      28.651  23.401  19.299  1.00  0.00     0.047 A 
HETATM   17  C   LIG     1      26.045  20.688  20.053  1.00  0.00     0.277 C 
HETATM   18  N   LIG     1      24.937  21.313  19.303  1.00  0.00     0.096 N 
HETATM   19  C   LIG     1      24.972  20.956  17.873  1.00  0.00     0.310 C 
HETATM   20  C   LIG     1      28.637  24.770  19.057  1.00  0.00     0.105 A 
HETATM   21  C   LIG     1      27.481  25.468  18.952  1.00  0.00     0.105 A 
HETATM   22  O   LIG     1      29.709  25.624  18.882  1.00  0.00    -0.323 OA
HETATM   23  O   LIG     1      27.766  26.797  18.705  1.00  0.00    -0.323 OA
HETATM   24  C   LIG     1      29.192  26.942  18.653  1.00  0.00     0.352 A 
ENDBRANCH   5  11
BRANCH   9  25
HETATM   25  O   LIG     1      24.537  20.342  24.752  1.00  0.00    -0.352 OA
HETATM   26  C   LIG     1      23.784  20.545  25.943  1.00  0.00     0.210 C 
ENDBRANCH   9  25
BRANCH   1  27
HETATM   27  O   LIG     1      27.148  21.441  25.472  1.00  0.00    -0.353 OA
HETATM   28  C   LIG     1      27.135  22.089  26.739  1.00  0.00     0.210 C 
ENDBRANCH   1  27
TORSDOF 3
ENDMDL
MODEL 17
REMARK VINA RESULT:      -3.6     10.688     14.773
REMARK  3 active torsions:
REMARK  status: ('A' for Active; 'I' for Inactive)
REMARK    1  A    between atoms: O_2  and  C_3 
REMARK    2  A    between atoms: C_7  and  C_8 
REMARK    3  A    between atoms: C_25  and  O_26 
ROOT
HETATM    1  C   LIG     1      19.649  20.465  36.295  1.00  0.00     0.102 A 
HETATM    2  C   LIG     1      20.224  19.569  37.238  1.00  0.00     0.040 A 
HETATM    3  C   LIG     1      21.535  19.749  37.701  1.00  0.00     0.014 A 
HETATM    4  C   LIG     1      22.275  20.820  37.209  1.00  0.00    -0.007 A 
HETATM    5  C   LIG     1      23.694  21.216  37.543  1.00  0.00     0.204 A 
HETATM    6  O   LIG     1      23.875  22.416  36.779  1.00  0.00    -0.304 OA
HETATM    7  C   LIG     1      22.731  22.697  36.044  1.00  0.00     0.297 A 
HETATM    8  C   LIG     1      21.723  21.701  36.311  1.00  0.00     0.084 A 
HETATM    9  C   LIG     1      20.422  21.566  35.821  1.00  0.00     0.118 A 
HETATM   10  O   LIG     1      22.613  23.683  35.270  1.00  0.00    -0.259 OA
ENDROOT
BRANCH   5  11
HETATM   11  C   LIG     1      24.732  20.130  37.153  1.00  0.00     0.289 C 
HETATM   12  C   LIG     1      25.079  20.175  35.673  1.00  0.00    -0.013 A 
HETATM   13  C   LIG     1      26.320  20.715  35.225  1.00  0.00    -0.045 A 
HETATM   14  C   LIG     1      24.159  19.666  34.725  1.00  0.00     0.049 A 
HETATM   15  C   LIG     1      27.359  21.208  36.194  1.00  0.00     0.069 C 
HETATM   16  C   LIG     1      26.618  20.746  33.845  1.00  0.00     0.047 A 
HETATM   17  C   LIG     1      26.830  21.345  37.629  1.00  0.00     0.277 C 
HETATM   18  N   LIG     1      25.931  20.239  38.020  1.00  0.00     0.096 N 
HETATM   19  C   LIG     1      26.652  18.958  38.129  1.00  0.00     0.310 C 
HETATM   20  C   LIG     1      25.672  20.249  32.957  1.00  0.00     0.105 A 
HETATM   21  C   LIG     1      24.494  19.731  33.379  1.00  0.00     0.105 A 
HETATM   22  O   LIG     1      25.737  20.181  31.578  1.00  0.00    -0.323 OA
HETATM   23  O   LIG     1      23.758  19.310  32.289  1.00  0.00    -0.323 OA
HETATM   24  C   LIG     1      24.523  19.582  31.106  1.00  0.00     0.352 A 
ENDBRANCH   5  11
BRANCH   9  25
HETATM   25  O   LIG     1      19.964  22.521  34.896  1.00  0.00    -0.352 OA
HETATM   26  C   LIG     1      19.968  22.388  33.479  1.00  0.00     0.210 C 
ENDBRANCH   9  25
BRANCH   1  27
HETATM   27  O   LIG     1      18.338  20.279  35.832  1.00  0.00    -0.353 OA
HETATM   28  C   LIG     1      17.577  19.087  35.999  1.00  0.00     0.210 C 
ENDBRANCH   1  27
TORSDOF 3
ENDMDL
MODEL 18
REMARK VINA RESULT:      -3.5      2.537      3.283
REMARK  3 active torsions:
REMARK  status: ('A' for Active; 'I' for Inactive)
REMARK    1  A    between atoms: O_2  and  C_3 
REMARK    2  A    between atoms: C_7  and  C_8 
REMARK    3  A    between atoms: C_25  and  O_26 
ROOT
HETATM    1  C   LIG     1      25.496  23.017  24.501  1.00  0.00     0.102 A 
HETATM    2  C   LIG     1      24.332  22.369  24.004  1.00  0.00     0.040 A 
HETATM    3  C   LIG     1      24.375  21.612  22.824  1.00  0.00     0.014 A 
HETATM    4  C   LIG     1      25.581  21.514  22.137  1.00  0.00    -0.007 A 
HETATM    5  C   LIG     1      25.876  20.773  20.855  1.00  0.00     0.204 A 
HETATM    6  O   LIG     1      27.283  20.992  20.681  1.00  0.00    -0.304 OA
HETATM    7  C   LIG     1      27.777  21.793  21.702  1.00  0.00     0.297 A 
HETATM    8  C   LIG     1      26.715  22.123  22.620  1.00  0.00     0.084 A 
HETATM    9  C   LIG     1      26.724  22.886  23.789  1.00  0.00     0.118 A 
HETATM   10  O   LIG     1      28.977  22.161  21.792  1.00  0.00    -0.259 OA
ENDROOT
BRANCH   5  11
HETATM   11  C   LIG     1      25.063  21.308  19.647  1.00  0.00     0.289 C 
HETATM   12  C   LIG     1      25.585  20.774  18.322  1.00  0.00    -0.013 A 
HETATM   13  C   LIG     1      24.887  19.752  17.614  1.00  0.00    -0.045 A 
HETATM   14  C   LIG     1      26.780  21.304  17.779  1.00  0.00     0.049 A 
HETATM   15  C   LIG     1      23.579  19.203  18.114  1.00  0.00     0.069 C 
HETATM   16  C   LIG     1      25.393  19.273  16.386  1.00  0.00     0.047 A 
HETATM   17  C   LIG     1      23.260  19.621  19.556  1.00  0.00     0.277 C 
HETATM   18  N   LIG     1      23.619  21.026  19.842  1.00  0.00     0.096 N 
HETATM   19  C   LIG     1      22.766  21.972  19.100  1.00  0.00     0.310 C 
HETATM   20  C   LIG     1      26.579  19.817  15.908  1.00  0.00     0.105 A 
HETATM   21  C   LIG     1      27.243  20.791  16.575  1.00  0.00     0.105 A 
HETATM   22  O   LIG     1      27.262  19.506  14.747  1.00  0.00    -0.323 OA
HETATM   23  O   LIG     1      28.377  21.143  15.870  1.00  0.00    -0.323 OA
HETATM   24  C   LIG     1      28.429  20.338  14.684  1.00  0.00     0.352 A 
ENDBRANCH   5  11
BRANCH   9  25
HETATM   25  O   LIG     1      27.940  23.473  24.183  1.00  0.00    -0.352 OA
HETATM   26  C   LIG     1      28.309  24.837  24.012  1.00  0.00     0.210 C 
ENDBRANCH   9  25
BRANCH   1  27
HETATM   27  O   LIG     1      25.448  23.777  25.680  1.00  0.00    -0.353 OA
HETATM   28  C   LIG     1      25.697  23.269  26.987  1.00  0.00     0.210 C 
ENDBRANCH   1  27
TORSDOF 3
ENDMDL
MODEL 19
REMARK VINA RESULT:      -3.5      1.748      2.319
REMARK  3 active torsions:
REMARK  status: ('A' for Active; 'I' for Inactive)
REMARK    1  A    between atoms: O_2  and  C_3 
REMARK    2  A    between atoms: C_7  and  C_8 
REMARK    3  A    between atoms: C_25  and  O_26 
ROOT
HETATM    1  C   LIG     1      27.401  24.717  27.794  1.00  0.00     0.102 A 
HETATM    2  C   LIG     1      26.100  24.278  27.425  1.00  0.00     0.040 A 
HETATM    3  C   LIG     1      25.890  23.545  26.249  1.00  0.00     0.014 A 
HETATM    4  C   LIG     1      26.983  23.261  25.435  1.00  0.00    -0.007 A 
HETATM    5  C   LIG     1      27.013  22.504  24.130  1.00  0.00     0.204 A 
HETATM    6  O   LIG     1      28.410  22.491  23.804  1.00  0.00    -0.304 OA
HETATM    7  C   LIG     1      29.136  23.181  24.765  1.00  0.00     0.297 A 
HETATM    8  C   LIG     1      28.247  23.666  25.792  1.00  0.00     0.084 A 
HETATM    9  C   LIG     1      28.508  24.397  26.954  1.00  0.00     0.118 A 
HETATM   10  O   LIG     1      30.383  23.345  24.726  1.00  0.00    -0.259 OA
ENDROOT
BRANCH   5  11
HETATM   11  C   LIG     1      26.176  23.187  23.016  1.00  0.00     0.289 C 
HETATM   12  C   LIG     1      27.032  23.612  21.833  1.00  0.00    -0.013 A 
HETATM   13  C   LIG     1      27.014  22.879  20.610  1.00  0.00    -0.045 A 
HETATM   14  C   LIG     1      27.857  24.757  21.945  1.00  0.00     0.049 A 
HETATM   15  C   LIG     1      26.107  21.695  20.418  1.00  0.00     0.069 C 
HETATM   16  C   LIG     1      27.820  23.294  19.527  1.00  0.00     0.047 A 
HETATM   17  C   LIG     1      25.470  21.203  21.724  1.00  0.00     0.277 C 
HETATM   18  N   LIG     1      25.051  22.306  22.613  1.00  0.00     0.096 N 
HETATM   19  C   LIG     1      23.926  23.071  22.045  1.00  0.00     0.310 C 
HETATM   20  C   LIG     1      28.623  24.415  19.698  1.00  0.00     0.105 A 
HETATM   21  C   LIG     1      28.640  25.117  20.856  1.00  0.00     0.105 A 
HETATM   22  O   LIG     1      29.490  24.998  18.793  1.00  0.00    -0.323 OA
HETATM   23  O   LIG     1      29.517  26.177  20.741  1.00  0.00    -0.323 OA
HETATM   24  C   LIG     1      30.088  26.138  19.425  1.00  0.00     0.352 A 
ENDBRANCH   5  11
BRANCH   9  25
HETATM   25  O   LIG     1      29.839  24.767  27.214  1.00  0.00    -0.352 OA
HETATM   26  C   LIG     1      30.667  24.252  28.251  1.00  0.00     0.210 C 
ENDBRANCH   9  25
BRANCH   1  27
HETATM   27  O   LIG     1      27.606  25.454  28.970  1.00  0.00    -0.353 OA
HETATM   28  C   LIG     1      27.313  26.838  29.125  1.00  0.00     0.210 C 
ENDBRANCH   1  27
TORSDOF 3
ENDMDL
