REMARK  4 active torsions:
REMARK  status: ('A' for Active; 'I' for Inactive)
REMARK    1  A    between atoms: O_1  and  C_2 
REMARK    2  A    between atoms: C_2  and  C_13 
REMARK    3  A    between atoms: C_2  and  C_3 
REMARK    4  A    between atoms: C_6  and  C_7 
ROOT
HETATM    1  C   LIG     1       0.886   0.407  -1.122  1.00  0.00     0.185 C 
ENDROOT
BRANCH   1   2
HETATM    2  O   LIG     1       1.410  -0.336  -2.194  1.00  0.00    -0.389 OA
HETATM    3  H   LIG     1       0.774  -0.256  -2.952  1.00  0.00     0.210 HD
ENDBRANCH   1   2
BRANCH   1   4
HETATM    4  C   LIG     1       2.022   0.846  -0.202  1.00  0.00    -0.014 A 
HETATM    5  C   LIG     1       2.103   2.211   0.131  1.00  0.00     0.030 A 
HETATM    6  C   LIG     1       3.099   2.672   0.987  1.00  0.00     0.118 A 
HETATM    7  N   LIG     1       4.007   1.811   1.505  1.00  0.00    -0.260 NA
HETATM    8  C   LIG     1       3.987   0.485   1.212  1.00  0.00     0.067 A 
HETATM    9  C   LIG     1       4.958  -0.351   1.775  1.00  0.00     0.032 A 
HETATM   10  C   LIG     1       2.995  -0.044   0.343  1.00  0.00     0.002 A 
HETATM   11  C   LIG     1       4.967  -1.714   1.482  1.00  0.00     0.002 A 
HETATM   12  C   LIG     1       4.009  -2.249   0.622  1.00  0.00     0.001 A 
HETATM   13  C   LIG     1       3.033  -1.428   0.053  1.00  0.00     0.014 A 
ENDBRANCH   1   4
BRANCH   1  14
HETATM   14  C   LIG     1      -0.195  -0.404  -0.350  1.00  0.00     0.256 C 
HETATM   15  C   LIG     1      -0.933   0.451   0.727  1.00  0.00     0.044 C 
HETATM   16  C   LIG     1      -2.453   0.249   0.581  1.00  0.00    -0.001 C 
HETATM   17  C   LIG     1      -2.856   0.774  -0.820  1.00  0.00     0.040 C 
HETATM   18  C   LIG     1      -2.746  -1.266   0.663  1.00  0.00     0.035 C 
HETATM   19  C   LIG     1      -2.080  -0.044  -1.897  1.00  0.00     0.282 C 
HETATM   20  N   LIG     1      -1.177  -1.048  -1.272  1.00  0.00     0.096 N 
HETATM   21  C   LIG     1      -2.011  -1.995  -0.491  1.00  0.00     0.273 C 
BRANCH  17  22
HETATM   22  C   LIG     1      -4.356   0.724  -1.028  1.00  0.00    -0.030 C 
HETATM   23  C   LIG     1      -5.180   1.527  -0.347  1.00  0.00     0.007 C 
ENDBRANCH  17  22
ENDBRANCH   1  14
TORSDOF 4
