REMARK  4 active torsions:
REMARK  status: ('A' for Active; 'I' for Inactive)
REMARK    1  A    between atoms: C_2  and  C_3 
REMARK    2  A    between atoms: C_2  and  O_10 
REMARK    3  A    between atoms: C_8  and  O_9 
REMARK    4  A    between atoms: O_10  and  C_11 
ROOT
HETATM    1  O   LIG     1       0.637  -2.158  -2.606  1.00  0.00    -0.259 OA
HETATM    2  C   LIG     1       0.405  -1.528  -1.541  1.00  0.00     0.301 C 
ENDROOT
BRANCH   2   3
HETATM    3  C   LIG     1       1.250  -0.362  -1.196  1.00  0.00     0.072 A 
HETATM    4  C   LIG     1       1.513   0.598  -2.189  1.00  0.00     0.020 A 
HETATM    5  C   LIG     1       2.250   1.746  -1.889  1.00  0.00     0.001 A 
HETATM    6  C   LIG     1       2.738   1.945  -0.597  1.00  0.00     0.003 A 
HETATM    7  C   LIG     1       2.506   0.988   0.393  1.00  0.00     0.037 A 
HETATM    8  C   LIG     1       1.784  -0.176   0.102  1.00  0.00     0.082 A 
BRANCH   8   9
HETATM    9  O   LIG     1       1.642  -1.132   1.109  1.00  0.00    -0.360 OA
HETATM   10  H   LIG     1       1.245  -2.048   0.948  1.00  0.00     0.217 HD
ENDBRANCH   8   9
ENDBRANCH   2   3
BRANCH   2  11
HETATM   11  O   LIG     1      -0.635  -1.972  -0.711  1.00  0.00    -0.275 OA
BRANCH  11  12
HETATM   12  C   LIG     1      -1.385  -1.161   0.154  1.00  0.00     0.079 A 
HETATM   13  C   LIG     1      -1.932  -1.737   1.307  1.00  0.00     0.037 A 
HETATM   14  C   LIG     1      -2.686  -0.963   2.196  1.00  0.00     0.003 A 
HETATM   15  C   LIG     1      -2.907   0.391   1.930  1.00  0.00     0.000 A 
HETATM   16  C   LIG     1      -2.383   0.970   0.771  1.00  0.00     0.003 A 
HETATM   17  C   LIG     1      -1.630   0.199  -0.119  1.00  0.00     0.037 A 
ENDBRANCH  11  12
ENDBRANCH   2  11
TORSDOF 4
