MODEL 1
REMARK VINA RESULT:      -6.1      0.000      0.000
REMARK  0 active torsions:
REMARK  status: ('A' for Active; 'I' for Inactive)
ROOT
HETATM    1  C   LIG     1      17.720  38.161  22.047  1.00  0.00     0.050 C 
HETATM    2  C   LIG     1      16.748  37.542  23.059  1.00  0.00     0.129 A 
HETATM    3  C   LIG     1      17.132  37.916  24.471  1.00  0.00     0.272 A 
HETATM    4  N   LIG     1      17.455  36.777  25.255  1.00  0.00    -0.168 N 
HETATM    5 CL   LIG     1      18.090  36.753  26.876  1.00  0.00     0.025 Cl
HETATM    6  C   LIG     1      17.308  35.683  24.375  1.00  0.00     0.358 A 
HETATM    7  O   LIG     1      17.535  34.489  24.700  1.00  0.00    -0.244 OA
HETATM    8  O   LIG     1      17.175  39.094  24.916  1.00  0.00    -0.269 OA
HETATM    9  N   LIG     1      16.886  36.082  23.077  1.00  0.00    -0.221 N 
HETATM   10 CL   LIG     1      16.600  35.003  21.738  1.00  0.00     0.019 Cl
HETATM   11  C   LIG     1      15.296  37.941  22.766  1.00  0.00     0.050 C 
ENDROOT
TORSDOF 0
ENDMDL
MODEL 2
REMARK VINA RESULT:      -5.9      2.949      3.697
REMARK  0 active torsions:
REMARK  status: ('A' for Active; 'I' for Inactive)
ROOT
HETATM    1  C   LIG     1      15.250  37.424  22.528  1.00  0.00     0.050 C 
HETATM    2  C   LIG     1      16.743  37.074  22.503  1.00  0.00     0.129 A 
HETATM    3  C   LIG     1      17.576  38.295  22.197  1.00  0.00     0.272 A 
HETATM    4  N   LIG     1      18.315  38.148  20.993  1.00  0.00    -0.168 N 
HETATM    5 CL   LIG     1      19.280  39.354  20.188  1.00  0.00     0.025 Cl
HETATM    6  C   LIG     1      17.959  36.870  20.508  1.00  0.00     0.358 A 
HETATM    7  O   LIG     1      18.395  36.385  19.432  1.00  0.00    -0.244 OA
HETATM    8  O   LIG     1      17.617  39.334  22.908  1.00  0.00    -0.269 OA
HETATM    9  N   LIG     1      17.046  36.198  21.366  1.00  0.00    -0.221 N 
HETATM   10 CL   LIG     1      16.393  34.606  21.087  1.00  0.00     0.019 Cl
HETATM   11  C   LIG     1      17.193  36.423  23.817  1.00  0.00     0.050 C 
ENDROOT
TORSDOF 0
ENDMDL
MODEL 3
REMARK VINA RESULT:      -5.6      2.018      3.052
REMARK  0 active torsions:
REMARK  status: ('A' for Active; 'I' for Inactive)
ROOT
HETATM    1  C   LIG     1      15.165  36.184  21.558  1.00  0.00     0.050 C 
HETATM    2  C   LIG     1      16.527  36.616  22.116  1.00  0.00     0.129 A 
HETATM    3  C   LIG     1      17.079  35.570  23.053  1.00  0.00     0.272 A 
HETATM    4  N   LIG     1      17.250  36.071  24.371  1.00  0.00    -0.168 N 
HETATM    5 CL   LIG     1      17.714  35.177  25.792  1.00  0.00     0.025 Cl
HETATM    6  C   LIG     1      16.800  37.408  24.307  1.00  0.00     0.358 A 
HETATM    7  O   LIG     1      16.770  38.183  25.297  1.00  0.00    -0.244 OA
HETATM    8  O   LIG     1      17.355  34.385  22.726  1.00  0.00    -0.269 OA
HETATM    9  N   LIG     1      16.374  37.776  23.001  1.00  0.00    -0.221 N 
HETATM   10 CL   LIG     1      15.760  39.344  22.550  1.00  0.00     0.019 Cl
HETATM   11  C   LIG     1      17.526  36.925  20.994  1.00  0.00     0.050 C 
ENDROOT
TORSDOF 0
ENDMDL
MODEL 4
REMARK VINA RESULT:      -5.1      2.917      4.512
REMARK  0 active torsions:
REMARK  status: ('A' for Active; 'I' for Inactive)
ROOT
HETATM    1  C   LIG     1      16.971  36.086  23.636  1.00  0.00     0.050 C 
HETATM    2  C   LIG     1      16.627  36.858  22.356  1.00  0.00     0.129 A 
HETATM    3  C   LIG     1      17.298  36.232  21.156  1.00  0.00     0.272 A 
HETATM    4  N   LIG     1      18.204  37.126  20.526  1.00  0.00    -0.168 N 
HETATM    5 CL   LIG     1      19.295  36.779  19.214  1.00  0.00     0.025 Cl
HETATM    6  C   LIG     1      18.147  38.303  21.305  1.00  0.00     0.358 A 
HETATM    7  O   LIG     1      18.840  39.328  21.075  1.00  0.00    -0.244 OA
HETATM    8  O   LIG     1      17.098  35.056  20.751  1.00  0.00    -0.269 OA
HETATM    9  N   LIG     1      17.228  38.195  22.385  1.00  0.00    -0.221 N 
HETATM   10 CL   LIG     1      16.896  39.450  23.550  1.00  0.00     0.019 Cl
HETATM   11  C   LIG     1      15.111  36.954  22.143  1.00  0.00     0.050 C 
ENDROOT
TORSDOF 0
ENDMDL
MODEL 5
REMARK VINA RESULT:      -4.9      8.810      9.775
REMARK  0 active torsions:
REMARK  status: ('A' for Active; 'I' for Inactive)
ROOT
HETATM    1  C   LIG     1      12.818  32.811  16.578  1.00  0.00     0.050 C 
HETATM    2  C   LIG     1      14.214  32.199  16.753  1.00  0.00     0.129 A 
HETATM    3  C   LIG     1      15.284  33.254  16.613  1.00  0.00     0.272 A 
HETATM    4  N   LIG     1      16.155  32.990  15.523  1.00  0.00    -0.168 N 
HETATM    5 CL   LIG     1      17.424  34.011  14.908  1.00  0.00     0.025 Cl
HETATM    6  C   LIG     1      15.655  31.801  14.946  1.00  0.00     0.358 A 
HETATM    7  O   LIG     1      16.152  31.256  13.927  1.00  0.00    -0.244 OA
HETATM    8  O   LIG     1      15.403  34.262  17.360  1.00  0.00    -0.269 OA
HETATM    9  N   LIG     1      14.522  31.295  15.640  1.00  0.00    -0.221 N 
HETATM   10 CL   LIG     1      13.647  29.848  15.214  1.00  0.00     0.019 Cl
HETATM   11  C   LIG     1      14.345  31.465  18.094  1.00  0.00     0.050 C 
ENDROOT
TORSDOF 0
ENDMDL
MODEL 6
REMARK VINA RESULT:      -4.9      9.052     10.341
REMARK  0 active torsions:
REMARK  status: ('A' for Active; 'I' for Inactive)
ROOT
HETATM    1  C   LIG     1      15.593  32.064  18.126  1.00  0.00     0.050 C 
HETATM    2  C   LIG     1      14.957  32.444  16.783  1.00  0.00     0.129 A 
HETATM    3  C   LIG     1      13.807  31.522  16.453  1.00  0.00     0.272 A 
HETATM    4  N   LIG     1      14.035  30.793  15.256  1.00  0.00    -0.168 N 
HETATM    5 CL   LIG     1      13.052  29.520  14.588  1.00  0.00     0.025 Cl
HETATM    6  C   LIG     1      15.313  31.209  14.821  1.00  0.00     0.358 A 
HETATM    7  O   LIG     1      15.881  30.759  13.793  1.00  0.00    -0.244 OA
HETATM    8  O   LIG     1      12.765  31.395  17.150  1.00  0.00    -0.269 OA
HETATM    9  N   LIG     1      15.889  32.184  15.681  1.00  0.00    -0.221 N 
HETATM   10 CL   LIG     1      17.451  32.924  15.455  1.00  0.00     0.019 Cl
HETATM   11  C   LIG     1      14.502  33.909  16.768  1.00  0.00     0.050 C 
ENDROOT
TORSDOF 0
ENDMDL
MODEL 7
REMARK VINA RESULT:      -4.3      9.150     10.570
REMARK  0 active torsions:
REMARK  status: ('A' for Active; 'I' for Inactive)
ROOT
HETATM    1  C   LIG     1      14.199  31.317  18.113  1.00  0.00     0.050 C 
HETATM    2  C   LIG     1      13.864  31.872  16.723  1.00  0.00     0.129 A 
HETATM    3  C   LIG     1      13.990  30.797  15.670  1.00  0.00     0.272 A 
HETATM    4  N   LIG     1      14.982  31.111  14.704  1.00  0.00    -0.168 N 
HETATM    5 CL   LIG     1      15.561  30.096  13.412  1.00  0.00     0.025 Cl
HETATM    6  C   LIG     1      15.511  32.351  15.123  1.00  0.00     0.358 A 
HETATM    7  O   LIG     1      16.443  32.951  14.528  1.00  0.00    -0.244 OA
HETATM    8  O   LIG     1      13.311  29.736  15.641  1.00  0.00    -0.269 OA
HETATM    9  N   LIG     1      14.879  32.842  16.298  1.00  0.00    -0.221 N 
HETATM   10 CL   LIG     1      15.270  34.341  17.098  1.00  0.00     0.019 Cl
HETATM   11  C   LIG     1      12.467  32.506  16.688  1.00  0.00     0.050 C 
ENDROOT
TORSDOF 0
ENDMDL
MODEL 8
REMARK VINA RESULT:      -3.9      9.892     10.875
REMARK  0 active torsions:
REMARK  status: ('A' for Active; 'I' for Inactive)
ROOT
HETATM    1  C   LIG     1      15.976  29.158  14.494  1.00  0.00     0.050 C 
HETATM    2  C   LIG     1      15.241  30.504  14.450  1.00  0.00     0.129 A 
HETATM    3  C   LIG     1      15.829  31.471  15.449  1.00  0.00     0.272 A 
HETATM    4  N   LIG     1      14.881  31.866  16.430  1.00  0.00    -0.168 N 
HETATM    5 CL   LIG     1      15.165  32.840  17.845  1.00  0.00     0.025 Cl
HETATM    6  C   LIG     1      13.705  31.159  16.097  1.00  0.00     0.358 A 
HETATM    7  O   LIG     1      12.637  31.227  16.759  1.00  0.00    -0.244 OA
HETATM    8  O   LIG     1      17.019  31.883  15.435  1.00  0.00    -0.269 OA
HETATM    9  N   LIG     1      13.865  30.353  14.936  1.00  0.00    -0.221 N 
HETATM   10 CL   LIG     1      12.626  29.348  14.233  1.00  0.00     0.019 Cl
HETATM   11  C   LIG     1      15.248  31.106  13.039  1.00  0.00     0.050 C 
ENDROOT
TORSDOF 0
ENDMDL
MODEL 9
REMARK VINA RESULT:      -3.9     16.953     17.996
REMARK  0 active torsions:
REMARK  status: ('A' for Active; 'I' for Inactive)
ROOT
HETATM    1  C   LIG     1       5.158  40.492  35.651  1.00  0.00     0.050 C 
HETATM    2  C   LIG     1       3.876  41.148  35.124  1.00  0.00     0.129 A 
HETATM    3  C   LIG     1       3.734  40.929  33.637  1.00  0.00     0.272 A 
HETATM    4  N   LIG     1       3.733  42.153  32.915  1.00  0.00    -0.168 N 
HETATM    5 CL   LIG     1       3.742  42.363  31.187  1.00  0.00     0.025 Cl
HETATM    6  C   LIG     1       3.893  43.150  33.902  1.00  0.00     0.358 A 
HETATM    7  O   LIG     1       3.967  44.380  33.647  1.00  0.00    -0.244 OA
HETATM    8  O   LIG     1       3.635  39.803  33.082  1.00  0.00    -0.269 OA
HETATM    9  N   LIG     1       3.972  42.609  35.214  1.00  0.00    -0.221 N 
HETATM   10 CL   LIG     1       4.168  43.541  36.675  1.00  0.00     0.019 Cl
HETATM   11  C   LIG     1       2.634  40.644  35.870  1.00  0.00     0.050 C 
ENDROOT
TORSDOF 0
ENDMDL
MODEL 10
REMARK VINA RESULT:      -3.8      9.792     11.141
REMARK  0 active torsions:
REMARK  status: ('A' for Active; 'I' for Inactive)
ROOT
HETATM    1  C   LIG     1      16.123  33.006  13.888  1.00  0.00     0.050 C 
HETATM    2  C   LIG     1      15.980  31.882  14.923  1.00  0.00     0.129 A 
HETATM    3  C   LIG     1      15.372  30.650  14.297  1.00  0.00     0.272 A 
HETATM    4  N   LIG     1      14.132  30.304  14.895  1.00  0.00    -0.168 N 
HETATM    5 CL   LIG     1      13.024  29.058  14.393  1.00  0.00     0.025 Cl
HETATM    6  C   LIG     1      13.918  31.298  15.876  1.00  0.00     0.358 A 
HETATM    7  O   LIG     1      12.897  31.348  16.609  1.00  0.00    -0.244 OA
HETATM    8  O   LIG     1      15.885  29.997  13.349  1.00  0.00    -0.269 OA
HETATM    9  N   LIG     1      14.981  32.240  15.935  1.00  0.00    -0.221 N 
HETATM   10 CL   LIG     1      15.059  33.599  17.025  1.00  0.00     0.019 Cl
HETATM   11  C   LIG     1      17.322  31.550  15.587  1.00  0.00     0.050 C 
ENDROOT
TORSDOF 0
ENDMDL
MODEL 11
REMARK VINA RESULT:      -3.7     15.839     16.600
REMARK  0 active torsions:
REMARK  status: ('A' for Active; 'I' for Inactive)
ROOT
HETATM    1  C   LIG     1      22.077  22.893  21.295  1.00  0.00     0.050 C 
HETATM    2  C   LIG     1      23.359  22.080  21.076  1.00  0.00     0.129 A 
HETATM    3  C   LIG     1      24.525  22.709  21.800  1.00  0.00     0.272 A 
HETATM    4  N   LIG     1      25.553  23.113  20.907  1.00  0.00    -0.168 N 
HETATM    5 CL   LIG     1      26.996  24.009  21.289  1.00  0.00     0.025 Cl
HETATM    6  C   LIG     1      25.065  22.777  19.625  1.00  0.00     0.358 A 
HETATM    7  O   LIG     1      25.690  23.007  18.557  1.00  0.00    -0.244 OA
HETATM    8  O   LIG     1      24.593  22.874  23.048  1.00  0.00    -0.269 OA
HETATM    9  N   LIG     1      23.785  22.159  19.675  1.00  0.00    -0.221 N 
HETATM   10 CL   LIG     1      22.880  21.610  18.289  1.00  0.00     0.019 Cl
HETATM   11  C   LIG     1      23.180  20.616  21.501  1.00  0.00     0.050 C 
ENDROOT
TORSDOF 0
ENDMDL
MODEL 12
REMARK VINA RESULT:      -3.5     16.060     17.107
REMARK  0 active torsions:
REMARK  status: ('A' for Active; 'I' for Inactive)
ROOT
HETATM    1  C   LIG     1      25.749  31.558  35.919  1.00  0.00     0.050 C 
HETATM    2  C   LIG     1      27.054  30.752  35.913  1.00  0.00     0.129 A 
HETATM    3  C   LIG     1      27.519  30.493  34.501  1.00  0.00     0.272 A 
HETATM    4  N   LIG     1      27.569  29.105  34.202  1.00  0.00    -0.168 N 
HETATM    5 CL   LIG     1      27.901  28.365  32.661  1.00  0.00     0.025 Cl
HETATM    6  C   LIG     1      27.127  28.469  35.382  1.00  0.00     0.358 A 
HETATM    7  O   LIG     1      27.007  27.222  35.501  1.00  0.00    -0.244 OA
HETATM    8  O   LIG     1      27.823  31.388  33.668  1.00  0.00    -0.269 OA
HETATM    9  N   LIG     1      26.822  29.395  36.418  1.00  0.00    -0.221 N 
HETATM   10 CL   LIG     1      26.251  28.969  38.009  1.00  0.00     0.019 Cl
HETATM   11  C   LIG     1      28.151  31.448  36.729  1.00  0.00     0.050 C 
ENDROOT
TORSDOF 0
ENDMDL
MODEL 13
REMARK VINA RESULT:      -3.4      9.665     10.851
REMARK  0 active torsions:
REMARK  status: ('A' for Active; 'I' for Inactive)
ROOT
HETATM    1  C   LIG     1      15.433  31.211  13.039  1.00  0.00     0.050 C 
HETATM    2  C   LIG     1      15.476  30.801  14.516  1.00  0.00     0.129 A 
HETATM    3  C   LIG     1      14.083  30.723  15.092  1.00  0.00     0.272 A 
HETATM    4  N   LIG     1      13.892  31.645  16.155  1.00  0.00    -0.168 N 
HETATM    5 CL   LIG     1      12.410  31.998  16.999  1.00  0.00     0.025 Cl
HETATM    6  C   LIG     1      15.124  32.329  16.261  1.00  0.00     0.358 A 
HETATM    7  O   LIG     1      15.341  33.255  17.085  1.00  0.00    -0.244 OA
HETATM    8  O   LIG     1      13.179  29.944  14.686  1.00  0.00    -0.269 OA
HETATM    9  N   LIG     1      16.087  31.861  15.325  1.00  0.00    -0.221 N 
HETATM   10 CL   LIG     1      17.713  32.470  15.169  1.00  0.00     0.019 Cl
HETATM   11  C   LIG     1      16.223  29.476  14.714  1.00  0.00     0.050 C 
ENDROOT
TORSDOF 0
ENDMDL
MODEL 14
REMARK VINA RESULT:      -3.3      9.759     10.802
REMARK  0 active torsions:
REMARK  status: ('A' for Active; 'I' for Inactive)
ROOT
HETATM    1  C   LIG     1      17.232  31.330  15.475  1.00  0.00     0.050 C 
HETATM    2  C   LIG     1      15.932  31.692  14.746  1.00  0.00     0.129 A 
HETATM    3  C   LIG     1      14.998  32.450  15.658  1.00  0.00     0.272 A 
HETATM    4  N   LIG     1      13.776  31.756  15.865  1.00  0.00    -0.168 N 
HETATM    5 CL   LIG     1      12.486  32.185  16.954  1.00  0.00     0.025 Cl
HETATM    6  C   LIG     1      13.913  30.560  15.126  1.00  0.00     0.358 A 
HETATM    7  O   LIG     1      13.034  29.661  15.083  1.00  0.00    -0.244 OA
HETATM    8  O   LIG     1      15.256  33.563  16.188  1.00  0.00    -0.269 OA
HETATM    9  N   LIG     1      15.158  30.483  14.444  1.00  0.00    -0.221 N 
HETATM   10 CL   LIG     1      15.670  29.155  13.436  1.00  0.00     0.019 Cl
HETATM   11  C   LIG     1      16.206  32.487  13.463  1.00  0.00     0.050 C 
ENDROOT
TORSDOF 0
ENDMDL
MODEL 15
REMARK VINA RESULT:      -3.3     16.735     17.685
REMARK  0 active torsions:
REMARK  status: ('A' for Active; 'I' for Inactive)
ROOT
HETATM    1  C   LIG     1      25.863  31.251  35.606  1.00  0.00     0.050 C 
HETATM    2  C   LIG     1      27.159  30.513  35.245  1.00  0.00     0.129 A 
HETATM    3  C   LIG     1      26.887  29.054  34.968  1.00  0.00     0.272 A 
HETATM    4  N   LIG     1      27.570  28.203  35.876  1.00  0.00    -0.168 N 
HETATM    5 CL   LIG     1      27.426  26.473  36.019  1.00  0.00     0.025 Cl
HETATM    6  C   LIG     1      28.256  29.081  36.744  1.00  0.00     0.358 A 
HETATM    7  O   LIG     1      28.962  28.698  37.712  1.00  0.00    -0.244 OA
HETATM    8  O   LIG     1      26.140  28.624  34.050  1.00  0.00    -0.269 OA
HETATM    9  N   LIG     1      28.053  30.447  36.406  1.00  0.00    -0.221 N 
HETATM   10 CL   LIG     1      28.745  31.805  37.253  1.00  0.00     0.019 Cl
HETATM   11  C   LIG     1      27.871  31.170  34.056  1.00  0.00     0.050 C 
ENDROOT
TORSDOF 0
ENDMDL
MODEL 16
REMARK VINA RESULT:      -3.2     18.360     19.808
REMARK  0 active torsions:
REMARK  status: ('A' for Active; 'I' for Inactive)
ROOT
HETATM    1  C   LIG     1      19.173  20.372  35.601  1.00  0.00     0.050 C 
HETATM    2  C   LIG     1      20.576  20.864  35.226  1.00  0.00     0.129 A 
HETATM    3  C   LIG     1      21.482  20.876  36.433  1.00  0.00     0.272 A 
HETATM    4  N   LIG     1      21.950  22.182  36.737  1.00  0.00    -0.168 N 
HETATM    5 CL   LIG     1      22.885  22.677  38.119  1.00  0.00     0.025 Cl
HETATM    6  C   LIG     1      21.348  23.012  35.766  1.00  0.00     0.358 A 
HETATM    7  O   LIG     1      21.502  24.260  35.721  1.00  0.00    -0.244 OA
HETATM    8  O   LIG     1      21.792  19.859  37.110  1.00  0.00    -0.269 OA
HETATM    9  N   LIG     1      20.540  22.282  34.851  1.00  0.00    -0.221 N 
HETATM   10 CL   LIG     1      19.649  22.976  33.523  1.00  0.00     0.019 Cl
HETATM   11  C   LIG     1      21.186  20.026  34.095  1.00  0.00     0.050 C 
ENDROOT
TORSDOF 0
ENDMDL
MODEL 17
REMARK VINA RESULT:      -3.2     16.216     17.568
REMARK  0 active torsions:
REMARK  status: ('A' for Active; 'I' for Inactive)
ROOT
HETATM    1  C   LIG     1      24.353  20.281  20.115  1.00  0.00     0.050 C 
HETATM    2  C   LIG     1      24.227  21.574  19.300  1.00  0.00     0.129 A 
HETATM    3  C   LIG     1      25.353  21.691  18.301  1.00  0.00     0.272 A 
HETATM    4  N   LIG     1      26.159  22.837  18.538  1.00  0.00    -0.168 N 
HETATM    5 CL   LIG     1      27.638  23.276  17.732  1.00  0.00     0.025 Cl
HETATM    6  C   LIG     1      25.589  23.445  19.679  1.00  0.00     0.358 A 
HETATM    7  O   LIG     1      26.047  24.486  20.218  1.00  0.00    -0.244 OA
HETATM    8  O   LIG     1      25.573  20.876  17.366  1.00  0.00    -0.269 OA
HETATM    9  N   LIG     1      24.447  22.745  20.155  1.00  0.00    -0.221 N 
HETATM   10 CL   LIG     1      23.491  23.206  21.538  1.00  0.00     0.019 Cl
HETATM   11  C   LIG     1      22.865  21.670  18.599  1.00  0.00     0.050 C 
ENDROOT
TORSDOF 0
ENDMDL
MODEL 18
REMARK VINA RESULT:      -3.1     18.080     19.191
REMARK  0 active torsions:
REMARK  status: ('A' for Active; 'I' for Inactive)
ROOT
HETATM    1  C   LIG     1      19.462  21.254  35.241  1.00  0.00     0.050 C 
HETATM    2  C   LIG     1      20.481  21.992  34.363  1.00  0.00     0.129 A 
HETATM    3  C   LIG     1      21.361  21.013  33.623  1.00  0.00     0.272 A 
HETATM    4  N   LIG     1      22.729  21.153  33.978  1.00  0.00    -0.168 N 
HETATM    5 CL   LIG     1      24.059  20.140  33.488  1.00  0.00     0.025 Cl
HETATM    6  C   LIG     1      22.745  22.183  34.943  1.00  0.00     0.358 A 
HETATM    7  O   LIG     1      23.788  22.582  35.523  1.00  0.00    -0.244 OA
HETATM    8  O   LIG     1      20.948  20.160  32.793  1.00  0.00    -0.269 OA
HETATM    9  N   LIG     1      21.450  22.713  35.195  1.00  0.00    -0.221 N 
HETATM   10 CL   LIG     1      21.090  23.995  36.321  1.00  0.00     0.019 Cl
HETATM   11  C   LIG     1      19.793  22.953  33.384  1.00  0.00     0.050 C 
ENDROOT
TORSDOF 0
ENDMDL
