MODEL 1
REMARK VINA RESULT:      -6.8      0.000      0.000
REMARK  3 active torsions:
REMARK  status: ('A' for Active; 'I' for Inactive)
REMARK    1  A    between atoms: O_1  and  C_2 
REMARK    2  A    between atoms: C_2  and  C_3 
REMARK    3  A    between atoms: C_8  and  N_9 
ROOT
HETATM    1  C   LIG     1      16.999  36.755  24.359  1.00  0.00     0.063 A 
HETATM    2  C   LIG     1      17.196  35.362  24.343  1.00  0.00     0.020 A 
HETATM    3  C   LIG     1      17.833  34.722  25.407  1.00  0.00     0.001 A 
HETATM    4  C   LIG     1      18.280  35.460  26.502  1.00  0.00     0.002 A 
HETATM    5  C   LIG     1      18.102  36.844  26.530  1.00  0.00     0.030 A 
HETATM    6  C   LIG     1      17.475  37.507  25.463  1.00  0.00     0.042 A 
ENDROOT
BRANCH   1   7
HETATM    7  C   LIG     1      16.257  37.379  23.239  1.00  0.00     0.178 C 
HETATM    8  O   LIG     1      16.673  37.255  22.058  1.00  0.00    -0.646 OA
BRANCH   7   9
HETATM    9  O   LIG     1      15.116  38.143  23.476  1.00  0.00    -0.773 OA
HETATM   10  H   LIG     1      14.628  38.109  24.363  1.00  0.00     0.167 HD
ENDBRANCH   7   9
ENDBRANCH   1   7
BRANCH   6  11
HETATM   11  N   LIG     1      17.382  38.938  25.502  1.00  0.00    -0.398 N 
HETATM   12  H   LIG     1      17.284  39.486  24.617  1.00  0.00     0.156 HD
HETATM   13  H   LIG     1      17.303  39.465  26.399  1.00  0.00     0.156 HD
ENDBRANCH   6  11
TORSDOF 3
ENDMDL
MODEL 2
REMARK VINA RESULT:      -6.3      1.638      2.232
REMARK  3 active torsions:
REMARK  status: ('A' for Active; 'I' for Inactive)
REMARK    1  A    between atoms: O_1  and  C_2 
REMARK    2  A    between atoms: C_2  and  C_3 
REMARK    3  A    between atoms: C_8  and  N_9 
ROOT
HETATM    1  C   LIG     1      17.173  37.081  24.486  1.00  0.00     0.063 A 
HETATM    2  C   LIG     1      17.693  37.533  25.713  1.00  0.00     0.020 A 
HETATM    3  C   LIG     1      18.215  36.631  26.640  1.00  0.00     0.001 A 
HETATM    4  C   LIG     1      18.229  35.266  26.357  1.00  0.00     0.002 A 
HETATM    5  C   LIG     1      17.709  34.798  25.150  1.00  0.00     0.030 A 
HETATM    6  C   LIG     1      17.168  35.690  24.210  1.00  0.00     0.042 A 
ENDROOT
BRANCH   1   7
HETATM    7  C   LIG     1      16.694  38.083  23.507  1.00  0.00     0.178 C 
HETATM    8  O   LIG     1      17.503  38.891  22.981  1.00  0.00    -0.646 OA
BRANCH   7   9
HETATM    9  O   LIG     1      15.341  38.177  23.185  1.00  0.00    -0.773 OA
HETATM   10  H   LIG     1      14.975  37.818  22.312  1.00  0.00     0.167 HD
ENDBRANCH   7   9
ENDBRANCH   1   7
BRANCH   6  11
HETATM   11  N   LIG     1      16.576  35.157  23.016  1.00  0.00    -0.398 N 
HETATM   12  H   LIG     1      15.678  34.626  23.063  1.00  0.00     0.156 HD
HETATM   13  H   LIG     1      16.956  35.367  22.068  1.00  0.00     0.156 HD
ENDBRANCH   6  11
TORSDOF 3
ENDMDL
MODEL 3
REMARK VINA RESULT:      -6.3      3.333      4.714
REMARK  3 active torsions:
REMARK  status: ('A' for Active; 'I' for Inactive)
REMARK    1  A    between atoms: O_1  and  C_2 
REMARK    2  A    between atoms: C_2  and  C_3 
REMARK    3  A    between atoms: C_8  and  N_9 
ROOT
HETATM    1  C   LIG     1      17.483  38.141  21.981  1.00  0.00     0.063 A 
HETATM    2  C   LIG     1      18.302  39.225  21.615  1.00  0.00     0.020 A 
HETATM    3  C   LIG     1      19.153  39.133  20.513  1.00  0.00     0.001 A 
HETATM    4  C   LIG     1      19.197  37.961  19.760  1.00  0.00     0.002 A 
HETATM    5  C   LIG     1      18.399  36.873  20.113  1.00  0.00     0.030 A 
HETATM    6  C   LIG     1      17.546  36.942  21.227  1.00  0.00     0.042 A 
ENDROOT
BRANCH   1   7
HETATM    7  C   LIG     1      16.547  38.313  23.117  1.00  0.00     0.178 C 
HETATM    8  O   LIG     1      16.987  38.589  24.264  1.00  0.00    -0.646 OA
BRANCH   7   9
HETATM    9  O   LIG     1      15.176  38.131  22.946  1.00  0.00    -0.773 OA
HETATM   10  H   LIG     1      14.567  37.909  23.724  1.00  0.00     0.167 HD
ENDBRANCH   7   9
ENDBRANCH   1   7
BRANCH   6  11
HETATM   11  N   LIG     1      16.801  35.774  21.598  1.00  0.00    -0.398 N 
HETATM   12  H   LIG     1      15.763  35.821  21.707  1.00  0.00     0.156 HD
HETATM   13  H   LIG     1      17.244  34.832  21.666  1.00  0.00     0.156 HD
ENDBRANCH   6  11
TORSDOF 3
ENDMDL
MODEL 4
REMARK VINA RESULT:      -6.0      9.438     10.552
REMARK  3 active torsions:
REMARK  status: ('A' for Active; 'I' for Inactive)
REMARK    1  A    between atoms: O_1  and  C_2 
REMARK    2  A    between atoms: C_2  and  C_3 
REMARK    3  A    between atoms: C_8  and  N_9 
ROOT
HETATM    1  C   LIG     1      15.003  32.330  16.118  1.00  0.00     0.063 A 
HETATM    2  C   LIG     1      15.831  31.940  15.049  1.00  0.00     0.020 A 
HETATM    3  C   LIG     1      15.506  30.834  14.263  1.00  0.00     0.001 A 
HETATM    4  C   LIG     1      14.350  30.102  14.531  1.00  0.00     0.002 A 
HETATM    5  C   LIG     1      13.522  30.467  15.593  1.00  0.00     0.030 A 
HETATM    6  C   LIG     1      13.840  31.570  16.403  1.00  0.00     0.042 A 
ENDROOT
BRANCH   1   7
HETATM    7  C   LIG     1      15.355  33.551  16.878  1.00  0.00     0.178 C 
HETATM    8  O   LIG     1      15.832  34.552  16.283  1.00  0.00    -0.646 OA
BRANCH   7   9
HETATM    9  O   LIG     1      15.205  33.598  18.263  1.00  0.00    -0.773 OA
HETATM   10  H   LIG     1      15.946  33.306  18.889  1.00  0.00     0.167 HD
ENDBRANCH   7   9
ENDBRANCH   1   7
BRANCH   6  11
HETATM   11  N   LIG     1      13.001  31.862  17.529  1.00  0.00    -0.398 N 
HETATM   12  H   LIG     1      12.037  31.465  17.587  1.00  0.00     0.156 HD
HETATM   13  H   LIG     1      13.353  32.383  18.361  1.00  0.00     0.156 HD
ENDBRANCH   6  11
TORSDOF 3
ENDMDL
MODEL 5
REMARK VINA RESULT:      -6.0      4.567      5.678
REMARK  3 active torsions:
REMARK  status: ('A' for Active; 'I' for Inactive)
REMARK    1  A    between atoms: O_1  and  C_2 
REMARK    2  A    between atoms: C_2  and  C_3 
REMARK    3  A    between atoms: C_8  and  N_9 
ROOT
HETATM    1  C   LIG     1      18.768  38.646  20.138  1.00  0.00     0.063 A 
HETATM    2  C   LIG     1      18.581  39.463  21.268  1.00  0.00     0.020 A 
HETATM    3  C   LIG     1      17.904  38.982  22.389  1.00  0.00     0.001 A 
HETATM    4  C   LIG     1      17.407  37.680  22.401  1.00  0.00     0.002 A 
HETATM    5  C   LIG     1      17.574  36.859  21.286  1.00  0.00     0.030 A 
HETATM    6  C   LIG     1      18.241  37.330  20.143  1.00  0.00     0.042 A 
ENDROOT
BRANCH   1   7
HETATM    7  C   LIG     1      19.552  39.180  19.000  1.00  0.00     0.178 C 
HETATM    8  O   LIG     1      18.983  39.448  17.910  1.00  0.00    -0.646 OA
BRANCH   7   9
HETATM    9  O   LIG     1      20.931  39.353  19.103  1.00  0.00    -0.773 OA
HETATM   10  H   LIG     1      21.433  39.996  18.503  1.00  0.00     0.167 HD
ENDBRANCH   7   9
ENDBRANCH   1   7
BRANCH   6  11
HETATM   11  N   LIG     1      18.323  36.477  18.993  1.00  0.00    -0.398 N 
HETATM   12  H   LIG     1      18.123  35.455  19.077  1.00  0.00     0.156 HD
HETATM   13  H   LIG     1      18.476  36.854  18.032  1.00  0.00     0.156 HD
ENDBRANCH   6  11
TORSDOF 3
ENDMDL
MODEL 6
REMARK VINA RESULT:      -5.9      2.836      4.110
REMARK  3 active torsions:
REMARK  status: ('A' for Active; 'I' for Inactive)
REMARK    1  A    between atoms: O_1  and  C_2 
REMARK    2  A    between atoms: C_2  and  C_3 
REMARK    3  A    between atoms: C_8  and  N_9 
ROOT
HETATM    1  C   LIG     1      17.469  37.642  22.452  1.00  0.00     0.063 A 
HETATM    2  C   LIG     1      17.007  36.407  21.959  1.00  0.00     0.020 A 
HETATM    3  C   LIG     1      17.379  35.963  20.690  1.00  0.00     0.001 A 
HETATM    4  C   LIG     1      18.218  36.743  19.895  1.00  0.00     0.002 A 
HETATM    5  C   LIG     1      18.677  37.974  20.362  1.00  0.00     0.030 A 
HETATM    6  C   LIG     1      18.303  38.443  21.632  1.00  0.00     0.042 A 
ENDROOT
BRANCH   1   7
HETATM    7  C   LIG     1      17.102  38.036  23.832  1.00  0.00     0.178 C 
HETATM    8  O   LIG     1      15.891  38.103  24.170  1.00  0.00    -0.646 OA
BRANCH   7   9
HETATM    9  O   LIG     1      18.083  38.379  24.761  1.00  0.00    -0.773 OA
HETATM   10  H   LIG     1      18.310  37.776  25.541  1.00  0.00     0.167 HD
ENDBRANCH   7   9
ENDBRANCH   1   7
BRANCH   6  11
HETATM   11  N   LIG     1      18.738  39.748  22.040  1.00  0.00    -0.398 N 
HETATM   12  H   LIG     1      19.566  40.195  21.586  1.00  0.00     0.156 HD
HETATM   13  H   LIG     1      18.193  40.329  22.713  1.00  0.00     0.156 HD
ENDBRANCH   6  11
TORSDOF 3
ENDMDL
MODEL 7
REMARK VINA RESULT:      -5.9      2.452      3.750
REMARK  3 active torsions:
REMARK  status: ('A' for Active; 'I' for Inactive)
REMARK    1  A    between atoms: O_1  and  C_2 
REMARK    2  A    between atoms: C_2  and  C_3 
REMARK    3  A    between atoms: C_8  and  N_9 
ROOT
HETATM    1  C   LIG     1      17.410  37.079  24.134  1.00  0.00     0.063 A 
HETATM    2  C   LIG     1      17.376  37.879  22.977  1.00  0.00     0.020 A 
HETATM    3  C   LIG     1      17.119  37.313  21.728  1.00  0.00     0.001 A 
HETATM    4  C   LIG     1      16.890  35.942  21.615  1.00  0.00     0.002 A 
HETATM    5  C   LIG     1      16.929  35.131  22.750  1.00  0.00     0.030 A 
HETATM    6  C   LIG     1      17.200  35.681  24.014  1.00  0.00     0.042 A 
ENDROOT
BRANCH   1   7
HETATM    7  C   LIG     1      17.619  37.737  25.445  1.00  0.00     0.178 C 
HETATM    8  O   LIG     1      16.917  38.728  25.774  1.00  0.00    -0.646 OA
BRANCH   7   9
HETATM    9  O   LIG     1      18.618  37.299  26.313  1.00  0.00    -0.773 OA
HETATM   10  H   LIG     1      18.891  36.325  26.362  1.00  0.00     0.167 HD
ENDBRANCH   7   9
ENDBRANCH   1   7
BRANCH   6  11
HETATM   11  N   LIG     1      17.306  34.800  25.140  1.00  0.00    -0.398 N 
HETATM   12  H   LIG     1      17.546  35.175  26.085  1.00  0.00     0.156 HD
HETATM   13  H   LIG     1      17.048  33.791  25.081  1.00  0.00     0.156 HD
ENDBRANCH   6  11
TORSDOF 3
ENDMDL
MODEL 8
REMARK VINA RESULT:      -5.9      9.266     10.254
REMARK  3 active torsions:
REMARK  status: ('A' for Active; 'I' for Inactive)
REMARK    1  A    between atoms: O_1  and  C_2 
REMARK    2  A    between atoms: C_2  and  C_3 
REMARK    3  A    between atoms: C_8  and  N_9 
ROOT
HETATM    1  C   LIG     1      15.637  32.377  15.762  1.00  0.00     0.063 A 
HETATM    2  C   LIG     1      15.320  31.305  14.907  1.00  0.00     0.020 A 
HETATM    3  C   LIG     1      14.173  30.540  15.120  1.00  0.00     0.001 A 
HETATM    4  C   LIG     1      13.324  30.835  16.185  1.00  0.00     0.002 A 
HETATM    5  C   LIG     1      13.626  31.888  17.049  1.00  0.00     0.030 A 
HETATM    6  C   LIG     1      14.784  32.660  16.859  1.00  0.00     0.042 A 
ENDROOT
BRANCH   1   7
HETATM    7  C   LIG     1      16.828  33.201  15.454  1.00  0.00     0.178 C 
HETATM    8  O   LIG     1      17.917  32.649  15.147  1.00  0.00    -0.646 OA
BRANCH   7   9
HETATM    9  O   LIG     1      16.776  34.591  15.538  1.00  0.00    -0.773 OA
HETATM   10  H   LIG     1      17.609  35.161  15.454  1.00  0.00     0.167 HD
ENDBRANCH   7   9
ENDBRANCH   1   7
BRANCH   6  11
HETATM   11  N   LIG     1      15.094  33.683  17.815  1.00  0.00    -0.398 N 
HETATM   12  H   LIG     1      15.308  33.433  18.806  1.00  0.00     0.156 HD
HETATM   13  H   LIG     1      15.219  34.681  17.538  1.00  0.00     0.156 HD
ENDBRANCH   6  11
TORSDOF 3
ENDMDL
MODEL 9
REMARK VINA RESULT:      -5.8      4.110      4.775
REMARK  3 active torsions:
REMARK  status: ('A' for Active; 'I' for Inactive)
REMARK    1  A    between atoms: O_1  and  C_2 
REMARK    2  A    between atoms: C_2  and  C_3 
REMARK    3  A    between atoms: C_8  and  N_9 
ROOT
HETATM    1  C   LIG     1      17.887  37.948  21.307  1.00  0.00     0.063 A 
HETATM    2  C   LIG     1      16.881  38.064  22.284  1.00  0.00     0.020 A 
HETATM    3  C   LIG     1      15.952  37.041  22.473  1.00  0.00     0.001 A 
HETATM    4  C   LIG     1      16.015  35.886  21.695  1.00  0.00     0.002 A 
HETATM    5  C   LIG     1      17.000  35.757  20.715  1.00  0.00     0.030 A 
HETATM    6  C   LIG     1      17.936  36.783  20.501  1.00  0.00     0.042 A 
ENDROOT
BRANCH   1   7
HETATM    7  C   LIG     1      18.891  39.032  21.192  1.00  0.00     0.178 C 
HETATM    8  O   LIG     1      19.049  39.633  20.097  1.00  0.00    -0.646 OA
BRANCH   7   9
HETATM    9  O   LIG     1      19.700  39.373  22.273  1.00  0.00    -0.773 OA
HETATM   10  H   LIG     1      19.787  40.330  22.592  1.00  0.00     0.167 HD
ENDBRANCH   7   9
ENDBRANCH   1   7
BRANCH   6  11
HETATM   11  N   LIG     1      18.882  36.639  19.433  1.00  0.00    -0.398 N 
HETATM   12  H   LIG     1      18.627  36.114  18.567  1.00  0.00     0.156 HD
HETATM   13  H   LIG     1      19.801  37.132  19.437  1.00  0.00     0.156 HD
ENDBRANCH   6  11
TORSDOF 3
ENDMDL
MODEL 10
REMARK VINA RESULT:      -5.7      9.332     10.453
REMARK  3 active torsions:
REMARK  status: ('A' for Active; 'I' for Inactive)
REMARK    1  A    between atoms: O_1  and  C_2 
REMARK    2  A    between atoms: C_2  and  C_3 
REMARK    3  A    between atoms: C_8  and  N_9 
ROOT
HETATM    1  C   LIG     1      14.716  32.448  16.396  1.00  0.00     0.063 A 
HETATM    2  C   LIG     1      13.506  31.861  16.810  1.00  0.00     0.020 A 
HETATM    3  C   LIG     1      13.014  30.722  16.174  1.00  0.00     0.001 A 
HETATM    4  C   LIG     1      13.722  30.149  15.119  1.00  0.00     0.002 A 
HETATM    5  C   LIG     1      14.918  30.722  14.687  1.00  0.00     0.030 A 
HETATM    6  C   LIG     1      15.423  31.877  15.307  1.00  0.00     0.042 A 
ENDROOT
BRANCH   1   7
HETATM    7  C   LIG     1      15.231  33.616  17.148  1.00  0.00     0.178 C 
HETATM    8  O   LIG     1      15.696  34.610  16.531  1.00  0.00    -0.646 OA
BRANCH   7   9
HETATM    9  O   LIG     1      15.249  33.617  18.541  1.00  0.00    -0.773 OA
HETATM   10  H   LIG     1      15.082  32.774  19.076  1.00  0.00     0.167 HD
ENDBRANCH   7   9
ENDBRANCH   1   7
BRANCH   6  11
HETATM   11  N   LIG     1      16.616  32.475  14.782  1.00  0.00    -0.398 N 
HETATM   12  H   LIG     1      16.972  32.204  13.837  1.00  0.00     0.156 HD
HETATM   13  H   LIG     1      17.102  33.261  15.265  1.00  0.00     0.156 HD
ENDBRANCH   6  11
TORSDOF 3
ENDMDL
MODEL 11
REMARK VINA RESULT:      -5.7      3.984      4.869
REMARK  3 active torsions:
REMARK  status: ('A' for Active; 'I' for Inactive)
REMARK    1  A    between atoms: O_1  and  C_2 
REMARK    2  A    between atoms: C_2  and  C_3 
REMARK    3  A    between atoms: C_8  and  N_9 
ROOT
HETATM    1  C   LIG     1      17.391  36.888  21.215  1.00  0.00     0.063 A 
HETATM    2  C   LIG     1      16.949  37.683  22.289  1.00  0.00     0.020 A 
HETATM    3  C   LIG     1      17.493  38.949  22.508  1.00  0.00     0.001 A 
HETATM    4  C   LIG     1      18.484  39.441  21.659  1.00  0.00     0.002 A 
HETATM    5  C   LIG     1      18.941  38.663  20.595  1.00  0.00     0.030 A 
HETATM    6  C   LIG     1      18.414  37.382  20.366  1.00  0.00     0.042 A 
ENDROOT
BRANCH   1   7
HETATM    7  C   LIG     1      16.733  35.581  20.983  1.00  0.00     0.178 C 
HETATM    8  O   LIG     1      16.555  34.784  21.941  1.00  0.00    -0.646 OA
BRANCH   7   9
HETATM    9  O   LIG     1      16.340  35.197  19.702  1.00  0.00    -0.773 OA
HETATM   10  H   LIG     1      17.016  34.989  18.978  1.00  0.00     0.167 HD
ENDBRANCH   7   9
ENDBRANCH   1   7
BRANCH   6  11
HETATM   11  N   LIG     1      18.968  36.589  19.307  1.00  0.00    -0.398 N 
HETATM   12  H   LIG     1      19.487  37.042  18.523  1.00  0.00     0.156 HD
HETATM   13  H   LIG     1      18.965  35.546  19.336  1.00  0.00     0.156 HD
ENDBRANCH   6  11
TORSDOF 3
ENDMDL
MODEL 12
REMARK VINA RESULT:      -5.6      3.222      4.272
REMARK  3 active torsions:
REMARK  status: ('A' for Active; 'I' for Inactive)
REMARK    1  A    between atoms: O_1  and  C_2 
REMARK    2  A    between atoms: C_2  and  C_3 
REMARK    3  A    between atoms: C_8  and  N_9 
ROOT
HETATM    1  C   LIG     1      17.346  36.655  21.623  1.00  0.00     0.063 A 
HETATM    2  C   LIG     1      18.141  36.583  20.464  1.00  0.00     0.020 A 
HETATM    3  C   LIG     1      18.766  37.723  19.958  1.00  0.00     0.001 A 
HETATM    4  C   LIG     1      18.610  38.950  20.601  1.00  0.00     0.002 A 
HETATM    5  C   LIG     1      17.818  39.043  21.746  1.00  0.00     0.030 A 
HETATM    6  C   LIG     1      17.170  37.908  22.263  1.00  0.00     0.042 A 
ENDROOT
BRANCH   1   7
HETATM    7  C   LIG     1      16.760  35.405  22.160  1.00  0.00     0.178 C 
HETATM    8  O   LIG     1      15.991  34.709  21.446  1.00  0.00    -0.646 OA
BRANCH   7   9
HETATM    9  O   LIG     1      17.015  35.001  23.469  1.00  0.00    -0.773 OA
HETATM   10  H   LIG     1      16.414  35.274  24.237  1.00  0.00     0.167 HD
ENDBRANCH   7   9
ENDBRANCH   1   7
BRANCH   6  11
HETATM   11  N   LIG     1      16.306  38.066  23.396  1.00  0.00    -0.398 N 
HETATM   12  H   LIG     1      15.341  37.666  23.385  1.00  0.00     0.156 HD
HETATM   13  H   LIG     1      16.638  38.482  24.293  1.00  0.00     0.156 HD
ENDBRANCH   6  11
TORSDOF 3
ENDMDL
MODEL 13
REMARK VINA RESULT:      -5.6     10.767     11.767
REMARK  3 active torsions:
REMARK  status: ('A' for Active; 'I' for Inactive)
REMARK    1  A    between atoms: O_1  and  C_2 
REMARK    2  A    between atoms: C_2  and  C_3 
REMARK    3  A    between atoms: C_8  and  N_9 
ROOT
HETATM    1  C   LIG     1      14.360  30.601  15.107  1.00  0.00     0.063 A 
HETATM    2  C   LIG     1      15.471  31.383  14.740  1.00  0.00     0.020 A 
HETATM    3  C   LIG     1      15.839  32.495  15.499  1.00  0.00     0.001 A 
HETATM    4  C   LIG     1      15.106  32.841  16.633  1.00  0.00     0.002 A 
HETATM    5  C   LIG     1      13.996  32.083  17.006  1.00  0.00     0.030 A 
HETATM    6  C   LIG     1      13.603  30.968  16.248  1.00  0.00     0.042 A 
ENDROOT
BRANCH   1   7
HETATM    7  C   LIG     1      14.052  29.391  14.309  1.00  0.00     0.178 C 
HETATM    8  O   LIG     1      14.984  28.696  13.828  1.00  0.00    -0.646 OA
BRANCH   7   9
HETATM    9  O   LIG     1      12.732  29.028  14.044  1.00  0.00    -0.773 OA
HETATM   10  H   LIG     1      12.505  28.279  13.402  1.00  0.00     0.167 HD
ENDBRANCH   7   9
ENDBRANCH   1   7
BRANCH   6  11
HETATM   11  N   LIG     1      12.412  30.264  16.626  1.00  0.00    -0.398 N 
HETATM   12  H   LIG     1      11.491  30.757  16.650  1.00  0.00     0.156 HD
HETATM   13  H   LIG     1      12.404  29.233  16.782  1.00  0.00     0.156 HD
ENDBRANCH   6  11
TORSDOF 3
ENDMDL
MODEL 14
REMARK VINA RESULT:      -5.6      9.943     10.993
REMARK  3 active torsions:
REMARK  status: ('A' for Active; 'I' for Inactive)
REMARK    1  A    between atoms: O_1  and  C_2 
REMARK    2  A    between atoms: C_2  and  C_3 
REMARK    3  A    between atoms: C_8  and  N_9 
ROOT
HETATM    1  C   LIG     1      14.379  31.451  15.984  1.00  0.00     0.063 A 
HETATM    2  C   LIG     1      14.069  30.409  15.090  1.00  0.00     0.020 A 
HETATM    3  C   LIG     1      14.793  30.246  13.909  1.00  0.00     0.001 A 
HETATM    4  C   LIG     1      15.837  31.118  13.603  1.00  0.00     0.002 A 
HETATM    5  C   LIG     1      16.152  32.163  14.472  1.00  0.00     0.030 A 
HETATM    6  C   LIG     1      15.426  32.350  15.659  1.00  0.00     0.042 A 
ENDROOT
BRANCH   1   7
HETATM    7  C   LIG     1      13.626  31.540  17.256  1.00  0.00     0.178 C 
HETATM    8  O   LIG     1      14.233  31.462  18.357  1.00  0.00    -0.646 OA
BRANCH   7   9
HETATM    9  O   LIG     1      12.238  31.667  17.258  1.00  0.00    -0.773 OA
HETATM   10  H   LIG     1      11.630  30.859  17.284  1.00  0.00     0.167 HD
ENDBRANCH   7   9
ENDBRANCH   1   7
BRANCH   6  11
HETATM   11  N   LIG     1      15.735  33.482  16.484  1.00  0.00    -0.398 N 
HETATM   12  H   LIG     1      15.190  34.369  16.392  1.00  0.00     0.156 HD
HETATM   13  H   LIG     1      16.428  33.428  17.262  1.00  0.00     0.156 HD
ENDBRANCH   6  11
TORSDOF 3
ENDMDL
MODEL 15
REMARK VINA RESULT:      -5.6     10.593     11.625
REMARK  3 active torsions:
REMARK  status: ('A' for Active; 'I' for Inactive)
REMARK    1  A    between atoms: O_1  and  C_2 
REMARK    2  A    between atoms: C_2  and  C_3 
REMARK    3  A    between atoms: C_8  and  N_9 
ROOT
HETATM    1  C   LIG     1      15.470  31.752  15.107  1.00  0.00     0.063 A 
HETATM    2  C   LIG     1      15.011  32.380  16.279  1.00  0.00     0.020 A 
HETATM    3  C   LIG     1      13.850  31.940  16.914  1.00  0.00     0.001 A 
HETATM    4  C   LIG     1      13.131  30.866  16.392  1.00  0.00     0.002 A 
HETATM    5  C   LIG     1      13.565  30.237  15.225  1.00  0.00     0.030 A 
HETATM    6  C   LIG     1      14.725  30.674  14.564  1.00  0.00     0.042 A 
ENDROOT
BRANCH   1   7
HETATM    7  C   LIG     1      16.745  32.211  14.508  1.00  0.00     0.178 C 
HETATM    8  O   LIG     1      17.732  32.471  15.245  1.00  0.00    -0.646 OA
BRANCH   7   9
HETATM    9  O   LIG     1      16.860  32.403  13.133  1.00  0.00    -0.773 OA
HETATM   10  H   LIG     1      17.392  33.172  12.745  1.00  0.00     0.167 HD
ENDBRANCH   7   9
ENDBRANCH   1   7
BRANCH   6  11
HETATM   11  N   LIG     1      15.091  30.046  13.328  1.00  0.00    -0.398 N 
HETATM   12  H   LIG     1      14.355  29.721  12.662  1.00  0.00     0.156 HD
HETATM   13  H   LIG     1      16.081  29.990  13.006  1.00  0.00     0.156 HD
ENDBRANCH   6  11
TORSDOF 3
ENDMDL
MODEL 16
REMARK VINA RESULT:      -5.5     10.172     11.179
REMARK  3 active torsions:
REMARK  status: ('A' for Active; 'I' for Inactive)
REMARK    1  A    between atoms: O_1  and  C_2 
REMARK    2  A    between atoms: C_2  and  C_3 
REMARK    3  A    between atoms: C_8  and  N_9 
ROOT
HETATM    1  C   LIG     1      15.167  31.365  14.969  1.00  0.00     0.063 A 
HETATM    2  C   LIG     1      14.020  30.647  15.356  1.00  0.00     0.020 A 
HETATM    3  C   LIG     1      13.381  30.925  16.565  1.00  0.00     0.001 A 
HETATM    4  C   LIG     1      13.875  31.923  17.404  1.00  0.00     0.002 A 
HETATM    5  C   LIG     1      15.016  32.639  17.042  1.00  0.00     0.030 A 
HETATM    6  C   LIG     1      15.680  32.364  15.835  1.00  0.00     0.042 A 
ENDROOT
BRANCH   1   7
HETATM    7  C   LIG     1      15.768  31.080  13.646  1.00  0.00     0.178 C 
HETATM    8  O   LIG     1      15.698  29.924  13.155  1.00  0.00    -0.646 OA
BRANCH   7   9
HETATM    9  O   LIG     1      16.453  32.072  12.945  1.00  0.00    -0.773 OA
HETATM   10  H   LIG     1      16.216  32.308  11.989  1.00  0.00     0.167 HD
ENDBRANCH   7   9
ENDBRANCH   1   7
BRANCH   6  11
HETATM   11  N   LIG     1      16.892  33.072  15.539  1.00  0.00    -0.398 N 
HETATM   12  H   LIG     1      17.367  33.639  16.277  1.00  0.00     0.156 HD
HETATM   13  H   LIG     1      17.390  32.964  14.629  1.00  0.00     0.156 HD
ENDBRANCH   6  11
TORSDOF 3
ENDMDL
MODEL 17
REMARK VINA RESULT:      -5.4     10.739     11.853
REMARK  3 active torsions:
REMARK  status: ('A' for Active; 'I' for Inactive)
REMARK    1  A    between atoms: O_1  and  C_2 
REMARK    2  A    between atoms: C_2  and  C_3 
REMARK    3  A    between atoms: C_8  and  N_9 
ROOT
HETATM    1  C   LIG     1      14.519  31.179  15.642  1.00  0.00     0.063 A 
HETATM    2  C   LIG     1      15.407  32.255  15.825  1.00  0.00     0.020 A 
HETATM    3  C   LIG     1      16.277  32.641  14.805  1.00  0.00     0.001 A 
HETATM    4  C   LIG     1      16.273  31.961  13.587  1.00  0.00     0.002 A 
HETATM    5  C   LIG     1      15.406  30.886  13.391  1.00  0.00     0.030 A 
HETATM    6  C   LIG     1      14.532  30.475  14.411  1.00  0.00     0.042 A 
ENDROOT
BRANCH   1   7
HETATM    7  C   LIG     1      13.568  30.852  16.729  1.00  0.00     0.178 C 
HETATM    8  O   LIG     1      13.876  31.079  17.929  1.00  0.00    -0.646 OA
BRANCH   7   9
HETATM    9  O   LIG     1      12.341  30.254  16.449  1.00  0.00    -0.773 OA
HETATM   10  H   LIG     1      12.243  29.249  16.375  1.00  0.00     0.167 HD
ENDBRANCH   7   9
ENDBRANCH   1   7
BRANCH   6  11
HETATM   11  N   LIG     1      13.713  29.318  14.192  1.00  0.00    -0.398 N 
HETATM   12  H   LIG     1      12.828  29.393  13.643  1.00  0.00     0.156 HD
HETATM   13  H   LIG     1      14.019  28.361  14.473  1.00  0.00     0.156 HD
ENDBRANCH   6  11
TORSDOF 3
ENDMDL
MODEL 18
REMARK VINA RESULT:      -5.2      2.801      4.056
REMARK  3 active torsions:
REMARK  status: ('A' for Active; 'I' for Inactive)
REMARK    1  A    between atoms: O_1  and  C_2 
REMARK    2  A    between atoms: C_2  and  C_3 
REMARK    3  A    between atoms: C_8  and  N_9 
ROOT
HETATM    1  C   LIG     1      17.460  36.927  24.654  1.00  0.00     0.063 A 
HETATM    2  C   LIG     1      17.552  38.331  24.655  1.00  0.00     0.020 A 
HETATM    3  C   LIG     1      17.258  39.064  23.504  1.00  0.00     0.001 A 
HETATM    4  C   LIG     1      16.865  38.408  22.339  1.00  0.00     0.002 A 
HETATM    5  C   LIG     1      16.778  37.015  22.316  1.00  0.00     0.030 A 
HETATM    6  C   LIG     1      17.083  36.260  23.461  1.00  0.00     0.042 A 
ENDROOT
BRANCH   1   7
HETATM    7  C   LIG     1      17.717  36.200  25.919  1.00  0.00     0.178 C 
HETATM    8  O   LIG     1      18.585  36.622  26.727  1.00  0.00    -0.646 OA
BRANCH   7   9
HETATM    9  O   LIG     1      17.035  35.021  26.215  1.00  0.00    -0.773 OA
HETATM   10  H   LIG     1      16.631  34.854  27.128  1.00  0.00     0.167 HD
ENDBRANCH   7   9
ENDBRANCH   1   7
BRANCH   6  11
HETATM   11  N   LIG     1      17.053  34.829  23.370  1.00  0.00    -0.398 N 
HETATM   12  H   LIG     1      17.030  34.359  22.437  1.00  0.00     0.156 HD
HETATM   13  H   LIG     1      17.158  34.218  24.208  1.00  0.00     0.156 HD
ENDBRANCH   6  11
TORSDOF 3
ENDMDL
MODEL 19
REMARK VINA RESULT:      -4.7     11.928     13.119
REMARK  3 active torsions:
REMARK  status: ('A' for Active; 'I' for Inactive)
REMARK    1  A    between atoms: O_1  and  C_2 
REMARK    2  A    between atoms: C_2  and  C_3 
REMARK    3  A    between atoms: C_8  and  N_9 
ROOT
HETATM    1  C   LIG     1      18.968  34.107  12.681  1.00  0.00     0.063 A 
HETATM    2  C   LIG     1      20.295  33.644  12.753  1.00  0.00     0.020 A 
HETATM    3  C   LIG     1      21.168  33.817  11.679  1.00  0.00     0.001 A 
HETATM    4  C   LIG     1      20.732  34.457  10.519  1.00  0.00     0.002 A 
HETATM    5  C   LIG     1      19.417  34.914  10.426  1.00  0.00     0.030 A 
HETATM    6  C   LIG     1      18.520  34.736  11.492  1.00  0.00     0.042 A 
ENDROOT
BRANCH   1   7
HETATM    7  C   LIG     1      18.101  33.960  13.873  1.00  0.00     0.178 C 
HETATM    8  O   LIG     1      17.934  32.828  14.399  1.00  0.00    -0.646 OA
BRANCH   7   9
HETATM    9  O   LIG     1      17.426  35.057  14.405  1.00  0.00    -0.773 OA
HETATM   10  H   LIG     1      17.921  35.871  14.747  1.00  0.00     0.167 HD
ENDBRANCH   7   9
ENDBRANCH   1   7
BRANCH   6  11
HETATM   11  N   LIG     1      17.158  35.154  11.323  1.00  0.00    -0.398 N 
HETATM   12  H   LIG     1      16.561  35.358  12.155  1.00  0.00     0.156 HD
HETATM   13  H   LIG     1      16.756  35.367  10.385  1.00  0.00     0.156 HD
ENDBRANCH   6  11
TORSDOF 3
ENDMDL
