REMARK  3 active torsions:
REMARK  status: ('A' for Active; 'I' for Inactive)
REMARK    1  A    between atoms: O_1  and  C_2 
REMARK    2  A    between atoms: C_2  and  C_3 
REMARK    3  A    between atoms: C_8  and  N_9 
ROOT
HETATM    1  C   LIG     1       0.467  -0.276  -0.357  1.00  0.00     0.063 A 
HETATM    2  C   LIG     1      -0.467  -1.325  -0.443  1.00  0.00     0.020 A 
HETATM    3  C   LIG     1      -1.766  -1.162   0.039  1.00  0.00     0.001 A 
HETATM    4  C   LIG     1      -2.153   0.049   0.611  1.00  0.00     0.002 A 
HETATM    5  C   LIG     1      -1.238   1.097   0.714  1.00  0.00     0.030 A 
HETATM    6  C   LIG     1       0.078   0.947   0.246  1.00  0.00     0.042 A 
ENDROOT
BRANCH   1   7
HETATM    7  C   LIG     1       1.812  -0.475  -0.945  1.00  0.00     0.178 C 
HETATM    8  O   LIG     1       2.349   0.441  -1.621  1.00  0.00    -0.646 OA
BRANCH   7   9
HETATM    9  O   LIG     1       2.484  -1.687  -0.796  1.00  0.00    -0.773 OA
HETATM   10  H   LIG     1       2.108  -2.438  -0.231  1.00  0.00     0.167 HD
ENDBRANCH   7   9
ENDBRANCH   1   7
BRANCH   6  11
HETATM   11  N   LIG     1       1.005   2.024   0.441  1.00  0.00    -0.398 N 
HETATM   12  H   LIG     1       0.676   2.945   0.808  1.00  0.00     0.156 HD
HETATM   13  H   LIG     1       2.034   1.897   0.328  1.00  0.00     0.156 HD
ENDBRANCH   6  11
TORSDOF 3
