REMARK  0 active torsions:
REMARK  status: ('A' for Active; 'I' for Inactive)
ROOT
HETATM    1  C   LIG     1      -1.299  -0.260   1.161  1.00  0.00     0.050 C 
HETATM    2  C   LIG     1      -0.368   0.038  -0.021  1.00  0.00     0.129 A 
HETATM    3  C   LIG     1       0.487  -1.163  -0.347  1.00  0.00     0.272 A 
HETATM    4  N   LIG     1       1.872  -0.890  -0.190  1.00  0.00    -0.168 N 
HETATM    5 CL   LIG     1       3.194  -2.017  -0.311  1.00  0.00     0.025 Cl
HETATM    6  C   LIG     1       1.925   0.451   0.250  1.00  0.00     0.358 A 
HETATM    7  O   LIG     1       2.994   1.054   0.527  1.00  0.00    -0.244 OA
HETATM    8  O   LIG     1       0.043  -2.285  -0.709  1.00  0.00    -0.269 OA
HETATM    9  N   LIG     1       0.635   1.040   0.355  1.00  0.00    -0.221 N 
HETATM   10 CL   LIG     1       0.317   2.677   0.864  1.00  0.00     0.019 Cl
HETATM   11  C   LIG     1      -1.152   0.500  -1.256  1.00  0.00     0.050 C 
ENDROOT
TORSDOF 0
