REMARK  2 active torsions:
REMARK  status: ('A' for Active; 'I' for Inactive)
REMARK    1  A    between atoms: C_2  and  C_3 
REMARK    2  A    between atoms: C_2  and  O_10 
ROOT
HETATM    1  C   LIG     1       0.598   0.061  -0.043  1.00  0.00     0.059 A 
HETATM    2  C   LIG     1      -0.127  -1.068   0.390  1.00  0.00     0.020 A 
HETATM    3  C   LIG     1      -1.523  -1.067   0.387  1.00  0.00     0.001 A 
HETATM    4  C   LIG     1      -2.221   0.058  -0.045  1.00  0.00     0.002 A 
HETATM    5  C   LIG     1      -1.525   1.189  -0.472  1.00  0.00     0.025 A 
HETATM    6  C   LIG     1      -0.124   1.205  -0.475  1.00  0.00     0.051 A 
HETATM    7 CL   LIG     1       0.656   2.698  -0.994  1.00  0.00    -0.083 Cl
ENDROOT
BRANCH   1   8
HETATM    8  C   LIG     1       2.083  -0.003  -0.026  1.00  0.00     0.177 C 
HETATM    9  O   LIG     1       2.781   0.860  -0.624  1.00  0.00    -0.646 OA
BRANCH   8  10
HETATM   10  O   LIG     1       2.727  -1.042   0.642  1.00  0.00    -0.773 OA
HETATM   11  H   LIG     1       3.738  -1.104   0.657  1.00  0.00     0.167 HD
ENDBRANCH   8  10
ENDBRANCH   1   8
TORSDOF 2
