MODEL 1
REMARK VINA RESULT:      -6.8      0.000      0.000
REMARK  2 active torsions:
REMARK  status: ('A' for Active; 'I' for Inactive)
REMARK    1  A    between atoms: C_2  and  C_3 
REMARK    2  A    between atoms: C_2  and  O_10 
ROOT
HETATM    1  C   LIG     1      17.156  37.125  24.344  1.00  0.00     0.059 A 
HETATM    2  C   LIG     1      17.649  37.577  25.585  1.00  0.00     0.020 A 
HETATM    3  C   LIG     1      18.120  36.674  26.541  1.00  0.00     0.001 A 
HETATM    4  C   LIG     1      18.104  35.306  26.278  1.00  0.00     0.002 A 
HETATM    5  C   LIG     1      17.615  34.836  25.059  1.00  0.00     0.025 A 
HETATM    6  C   LIG     1      17.139  35.728  24.090  1.00  0.00     0.051 A 
HETATM    7 CL   LIG     1      16.504  35.027  22.603  1.00  0.00    -0.083 Cl
ENDROOT
BRANCH   1   8
HETATM    8  C   LIG     1      16.678  38.135  23.364  1.00  0.00     0.177 C 
HETATM    9  O   LIG     1      17.487  38.870  22.736  1.00  0.00    -0.646 OA
BRANCH   8  10
HETATM   10  O   LIG     1      15.312  38.296  23.140  1.00  0.00    -0.773 OA
HETATM   11  H   LIG     1      14.806  39.073  23.548  1.00  0.00     0.167 HD
ENDBRANCH   8  10
ENDBRANCH   1   8
TORSDOF 2
ENDMDL
MODEL 2
REMARK VINA RESULT:      -6.6      2.644      4.004
REMARK  2 active torsions:
REMARK  status: ('A' for Active; 'I' for Inactive)
REMARK    1  A    between atoms: C_2  and  C_3 
REMARK    2  A    between atoms: C_2  and  O_10 
ROOT
HETATM    1  C   LIG     1      17.373  37.870  22.012  1.00  0.00     0.059 A 
HETATM    2  C   LIG     1      18.090  39.046  21.709  1.00  0.00     0.020 A 
HETATM    3  C   LIG     1      18.950  39.097  20.610  1.00  0.00     0.001 A 
HETATM    4  C   LIG     1      19.112  37.979  19.796  1.00  0.00     0.002 A 
HETATM    5  C   LIG     1      18.418  36.803  20.080  1.00  0.00     0.025 A 
HETATM    6  C   LIG     1      17.551  36.734  21.179  1.00  0.00     0.051 A 
HETATM    7 CL   LIG     1      16.755  35.189  21.472  1.00  0.00    -0.083 Cl
ENDROOT
BRANCH   1   8
HETATM    8  C   LIG     1      16.465  37.879  23.189  1.00  0.00     0.177 C 
HETATM    9  O   LIG     1      16.898  37.646  24.350  1.00  0.00    -0.646 OA
BRANCH   8  10
HETATM   10  O   LIG     1      15.106  38.129  23.017  1.00  0.00    -0.773 OA
HETATM   11  H   LIG     1      14.447  37.367  22.904  1.00  0.00     0.167 HD
ENDBRANCH   8  10
ENDBRANCH   1   8
TORSDOF 2
ENDMDL
MODEL 3
REMARK VINA RESULT:      -6.3      2.160      3.256
REMARK  2 active torsions:
REMARK  status: ('A' for Active; 'I' for Inactive)
REMARK    1  A    between atoms: C_2  and  C_3 
REMARK    2  A    between atoms: C_2  and  O_10 
ROOT
HETATM    1  C   LIG     1      17.406  37.116  24.118  1.00  0.00     0.059 A 
HETATM    2  C   LIG     1      17.382  37.852  22.916  1.00  0.00     0.020 A 
HETATM    3  C   LIG     1      17.141  37.220  21.694  1.00  0.00     0.001 A 
HETATM    4  C   LIG     1      16.922  35.845  21.648  1.00  0.00     0.002 A 
HETATM    5  C   LIG     1      16.949  35.095  22.824  1.00  0.00     0.025 A 
HETATM    6  C   LIG     1      17.189  35.713  24.059  1.00  0.00     0.051 A 
HETATM    7 CL   LIG     1      17.242  34.669  25.477  1.00  0.00    -0.083 Cl
ENDROOT
BRANCH   1   8
HETATM    8  C   LIG     1      17.658  37.845  25.388  1.00  0.00     0.177 C 
HETATM    9  O   LIG     1      16.910  38.789  25.759  1.00  0.00    -0.646 OA
BRANCH   8  10
HETATM   10  O   LIG     1      18.750  37.502  26.183  1.00  0.00    -0.773 OA
HETATM   11  H   LIG     1      19.391  36.771  25.899  1.00  0.00     0.167 HD
ENDBRANCH   8  10
ENDBRANCH   1   8
TORSDOF 2
ENDMDL
MODEL 4
REMARK VINA RESULT:      -6.2      3.980      5.136
REMARK  2 active torsions:
REMARK  status: ('A' for Active; 'I' for Inactive)
REMARK    1  A    between atoms: C_2  and  C_3 
REMARK    2  A    between atoms: C_2  and  O_10 
ROOT
HETATM    1  C   LIG     1      17.904  36.909  20.715  1.00  0.00     0.059 A 
HETATM    2  C   LIG     1      18.904  36.889  19.722  1.00  0.00     0.020 A 
HETATM    3  C   LIG     1      19.710  38.007  19.494  1.00  0.00     0.001 A 
HETATM    4  C   LIG     1      19.532  39.163  20.250  1.00  0.00     0.002 A 
HETATM    5  C   LIG     1      18.544  39.208  21.234  1.00  0.00     0.025 A 
HETATM    6  C   LIG     1      17.727  38.096  21.475  1.00  0.00     0.051 A 
HETATM    7 CL   LIG     1      16.483  38.272  22.711  1.00  0.00    -0.083 Cl
ENDROOT
BRANCH   1   8
HETATM    8  C   LIG     1      17.084  35.686  20.917  1.00  0.00     0.177 C 
HETATM    9  O   LIG     1      17.125  35.043  22.001  1.00  0.00    -0.646 OA
BRANCH   8  10
HETATM   10  O   LIG     1      16.266  35.219  19.890  1.00  0.00    -0.773 OA
HETATM   11  H   LIG     1      16.427  35.496  18.929  1.00  0.00     0.167 HD
ENDBRANCH   8  10
ENDBRANCH   1   8
TORSDOF 2
ENDMDL
MODEL 5
REMARK VINA RESULT:      -6.2      2.024      2.814
REMARK  2 active torsions:
REMARK  status: ('A' for Active; 'I' for Inactive)
REMARK    1  A    between atoms: C_2  and  C_3 
REMARK    2  A    between atoms: C_2  and  O_10 
ROOT
HETATM    1  C   LIG     1      17.151  35.864  23.824  1.00  0.00     0.059 A 
HETATM    2  C   LIG     1      17.448  34.853  24.761  1.00  0.00     0.020 A 
HETATM    3  C   LIG     1      17.861  35.176  26.055  1.00  0.00     0.001 A 
HETATM    4  C   LIG     1      17.986  36.509  26.438  1.00  0.00     0.002 A 
HETATM    5  C   LIG     1      17.703  37.526  25.525  1.00  0.00     0.025 A 
HETATM    6  C   LIG     1      17.288  37.220  24.222  1.00  0.00     0.051 A 
HETATM    7 CL   LIG     1      16.997  38.578  23.138  1.00  0.00    -0.083 Cl
ENDROOT
BRANCH   1   8
HETATM    8  C   LIG     1      16.707  35.458  22.464  1.00  0.00     0.177 C 
HETATM    9  O   LIG     1      15.653  34.788  22.293  1.00  0.00    -0.646 OA
BRANCH   8  10
HETATM   10  O   LIG     1      17.472  35.802  21.352  1.00  0.00    -0.773 OA
HETATM   11  H   LIG     1      17.615  36.771  21.096  1.00  0.00     0.167 HD
ENDBRANCH   8  10
ENDBRANCH   1   8
TORSDOF 2
ENDMDL
MODEL 6
REMARK VINA RESULT:      -6.2      2.997      4.118
REMARK  2 active torsions:
REMARK  status: ('A' for Active; 'I' for Inactive)
REMARK    1  A    between atoms: C_2  and  C_3 
REMARK    2  A    between atoms: C_2  and  O_10 
ROOT
HETATM    1  C   LIG     1      17.265  35.652  24.586  1.00  0.00     0.059 A 
HETATM    2  C   LIG     1      17.090  34.904  23.403  1.00  0.00     0.020 A 
HETATM    3  C   LIG     1      16.866  35.540  22.181  1.00  0.00     0.001 A 
HETATM    4  C   LIG     1      16.811  36.930  22.114  1.00  0.00     0.002 A 
HETATM    5  C   LIG     1      16.976  37.690  23.272  1.00  0.00     0.025 A 
HETATM    6  C   LIG     1      17.200  37.068  24.507  1.00  0.00     0.051 A 
HETATM    7 CL   LIG     1      17.353  38.119  25.914  1.00  0.00    -0.083 Cl
ENDROOT
BRANCH   1   8
HETATM    8  C   LIG     1      17.509  34.919  25.856  1.00  0.00     0.177 C 
HETATM    9  O   LIG     1      18.674  34.789  26.321  1.00  0.00    -0.646 OA
BRANCH   8  10
HETATM   10  O   LIG     1      16.443  34.343  26.543  1.00  0.00    -0.773 OA
HETATM   11  H   LIG     1      16.504  33.398  26.901  1.00  0.00     0.167 HD
ENDBRANCH   8  10
ENDBRANCH   1   8
TORSDOF 2
ENDMDL
MODEL 7
REMARK VINA RESULT:      -6.0      2.467      3.628
REMARK  2 active torsions:
REMARK  status: ('A' for Active; 'I' for Inactive)
REMARK    1  A    between atoms: C_2  and  C_3 
REMARK    2  A    between atoms: C_2  and  O_10 
ROOT
HETATM    1  C   LIG     1      17.401  37.021  23.685  1.00  0.00     0.059 A 
HETATM    2  C   LIG     1      17.050  35.656  23.726  1.00  0.00     0.020 A 
HETATM    3  C   LIG     1      16.842  34.935  22.549  1.00  0.00     0.001 A 
HETATM    4  C   LIG     1      16.977  35.560  21.312  1.00  0.00     0.002 A 
HETATM    5  C   LIG     1      17.317  36.911  21.247  1.00  0.00     0.025 A 
HETATM    6  C   LIG     1      17.530  37.650  22.418  1.00  0.00     0.051 A 
HETATM    7 CL   LIG     1      17.915  39.359  22.225  1.00  0.00    -0.083 Cl
ENDROOT
BRANCH   1   8
HETATM    8  C   LIG     1      17.620  37.734  24.971  1.00  0.00     0.177 C 
HETATM    9  O   LIG     1      16.790  38.582  25.397  1.00  0.00    -0.646 OA
BRANCH   8  10
HETATM   10  O   LIG     1      18.769  37.484  25.718  1.00  0.00    -0.773 OA
HETATM   11  H   LIG     1      19.522  36.920  25.343  1.00  0.00     0.167 HD
ENDBRANCH   8  10
ENDBRANCH   1   8
TORSDOF 2
ENDMDL
MODEL 8
REMARK VINA RESULT:      -6.0      3.597      4.027
REMARK  2 active torsions:
REMARK  status: ('A' for Active; 'I' for Inactive)
REMARK    1  A    between atoms: C_2  and  C_3 
REMARK    2  A    between atoms: C_2  and  O_10 
ROOT
HETATM    1  C   LIG     1      17.870  38.012  21.458  1.00  0.00     0.059 A 
HETATM    2  C   LIG     1      16.778  38.115  22.344  1.00  0.00     0.020 A 
HETATM    3  C   LIG     1      15.832  37.093  22.437  1.00  0.00     0.001 A 
HETATM    4  C   LIG     1      15.955  35.951  21.649  1.00  0.00     0.002 A 
HETATM    5  C   LIG     1      17.024  35.830  20.760  1.00  0.00     0.025 A 
HETATM    6  C   LIG     1      17.982  36.847  20.654  1.00  0.00     0.051 A 
HETATM    7 CL   LIG     1      19.268  36.611  19.472  1.00  0.00    -0.083 Cl
ENDROOT
BRANCH   1   8
HETATM    8  C   LIG     1      18.850  39.129  21.411  1.00  0.00     0.177 C 
HETATM    9  O   LIG     1      18.972  39.847  20.382  1.00  0.00    -0.646 OA
BRANCH   8  10
HETATM   10  O   LIG     1      19.668  39.383  22.509  1.00  0.00    -0.773 OA
HETATM   11  H   LIG     1      19.534  40.212  23.077  1.00  0.00     0.167 HD
ENDBRANCH   8  10
ENDBRANCH   1   8
TORSDOF 2
ENDMDL
MODEL 9
REMARK VINA RESULT:      -5.9      9.130     10.158
REMARK  2 active torsions:
REMARK  status: ('A' for Active; 'I' for Inactive)
REMARK    1  A    between atoms: C_2  and  C_3 
REMARK    2  A    between atoms: C_2  and  O_10 
ROOT
HETATM    1  C   LIG     1      14.654  32.369  16.384  1.00  0.00     0.059 A 
HETATM    2  C   LIG     1      13.440  31.715  16.677  1.00  0.00     0.020 A 
HETATM    3  C   LIG     1      13.046  30.583  15.961  1.00  0.00     0.001 A 
HETATM    4  C   LIG     1      13.852  30.084  14.941  1.00  0.00     0.002 A 
HETATM    5  C   LIG     1      15.054  30.719  14.629  1.00  0.00     0.025 A 
HETATM    6  C   LIG     1      15.465  31.856  15.337  1.00  0.00     0.051 A 
HETATM    7 CL   LIG     1      16.980  32.605  14.835  1.00  0.00    -0.083 Cl
ENDROOT
BRANCH   1   8
HETATM    8  C   LIG     1      15.025  33.564  17.186  1.00  0.00     0.177 C 
HETATM    9  O   LIG     1      15.136  34.701  16.652  1.00  0.00    -0.646 OA
BRANCH   8  10
HETATM   10  O   LIG     1      15.277  33.435  18.550  1.00  0.00    -0.773 OA
HETATM   11  H   LIG     1      15.396  32.523  18.974  1.00  0.00     0.167 HD
ENDBRANCH   8  10
ENDBRANCH   1   8
TORSDOF 2
ENDMDL
MODEL 10
REMARK VINA RESULT:      -5.8      3.749      4.496
REMARK  2 active torsions:
REMARK  status: ('A' for Active; 'I' for Inactive)
REMARK    1  A    between atoms: C_2  and  C_3 
REMARK    2  A    between atoms: C_2  and  O_10 
ROOT
HETATM    1  C   LIG     1      17.322  36.945  21.332  1.00  0.00     0.059 A 
HETATM    2  C   LIG     1      16.682  37.683  22.347  1.00  0.00     0.020 A 
HETATM    3  C   LIG     1      17.113  38.969  22.678  1.00  0.00     0.001 A 
HETATM    4  C   LIG     1      18.191  39.540  22.006  1.00  0.00     0.002 A 
HETATM    5  C   LIG     1      18.844  38.826  21.001  1.00  0.00     0.025 A 
HETATM    6  C   LIG     1      18.424  37.534  20.657  1.00  0.00     0.051 A 
HETATM    7 CL   LIG     1      19.344  36.704  19.404  1.00  0.00    -0.083 Cl
ENDROOT
BRANCH   1   8
HETATM    8  C   LIG     1      16.812  35.584  21.017  1.00  0.00     0.177 C 
HETATM    9  O   LIG     1      16.811  34.670  21.886  1.00  0.00    -0.646 OA
BRANCH   8  10
HETATM   10  O   LIG     1      16.342  35.296  19.738  1.00  0.00    -0.773 OA
HETATM   11  H   LIG     1      15.377  35.471  19.486  1.00  0.00     0.167 HD
ENDBRANCH   8  10
ENDBRANCH   1   8
TORSDOF 2
ENDMDL
MODEL 11
REMARK VINA RESULT:      -5.7      9.962     10.802
REMARK  2 active torsions:
REMARK  status: ('A' for Active; 'I' for Inactive)
REMARK    1  A    between atoms: C_2  and  C_3 
REMARK    2  A    between atoms: C_2  and  O_10 
ROOT
HETATM    1  C   LIG     1      15.494  32.009  15.341  1.00  0.00     0.059 A 
HETATM    2  C   LIG     1      14.933  32.630  16.475  1.00  0.00     0.020 A 
HETATM    3  C   LIG     1      13.768  32.132  17.062  1.00  0.00     0.001 A 
HETATM    4  C   LIG     1      13.141  31.009  16.528  1.00  0.00     0.002 A 
HETATM    5  C   LIG     1      13.675  30.381  15.402  1.00  0.00     0.025 A 
HETATM    6  C   LIG     1      14.843  30.869  14.801  1.00  0.00     0.051 A 
HETATM    7 CL   LIG     1      15.409  30.027  13.359  1.00  0.00    -0.083 Cl
ENDROOT
BRANCH   1   8
HETATM    8  C   LIG     1      16.741  32.580  14.766  1.00  0.00     0.177 C 
HETATM    9  O   LIG     1      17.856  32.415  15.331  1.00  0.00    -0.646 OA
BRANCH   8  10
HETATM   10  O   LIG     1      16.686  33.331  13.594  1.00  0.00    -0.773 OA
HETATM   11  H   LIG     1      17.447  33.948  13.335  1.00  0.00     0.167 HD
ENDBRANCH   8  10
ENDBRANCH   1   8
TORSDOF 2
ENDMDL
MODEL 12
REMARK VINA RESULT:      -5.7      3.799      4.665
REMARK  2 active torsions:
REMARK  status: ('A' for Active; 'I' for Inactive)
REMARK    1  A    between atoms: C_2  and  C_3 
REMARK    2  A    between atoms: C_2  and  O_10 
ROOT
HETATM    1  C   LIG     1      18.016  37.003  20.710  1.00  0.00     0.059 A 
HETATM    2  C   LIG     1      17.269  35.998  21.359  1.00  0.00     0.020 A 
HETATM    3  C   LIG     1      16.554  36.278  22.525  1.00  0.00     0.001 A 
HETATM    4  C   LIG     1      16.571  37.561  23.066  1.00  0.00     0.002 A 
HETATM    5  C   LIG     1      17.308  38.570  22.445  1.00  0.00     0.025 A 
HETATM    6  C   LIG     1      18.032  38.306  21.274  1.00  0.00     0.051 A 
HETATM    7 CL   LIG     1      18.962  39.640  20.594  1.00  0.00    -0.083 Cl
ENDROOT
BRANCH   1   8
HETATM    8  C   LIG     1      18.749  36.648  19.467  1.00  0.00     0.177 C 
HETATM    9  O   LIG     1      19.975  36.354  19.493  1.00  0.00    -0.646 OA
BRANCH   8  10
HETATM   10  O   LIG     1      18.087  36.656  18.242  1.00  0.00    -0.773 OA
HETATM   11  H   LIG     1      17.401  37.369  18.025  1.00  0.00     0.167 HD
ENDBRANCH   8  10
ENDBRANCH   1   8
TORSDOF 2
ENDMDL
MODEL 13
REMARK VINA RESULT:      -5.7      2.956      4.247
REMARK  2 active torsions:
REMARK  status: ('A' for Active; 'I' for Inactive)
REMARK    1  A    between atoms: C_2  and  C_3 
REMARK    2  A    between atoms: C_2  and  O_10 
ROOT
HETATM    1  C   LIG     1      16.950  37.336  22.253  1.00  0.00     0.059 A 
HETATM    2  C   LIG     1      16.594  36.117  21.640  1.00  0.00     0.020 A 
HETATM    3  C   LIG     1      17.192  35.716  20.444  1.00  0.00     0.001 A 
HETATM    4  C   LIG     1      18.153  36.522  19.837  1.00  0.00     0.002 A 
HETATM    5  C   LIG     1      18.516  37.735  20.422  1.00  0.00     0.025 A 
HETATM    6  C   LIG     1      17.926  38.152  21.622  1.00  0.00     0.051 A 
HETATM    7 CL   LIG     1      18.426  39.720  22.254  1.00  0.00    -0.083 Cl
ENDROOT
BRANCH   1   8
HETATM    8  C   LIG     1      16.286  37.705  23.531  1.00  0.00     0.177 C 
HETATM    9  O   LIG     1      16.911  37.674  24.625  1.00  0.00    -0.646 OA
BRANCH   8  10
HETATM   10  O   LIG     1      14.942  38.073  23.535  1.00  0.00    -0.773 OA
HETATM   11  H   LIG     1      14.460  38.296  22.673  1.00  0.00     0.167 HD
ENDBRANCH   8  10
ENDBRANCH   1   8
TORSDOF 2
ENDMDL
MODEL 14
REMARK VINA RESULT:      -5.7     10.004     11.154
REMARK  2 active torsions:
REMARK  status: ('A' for Active; 'I' for Inactive)
REMARK    1  A    between atoms: C_2  and  C_3 
REMARK    2  A    between atoms: C_2  and  O_10 
ROOT
HETATM    1  C   LIG     1      14.177  31.190  15.925  1.00  0.00     0.059 A 
HETATM    2  C   LIG     1      13.679  30.043  15.273  1.00  0.00     0.020 A 
HETATM    3  C   LIG     1      14.248  29.594  14.080  1.00  0.00     0.001 A 
HETATM    4  C   LIG     1      15.320  30.280  13.515  1.00  0.00     0.002 A 
HETATM    5  C   LIG     1      15.825  31.421  14.138  1.00  0.00     0.025 A 
HETATM    6  C   LIG     1      15.266  31.885  15.336  1.00  0.00     0.051 A 
HETATM    7 CL   LIG     1      15.952  33.359  16.018  1.00  0.00    -0.083 Cl
ENDROOT
BRANCH   1   8
HETATM    8  C   LIG     1      13.536  31.614  17.198  1.00  0.00     0.177 C 
HETATM    9  O   LIG     1      14.107  31.435  18.308  1.00  0.00    -0.646 OA
BRANCH   8  10
HETATM   10  O   LIG     1      12.274  32.203  17.179  1.00  0.00    -0.773 OA
HETATM   11  H   LIG     1      11.825  32.500  18.037  1.00  0.00     0.167 HD
ENDBRANCH   8  10
ENDBRANCH   1   8
TORSDOF 2
ENDMDL
MODEL 15
REMARK VINA RESULT:      -5.6      9.765     10.802
REMARK  2 active torsions:
REMARK  status: ('A' for Active; 'I' for Inactive)
REMARK    1  A    between atoms: C_2  and  C_3 
REMARK    2  A    between atoms: C_2  and  O_10 
ROOT
HETATM    1  C   LIG     1      15.635  31.892  15.285  1.00  0.00     0.059 A 
HETATM    2  C   LIG     1      15.523  31.055  14.156  1.00  0.00     0.020 A 
HETATM    3  C   LIG     1      14.470  30.146  14.041  1.00  0.00     0.001 A 
HETATM    4  C   LIG     1      13.512  30.052  15.048  1.00  0.00     0.002 A 
HETATM    5  C   LIG     1      13.606  30.866  16.177  1.00  0.00     0.025 A 
HETATM    6  C   LIG     1      14.657  31.784  16.309  1.00  0.00     0.051 A 
HETATM    7 CL   LIG     1      14.705  32.734  17.793  1.00  0.00    -0.083 Cl
ENDROOT
BRANCH   1   8
HETATM    8  C   LIG     1      16.772  32.848  15.347  1.00  0.00     0.177 C 
HETATM    9  O   LIG     1      17.965  32.450  15.256  1.00  0.00    -0.646 OA
BRANCH   8  10
HETATM   10  O   LIG     1      16.530  34.207  15.530  1.00  0.00    -0.773 OA
HETATM   11  H   LIG     1      17.097  34.757  16.164  1.00  0.00     0.167 HD
ENDBRANCH   8  10
ENDBRANCH   1   8
TORSDOF 2
ENDMDL
MODEL 16
REMARK VINA RESULT:      -5.5      9.736     10.698
REMARK  2 active torsions:
REMARK  status: ('A' for Active; 'I' for Inactive)
REMARK    1  A    between atoms: C_2  and  C_3 
REMARK    2  A    between atoms: C_2  and  O_10 
ROOT
HETATM    1  C   LIG     1      14.652  31.790  16.118  1.00  0.00     0.059 A 
HETATM    2  C   LIG     1      15.702  32.731  16.148  1.00  0.00     0.020 A 
HETATM    3  C   LIG     1      16.586  32.851  15.074  1.00  0.00     0.001 A 
HETATM    4  C   LIG     1      16.442  32.036  13.954  1.00  0.00     0.002 A 
HETATM    5  C   LIG     1      15.415  31.094  13.905  1.00  0.00     0.025 A 
HETATM    6  C   LIG     1      14.519  30.959  14.974  1.00  0.00     0.051 A 
HETATM    7 CL   LIG     1      13.284  29.710  14.829  1.00  0.00    -0.083 Cl
ENDROOT
BRANCH   1   8
HETATM    8  C   LIG     1      13.737  31.714  17.287  1.00  0.00     0.177 C 
HETATM    9  O   LIG     1      14.139  31.292  18.405  1.00  0.00    -0.646 OA
BRANCH   8  10
HETATM   10  O   LIG     1      12.404  32.094  17.153  1.00  0.00    -0.773 OA
HETATM   11  H   LIG     1      12.090  33.008  17.457  1.00  0.00     0.167 HD
ENDBRANCH   8  10
ENDBRANCH   1   8
TORSDOF 2
ENDMDL
MODEL 17
REMARK VINA RESULT:      -5.4      9.606     10.638
REMARK  2 active torsions:
REMARK  status: ('A' for Active; 'I' for Inactive)
REMARK    1  A    between atoms: C_2  and  C_3 
REMARK    2  A    between atoms: C_2  and  O_10 
ROOT
HETATM    1  C   LIG     1      15.254  32.294  15.681  1.00  0.00     0.059 A 
HETATM    2  C   LIG     1      16.123  32.495  14.589  1.00  0.00     0.020 A 
HETATM    3  C   LIG     1      16.132  31.610  13.509  1.00  0.00     0.001 A 
HETATM    4  C   LIG     1      15.278  30.510  13.498  1.00  0.00     0.002 A 
HETATM    5  C   LIG     1      14.414  30.288  14.570  1.00  0.00     0.025 A 
HETATM    6  C   LIG     1      14.393  31.165  15.663  1.00  0.00     0.051 A 
HETATM    7 CL   LIG     1      13.294  30.769  16.983  1.00  0.00    -0.083 Cl
ENDROOT
BRANCH   1   8
HETATM    8  C   LIG     1      15.284  33.274  16.798  1.00  0.00     0.177 C 
HETATM    9  O   LIG     1      15.050  34.497  16.600  1.00  0.00    -0.646 OA
BRANCH   8  10
HETATM   10  O   LIG     1      15.594  32.850  18.088  1.00  0.00    -0.773 OA
HETATM   11  H   LIG     1      16.469  32.380  18.285  1.00  0.00     0.167 HD
ENDBRANCH   8  10
ENDBRANCH   1   8
TORSDOF 2
ENDMDL
MODEL 18
REMARK VINA RESULT:      -5.3      3.859      4.913
REMARK  2 active torsions:
REMARK  status: ('A' for Active; 'I' for Inactive)
REMARK    1  A    between atoms: C_2  and  C_3 
REMARK    2  A    between atoms: C_2  and  O_10 
ROOT
HETATM    1  C   LIG     1      18.477  37.876  20.444  1.00  0.00     0.059 A 
HETATM    2  C   LIG     1      18.173  36.563  20.028  1.00  0.00     0.020 A 
HETATM    3  C   LIG     1      17.353  35.740  20.801  1.00  0.00     0.001 A 
HETATM    4  C   LIG     1      16.824  36.207  22.002  1.00  0.00     0.002 A 
HETATM    5  C   LIG     1      17.116  37.500  22.436  1.00  0.00     0.025 A 
HETATM    6  C   LIG     1      17.937  38.340  21.672  1.00  0.00     0.051 A 
HETATM    7 CL   LIG     1      18.277  39.939  22.332  1.00  0.00    -0.083 Cl
ENDROOT
BRANCH   1   8
HETATM    8  C   LIG     1      19.348  38.709  19.574  1.00  0.00     0.177 C 
HETATM    9  O   LIG     1      18.865  39.612  18.838  1.00  0.00    -0.646 OA
BRANCH   8  10
HETATM   10  O   LIG     1      20.723  38.485  19.546  1.00  0.00    -0.773 OA
HETATM   11  H   LIG     1      21.262  38.448  20.403  1.00  0.00     0.167 HD
ENDBRANCH   8  10
ENDBRANCH   1   8
TORSDOF 2
ENDMDL
MODEL 19
REMARK VINA RESULT:      -5.3     10.601     11.552
REMARK  2 active torsions:
REMARK  status: ('A' for Active; 'I' for Inactive)
REMARK    1  A    between atoms: C_2  and  C_3 
REMARK    2  A    between atoms: C_2  and  O_10 
ROOT
HETATM    1  C   LIG     1      14.773  30.853  14.825  1.00  0.00     0.059 A 
HETATM    2  C   LIG     1      13.508  30.363  15.210  1.00  0.00     0.020 A 
HETATM    3  C   LIG     1      12.852  30.875  16.331  1.00  0.00     0.001 A 
HETATM    4  C   LIG     1      13.445  31.882  17.089  1.00  0.00     0.002 A 
HETATM    5  C   LIG     1      14.699  32.377  16.732  1.00  0.00     0.025 A 
HETATM    6  C   LIG     1      15.371  31.874  15.610  1.00  0.00     0.051 A 
HETATM    7 CL   LIG     1      16.967  32.541  15.271  1.00  0.00    -0.083 Cl
ENDROOT
BRANCH   1   8
HETATM    8  C   LIG     1      15.417  30.275  13.617  1.00  0.00     0.177 C 
HETATM    9  O   LIG     1      16.128  30.984  12.854  1.00  0.00    -0.646 OA
BRANCH   8  10
HETATM   10  O   LIG     1      15.223  28.933  13.299  1.00  0.00    -0.773 OA
HETATM   11  H   LIG     1      16.007  28.293  13.239  1.00  0.00     0.167 HD
ENDBRANCH   8  10
ENDBRANCH   1   8
TORSDOF 2
ENDMDL
MODEL 20
REMARK VINA RESULT:      -5.3      2.340      3.254
REMARK  2 active torsions:
REMARK  status: ('A' for Active; 'I' for Inactive)
REMARK    1  A    between atoms: C_2  and  C_3 
REMARK    2  A    between atoms: C_2  and  O_10 
ROOT
HETATM    1  C   LIG     1      16.823  36.548  22.618  1.00  0.00     0.059 A 
HETATM    2  C   LIG     1      16.811  37.870  22.129  1.00  0.00     0.020 A 
HETATM    3  C   LIG     1      17.163  38.941  22.952  1.00  0.00     0.001 A 
HETATM    4  C   LIG     1      17.533  38.715  24.275  1.00  0.00     0.002 A 
HETATM    5  C   LIG     1      17.547  37.416  24.783  1.00  0.00     0.025 A 
HETATM    6  C   LIG     1      17.196  36.329  23.971  1.00  0.00     0.051 A 
HETATM    7 CL   LIG     1      17.207  34.735  24.723  1.00  0.00    -0.083 Cl
ENDROOT
BRANCH   1   8
HETATM    8  C   LIG     1      16.447  35.447  21.693  1.00  0.00     0.177 C 
HETATM    9  O   LIG     1      17.066  35.265  20.609  1.00  0.00    -0.646 OA
BRANCH   8  10
HETATM   10  O   LIG     1      15.380  34.609  22.006  1.00  0.00    -0.773 OA
HETATM   11  H   LIG     1      15.449  33.939  22.763  1.00  0.00     0.167 HD
ENDBRANCH   8  10
ENDBRANCH   1   8
TORSDOF 2
ENDMDL
