REMARK  3 active torsions:
REMARK  status: ('A' for Active; 'I' for Inactive)
REMARK    1  A    between atoms: C_2  and  C_3 
REMARK    2  A    between atoms: C_3  and  C_6 
REMARK    3  A    between atoms: C_6  and  O_7 
ROOT
HETATM    1  C   LIG     1      -0.292  -0.179   0.054  1.00  0.00    -0.027 C 
HETATM    2  C   LIG     1      -0.272  -1.026  -1.238  1.00  0.00     0.017 C 
HETATM    3  C   LIG     1      -1.298  -0.813   1.041  1.00  0.00     0.017 C 
ENDROOT
BRANCH   1   4
HETATM    4  C   LIG     1       1.109  -0.187   0.739  1.00  0.00     0.006 C 
HETATM    5  C   LIG     1       2.255   0.398  -0.094  1.00  0.00     0.006 C 
ENDBRANCH   1   4
BRANCH   1   6
HETATM    6  C   LIG     1      -0.734   1.274  -0.272  1.00  0.00     0.172 C 
BRANCH   6   7
HETATM    7  O   LIG     1      -2.036   1.308  -0.798  1.00  0.00    -0.400 OA
HETATM    8  H   LIG     1      -2.652   1.480  -0.040  1.00  0.00     0.209 HD
ENDBRANCH   6   7
ENDBRANCH   1   6
TORSDOF 3
