MODEL 1
REMARK VINA RESULT:      -4.5      0.000      0.000
REMARK  3 active torsions:
REMARK  status: ('A' for Active; 'I' for Inactive)
REMARK    1  A    between atoms: C_2  and  C_3 
REMARK    2  A    between atoms: C_3  and  C_6 
REMARK    3  A    between atoms: C_6  and  O_7 
ROOT
HETATM    1  C   LIG     1      19.273  38.518  19.366  1.00  0.00    -0.027 C 
HETATM    2  C   LIG     1      20.814  38.560  19.462  1.00  0.00     0.017 C 
HETATM    3  C   LIG     1      18.815  37.045  19.460  1.00  0.00     0.017 C 
ENDROOT
BRANCH   1   4
HETATM    4  C   LIG     1      18.626  39.289  20.557  1.00  0.00     0.006 C 
HETATM    5  C   LIG     1      17.861  38.425  21.566  1.00  0.00     0.006 C 
ENDBRANCH   1   4
BRANCH   1   6
HETATM    6  C   LIG     1      18.810  39.118  18.010  1.00  0.00     0.172 C 
BRANCH   6   7
HETATM    7  O   LIG     1      19.837  39.854  17.397  1.00  0.00    -0.400 OA
HETATM    8  H   LIG     1      20.606  39.239  17.278  1.00  0.00     0.209 HD
ENDBRANCH   6   7
ENDBRANCH   1   6
TORSDOF 3
ENDMDL
MODEL 2
REMARK VINA RESULT:      -4.5      4.130      5.264
REMARK  3 active torsions:
REMARK  status: ('A' for Active; 'I' for Inactive)
REMARK    1  A    between atoms: C_2  and  C_3 
REMARK    2  A    between atoms: C_3  and  C_6 
REMARK    3  A    between atoms: C_6  and  O_7 
ROOT
HETATM    1  C   LIG     1      16.534  36.322  22.173  1.00  0.00    -0.027 C 
HETATM    2  C   LIG     1      17.531  36.745  21.070  1.00  0.00     0.017 C 
HETATM    3  C   LIG     1      15.173  36.009  21.510  1.00  0.00     0.017 C 
ENDROOT
BRANCH   1   4
HETATM    4  C   LIG     1      17.021  35.024  22.886  1.00  0.00     0.006 C 
HETATM    5  C   LIG     1      17.226  35.140  24.401  1.00  0.00     0.006 C 
ENDBRANCH   1   4
BRANCH   1   6
HETATM    6  C   LIG     1      16.357  37.477  23.197  1.00  0.00     0.172 C 
BRANCH   6   7
HETATM    7  O   LIG     1      15.104  38.097  23.059  1.00  0.00    -0.400 OA
HETATM    8  H   LIG     1      14.606  37.596  22.362  1.00  0.00     0.209 HD
ENDBRANCH   6   7
ENDBRANCH   1   6
TORSDOF 3
ENDMDL
MODEL 3
REMARK VINA RESULT:      -4.5      3.846      5.208
REMARK  3 active torsions:
REMARK  status: ('A' for Active; 'I' for Inactive)
REMARK    1  A    between atoms: C_2  and  C_3 
REMARK    2  A    between atoms: C_3  and  C_6 
REMARK    3  A    between atoms: C_6  and  O_7 
ROOT
HETATM    1  C   LIG     1      16.489  36.481  22.305  1.00  0.00    -0.027 C 
HETATM    2  C   LIG     1      15.122  36.178  21.652  1.00  0.00     0.017 C 
HETATM    3  C   LIG     1      17.040  35.175  22.920  1.00  0.00     0.017 C 
ENDROOT
BRANCH   1   4
HETATM    4  C   LIG     1      17.514  36.966  21.234  1.00  0.00     0.006 C 
HETATM    5  C   LIG     1      18.023  38.401  21.409  1.00  0.00     0.006 C 
ENDBRANCH   1   4
BRANCH   1   6
HETATM    6  C   LIG     1      16.319  37.547  23.422  1.00  0.00     0.172 C 
BRANCH   6   7
HETATM    7  O   LIG     1      15.019  38.080  23.427  1.00  0.00    -0.400 OA
HETATM    8  H   LIG     1      14.532  37.668  22.668  1.00  0.00     0.209 HD
ENDBRANCH   6   7
ENDBRANCH   1   6
TORSDOF 3
ENDMDL
MODEL 4
REMARK VINA RESULT:      -4.4      4.217      5.331
REMARK  3 active torsions:
REMARK  status: ('A' for Active; 'I' for Inactive)
REMARK    1  A    between atoms: C_2  and  C_3 
REMARK    2  A    between atoms: C_3  and  C_6 
REMARK    3  A    between atoms: C_6  and  O_7 
ROOT
HETATM    1  C   LIG     1      16.520  36.274  22.014  1.00  0.00    -0.027 C 
HETATM    2  C   LIG     1      17.017  35.276  23.083  1.00  0.00     0.017 C 
HETATM    3  C   LIG     1      17.535  36.291  20.849  1.00  0.00     0.017 C 
ENDROOT
BRANCH   1   4
HETATM    4  C   LIG     1      15.145  35.821  21.435  1.00  0.00     0.006 C 
HETATM    5  C   LIG     1      14.967  34.308  21.264  1.00  0.00     0.006 C 
ENDBRANCH   1   4
BRANCH   1   6
HETATM    6  C   LIG     1      16.414  37.698  22.627  1.00  0.00     0.172 C 
BRANCH   6   7
HETATM    7  O   LIG     1      15.095  37.994  23.010  1.00  0.00    -0.400 OA
HETATM    8  H   LIG     1      14.709  37.163  23.390  1.00  0.00     0.209 HD
ENDBRANCH   6   7
ENDBRANCH   1   6
TORSDOF 3
ENDMDL
MODEL 5
REMARK VINA RESULT:      -4.4      4.177      5.017
REMARK  3 active torsions:
REMARK  status: ('A' for Active; 'I' for Inactive)
REMARK    1  A    between atoms: C_2  and  C_3 
REMARK    2  A    between atoms: C_3  and  C_6 
REMARK    3  A    between atoms: C_6  and  O_7 
ROOT
HETATM    1  C   LIG     1      16.491  35.958  21.907  1.00  0.00    -0.027 C 
HETATM    2  C   LIG     1      17.620  36.264  20.897  1.00  0.00     0.017 C 
HETATM    3  C   LIG     1      17.091  35.162  23.088  1.00  0.00     0.017 C 
ENDROOT
BRANCH   1   4
HETATM    4  C   LIG     1      15.896  37.279  22.483  1.00  0.00     0.006 C 
HETATM    5  C   LIG     1      16.836  38.490  22.468  1.00  0.00     0.006 C 
ENDBRANCH   1   4
BRANCH   1   6
HETATM    6  C   LIG     1      15.384  35.111  21.222  1.00  0.00     0.172 C 
BRANCH   6   7
HETATM    7  O   LIG     1      14.159  35.799  21.189  1.00  0.00    -0.400 OA
HETATM    8  H   LIG     1      13.492  35.185  20.787  1.00  0.00     0.209 HD
ENDBRANCH   6   7
ENDBRANCH   1   6
TORSDOF 3
ENDMDL
MODEL 6
REMARK VINA RESULT:      -4.3      4.206      5.334
REMARK  3 active torsions:
REMARK  status: ('A' for Active; 'I' for Inactive)
REMARK    1  A    between atoms: C_2  and  C_3 
REMARK    2  A    between atoms: C_3  and  C_6 
REMARK    3  A    between atoms: C_6  and  O_7 
ROOT
HETATM    1  C   LIG     1      16.883  37.384  22.851  1.00  0.00    -0.027 C 
HETATM    2  C   LIG     1      17.793  38.493  22.277  1.00  0.00     0.017 C 
HETATM    3  C   LIG     1      15.412  37.841  22.721  1.00  0.00     0.017 C 
ENDROOT
BRANCH   1   4
HETATM    4  C   LIG     1      17.041  36.065  22.033  1.00  0.00     0.006 C 
HETATM    5  C   LIG     1      17.647  36.224  20.634  1.00  0.00     0.006 C 
ENDBRANCH   1   4
BRANCH   1   6
HETATM    6  C   LIG     1      17.220  37.144  24.348  1.00  0.00     0.172 C 
BRANCH   6   7
HETATM    7  O   LIG     1      16.731  38.183  25.156  1.00  0.00    -0.400 OA
HETATM    8  H   LIG     1      15.741  38.110  25.158  1.00  0.00     0.209 HD
ENDBRANCH   6   7
ENDBRANCH   1   6
TORSDOF 3
ENDMDL
MODEL 7
REMARK VINA RESULT:      -4.2      3.773      4.815
REMARK  3 active torsions:
REMARK  status: ('A' for Active; 'I' for Inactive)
REMARK    1  A    between atoms: C_2  and  C_3 
REMARK    2  A    between atoms: C_3  and  C_6 
REMARK    3  A    between atoms: C_6  and  O_7 
ROOT
HETATM    1  C   LIG     1      17.241  37.961  22.492  1.00  0.00    -0.027 C 
HETATM    2  C   LIG     1      17.752  37.790  23.940  1.00  0.00     0.017 C 
HETATM    3  C   LIG     1      18.203  38.908  21.741  1.00  0.00     0.017 C 
ENDROOT
BRANCH   1   4
HETATM    4  C   LIG     1      17.245  36.593  21.742  1.00  0.00     0.006 C 
HETATM    5  C   LIG     1      18.030  36.565  20.426  1.00  0.00     0.006 C 
ENDBRANCH   1   4
BRANCH   1   6
HETATM    6  C   LIG     1      15.814  38.575  22.503  1.00  0.00     0.172 C 
BRANCH   6   7
HETATM    7  O   LIG     1      15.047  38.071  23.566  1.00  0.00    -0.400 OA
HETATM    8  H   LIG     1      14.315  37.533  23.168  1.00  0.00     0.209 HD
ENDBRANCH   6   7
ENDBRANCH   1   6
TORSDOF 3
ENDMDL
MODEL 8
REMARK VINA RESULT:      -4.0      3.411      4.366
REMARK  3 active torsions:
REMARK  status: ('A' for Active; 'I' for Inactive)
REMARK    1  A    between atoms: C_2  and  C_3 
REMARK    2  A    between atoms: C_3  and  C_6 
REMARK    3  A    between atoms: C_6  and  O_7 
ROOT
HETATM    1  C   LIG     1      16.522  36.192  21.901  1.00  0.00    -0.027 C 
HETATM    2  C   LIG     1      16.989  35.126  22.917  1.00  0.00     0.017 C 
HETATM    3  C   LIG     1      15.151  35.761  21.334  1.00  0.00     0.017 C 
ENDROOT
BRANCH   1   4
HETATM    4  C   LIG     1      16.329  37.572  22.602  1.00  0.00     0.006 C 
HETATM    5  C   LIG     1      16.695  37.615  24.089  1.00  0.00     0.006 C 
ENDBRANCH   1   4
BRANCH   1   6
HETATM    6  C   LIG     1      17.549  36.305  20.742  1.00  0.00     0.172 C 
BRANCH   6   7
HETATM    7  O   LIG     1      18.210  37.545  20.761  1.00  0.00    -0.400 OA
HETATM    8  H   LIG     1      18.468  37.752  19.826  1.00  0.00     0.209 HD
ENDBRANCH   6   7
ENDBRANCH   1   6
TORSDOF 3
ENDMDL
MODEL 9
REMARK VINA RESULT:      -4.0      6.984      8.153
REMARK  3 active torsions:
REMARK  status: ('A' for Active; 'I' for Inactive)
REMARK    1  A    between atoms: C_2  and  C_3 
REMARK    2  A    between atoms: C_3  and  C_6 
REMARK    3  A    between atoms: C_6  and  O_7 
ROOT
HETATM    1  C   LIG     1      14.724  32.679  17.118  1.00  0.00    -0.027 C 
HETATM    2  C   LIG     1      15.243  32.256  18.510  1.00  0.00     0.017 C 
HETATM    3  C   LIG     1      15.634  32.046  16.041  1.00  0.00     0.017 C 
ENDROOT
BRANCH   1   4
HETATM    4  C   LIG     1      13.277  32.146  16.885  1.00  0.00     0.006 C 
HETATM    5  C   LIG     1      13.178  30.786  16.186  1.00  0.00     0.006 C 
ENDBRANCH   1   4
BRANCH   1   6
HETATM    6  C   LIG     1      14.765  34.226  16.986  1.00  0.00     0.172 C 
BRANCH   6   7
HETATM    7  O   LIG     1      15.940  34.655  16.345  1.00  0.00    -0.400 OA
HETATM    8  H   LIG     1      16.233  33.916  15.751  1.00  0.00     0.209 HD
ENDBRANCH   6   7
ENDBRANCH   1   6
TORSDOF 3
ENDMDL
MODEL 10
REMARK VINA RESULT:      -3.9      4.092      5.219
REMARK  3 active torsions:
REMARK  status: ('A' for Active; 'I' for Inactive)
REMARK    1  A    between atoms: C_2  and  C_3 
REMARK    2  A    between atoms: C_3  and  C_6 
REMARK    3  A    between atoms: C_6  and  O_7 
ROOT
HETATM    1  C   LIG     1      16.891  37.203  22.802  1.00  0.00    -0.027 C 
HETATM    2  C   LIG     1      17.521  37.622  24.149  1.00  0.00     0.017 C 
HETATM    3  C   LIG     1      15.424  37.687  22.775  1.00  0.00     0.017 C 
ENDROOT
BRANCH   1   4
HETATM    4  C   LIG     1      17.634  37.885  21.612  1.00  0.00     0.006 C 
HETATM    5  C   LIG     1      18.537  39.066  21.987  1.00  0.00     0.006 C 
ENDBRANCH   1   4
BRANCH   1   6
HETATM    6  C   LIG     1      16.929  35.657  22.657  1.00  0.00     0.172 C 
BRANCH   6   7
HETATM    7  O   LIG     1      17.162  35.032  23.893  1.00  0.00    -0.400 OA
HETATM    8  H   LIG     1      16.659  34.177  23.887  1.00  0.00     0.209 HD
ENDBRANCH   6   7
ENDBRANCH   1   6
TORSDOF 3
ENDMDL
MODEL 11
REMARK VINA RESULT:      -3.8      8.540      9.439
REMARK  3 active torsions:
REMARK  status: ('A' for Active; 'I' for Inactive)
REMARK    1  A    between atoms: C_2  and  C_3 
REMARK    2  A    between atoms: C_3  and  C_6 
REMARK    3  A    between atoms: C_6  and  O_7 
ROOT
HETATM    1  C   LIG     1      20.597  33.785  11.574  1.00  0.00    -0.027 C 
HETATM    2  C   LIG     1      20.998  34.911  10.596  1.00  0.00     0.017 C 
HETATM    3  C   LIG     1      20.796  32.426  10.866  1.00  0.00     0.017 C 
ENDROOT
BRANCH   1   4
HETATM    4  C   LIG     1      21.514  33.798  12.835  1.00  0.00     0.006 C 
HETATM    5  C   LIG     1      22.335  35.076  13.042  1.00  0.00     0.006 C 
ENDBRANCH   1   4
BRANCH   1   6
HETATM    6  C   LIG     1      19.105  33.942  11.979  1.00  0.00     0.172 C 
BRANCH   6   7
HETATM    7  O   LIG     1      18.438  32.706  11.970  1.00  0.00    -0.400 OA
HETATM    8  H   LIG     1      19.119  32.006  12.145  1.00  0.00     0.209 HD
ENDBRANCH   6   7
ENDBRANCH   1   6
TORSDOF 3
ENDMDL
MODEL 12
REMARK VINA RESULT:      -3.7      3.514      4.597
REMARK  3 active torsions:
REMARK  status: ('A' for Active; 'I' for Inactive)
REMARK    1  A    between atoms: C_2  and  C_3 
REMARK    2  A    between atoms: C_3  and  C_6 
REMARK    3  A    between atoms: C_6  and  O_7 
ROOT
HETATM    1  C   LIG     1      16.940  37.461  22.756  1.00  0.00    -0.027 C 
HETATM    2  C   LIG     1      15.454  37.884  22.723  1.00  0.00     0.017 C 
HETATM    3  C   LIG     1      17.226  36.780  24.114  1.00  0.00     0.017 C 
ENDROOT
BRANCH   1   4
HETATM    4  C   LIG     1      17.240  36.419  21.635  1.00  0.00     0.006 C 
HETATM    5  C   LIG     1      16.726  34.999  21.897  1.00  0.00     0.006 C 
ENDBRANCH   1   4
BRANCH   1   6
HETATM    6  C   LIG     1      17.850  38.710  22.602  1.00  0.00     0.172 C 
BRANCH   6   7
HETATM    7  O   LIG     1      17.910  39.138  21.265  1.00  0.00    -0.400 OA
HETATM    8  H   LIG     1      17.836  38.329  20.696  1.00  0.00     0.209 HD
ENDBRANCH   6   7
ENDBRANCH   1   6
TORSDOF 3
ENDMDL
MODEL 13
REMARK VINA RESULT:      -3.7      6.840      7.801
REMARK  3 active torsions:
REMARK  status: ('A' for Active; 'I' for Inactive)
REMARK    1  A    between atoms: C_2  and  C_3 
REMARK    2  A    between atoms: C_3  and  C_6 
REMARK    3  A    between atoms: C_6  and  O_7 
ROOT
HETATM    1  C   LIG     1      14.415  32.533  17.019  1.00  0.00    -0.027 C 
HETATM    2  C   LIG     1      15.290  31.901  15.914  1.00  0.00     0.017 C 
HETATM    3  C   LIG     1      12.930  32.282  16.673  1.00  0.00     0.017 C 
ENDROOT
BRANCH   1   4
HETATM    4  C   LIG     1      14.698  31.860  18.397  1.00  0.00     0.006 C 
HETATM    5  C   LIG     1      15.366  32.756  19.445  1.00  0.00     0.006 C 
ENDBRANCH   1   4
BRANCH   1   6
HETATM    6  C   LIG     1      14.677  34.062  17.093  1.00  0.00     0.172 C 
BRANCH   6   7
HETATM    7  O   LIG     1      15.804  34.426  16.337  1.00  0.00    -0.400 OA
HETATM    8  H   LIG     1      15.932  35.402  16.458  1.00  0.00     0.209 HD
ENDBRANCH   6   7
ENDBRANCH   1   6
TORSDOF 3
ENDMDL
MODEL 14
REMARK VINA RESULT:      -3.6      7.461      8.517
REMARK  3 active torsions:
REMARK  status: ('A' for Active; 'I' for Inactive)
REMARK    1  A    between atoms: C_2  and  C_3 
REMARK    2  A    between atoms: C_3  and  C_6 
REMARK    3  A    between atoms: C_6  and  O_7 
ROOT
HETATM    1  C   LIG     1      14.673  32.641  17.042  1.00  0.00    -0.027 C 
HETATM    2  C   LIG     1      14.722  34.181  16.928  1.00  0.00     0.017 C 
HETATM    3  C   LIG     1      13.209  32.181  16.860  1.00  0.00     0.017 C 
ENDROOT
BRANCH   1   4
HETATM    4  C   LIG     1      15.519  31.977  15.913  1.00  0.00     0.006 C 
HETATM    5  C   LIG     1      16.573  32.880  15.261  1.00  0.00     0.006 C 
ENDBRANCH   1   4
BRANCH   1   6
HETATM    6  C   LIG     1      15.183  32.197  18.441  1.00  0.00     0.172 C 
BRANCH   6   7
HETATM    7  O   LIG     1      14.168  31.568  19.181  1.00  0.00    -0.400 OA
HETATM    8  H   LIG     1      14.136  32.012  20.068  1.00  0.00     0.209 HD
ENDBRANCH   6   7
ENDBRANCH   1   6
TORSDOF 3
ENDMDL
MODEL 15
REMARK VINA RESULT:      -3.5      9.036     10.022
REMARK  3 active torsions:
REMARK  status: ('A' for Active; 'I' for Inactive)
REMARK    1  A    between atoms: C_2  and  C_3 
REMARK    2  A    between atoms: C_3  and  C_6 
REMARK    3  A    between atoms: C_6  and  O_7 
ROOT
HETATM    1  C   LIG     1      19.939  33.536  11.287  1.00  0.00    -0.027 C 
HETATM    2  C   LIG     1      18.669  33.418  12.158  1.00  0.00     0.017 C 
HETATM    3  C   LIG     1      19.943  34.925  10.610  1.00  0.00     0.017 C 
ENDROOT
BRANCH   1   4
HETATM    4  C   LIG     1      21.222  33.437  12.168  1.00  0.00     0.006 C 
HETATM    5  C   LIG     1      21.723  34.761  12.757  1.00  0.00     0.006 C 
ENDBRANCH   1   4
BRANCH   1   6
HETATM    6  C   LIG     1      19.938  32.430  10.196  1.00  0.00     0.172 C 
BRANCH   6   7
HETATM    7  O   LIG     1      19.514  31.196  10.718  1.00  0.00    -0.400 OA
HETATM    8  H   LIG     1      18.729  30.908  10.184  1.00  0.00     0.209 HD
ENDBRANCH   6   7
ENDBRANCH   1   6
TORSDOF 3
ENDMDL
MODEL 16
REMARK VINA RESULT:      -3.5      7.934      8.887
REMARK  3 active torsions:
REMARK  status: ('A' for Active; 'I' for Inactive)
REMARK    1  A    between atoms: C_2  and  C_3 
REMARK    2  A    between atoms: C_3  and  C_6 
REMARK    3  A    between atoms: C_6  and  O_7 
ROOT
HETATM    1  C   LIG     1      14.194  32.237  17.007  1.00  0.00    -0.027 C 
HETATM    2  C   LIG     1      14.531  33.744  16.949  1.00  0.00     0.017 C 
HETATM    3  C   LIG     1      15.032  31.506  15.934  1.00  0.00     0.017 C 
ENDROOT
BRANCH   1   4
HETATM    4  C   LIG     1      14.582  31.640  18.395  1.00  0.00     0.006 C 
HETATM    5  C   LIG     1      15.323  32.592  19.340  1.00  0.00     0.006 C 
ENDBRANCH   1   4
BRANCH   1   6
HETATM    6  C   LIG     1      12.683  32.021  16.720  1.00  0.00     0.172 C 
BRANCH   6   7
HETATM    7  O   LIG     1      12.354  30.655  16.710  1.00  0.00    -0.400 OA
HETATM    8  H   LIG     1      11.375  30.593  16.562  1.00  0.00     0.209 HD
ENDBRANCH   6   7
ENDBRANCH   1   6
TORSDOF 3
ENDMDL
MODEL 17
REMARK VINA RESULT:      -3.4      8.112      9.232
REMARK  3 active torsions:
REMARK  status: ('A' for Active; 'I' for Inactive)
REMARK    1  A    between atoms: C_2  and  C_3 
REMARK    2  A    between atoms: C_3  and  C_6 
REMARK    3  A    between atoms: C_6  and  O_7 
ROOT
HETATM    1  C   LIG     1      14.227  32.242  16.994  1.00  0.00    -0.027 C 
HETATM    2  C   LIG     1      14.628  31.749  18.403  1.00  0.00     0.017 C 
HETATM    3  C   LIG     1      14.532  33.754  16.898  1.00  0.00     0.017 C 
ENDROOT
BRANCH   1   4
HETATM    4  C   LIG     1      15.071  31.520  15.898  1.00  0.00     0.006 C 
HETATM    5  C   LIG     1      16.132  32.383  15.207  1.00  0.00     0.006 C 
ENDBRANCH   1   4
BRANCH   1   6
HETATM    6  C   LIG     1      12.710  32.005  16.762  1.00  0.00     0.172 C 
BRANCH   6   7
HETATM    7  O   LIG     1      12.410  30.634  16.691  1.00  0.00    -0.400 OA
HETATM    8  H   LIG     1      12.550  30.354  15.750  1.00  0.00     0.209 HD
ENDBRANCH   6   7
ENDBRANCH   1   6
TORSDOF 3
ENDMDL
MODEL 18
REMARK VINA RESULT:      -3.3      8.857      9.799
REMARK  3 active torsions:
REMARK  status: ('A' for Active; 'I' for Inactive)
REMARK    1  A    between atoms: C_2  and  C_3 
REMARK    2  A    between atoms: C_3  and  C_6 
REMARK    3  A    between atoms: C_6  and  O_7 
ROOT
HETATM    1  C   LIG     1      19.731  33.894  11.160  1.00  0.00    -0.027 C 
HETATM    2  C   LIG     1      18.867  34.976  10.474  1.00  0.00     0.017 C 
HETATM    3  C   LIG     1      21.112  34.503  11.489  1.00  0.00     0.017 C 
ENDROOT
BRANCH   1   4
HETATM    4  C   LIG     1      19.082  33.443  12.505  1.00  0.00     0.006 C 
HETATM    5  C   LIG     1      17.763  34.135  12.866  1.00  0.00     0.006 C 
ENDBRANCH   1   4
BRANCH   1   6
HETATM    6  C   LIG     1      19.915  32.681  10.207  1.00  0.00     0.172 C 
BRANCH   6   7
HETATM    7  O   LIG     1      19.458  31.491  10.798  1.00  0.00    -0.400 OA
HETATM    8  H   LIG     1      18.595  31.698  11.239  1.00  0.00     0.209 HD
ENDBRANCH   6   7
ENDBRANCH   1   6
TORSDOF 3
ENDMDL
MODEL 19
REMARK VINA RESULT:      -3.2     19.659     20.591
REMARK  3 active torsions:
REMARK  status: ('A' for Active; 'I' for Inactive)
REMARK    1  A    between atoms: C_2  and  C_3 
REMARK    2  A    between atoms: C_3  and  C_6 
REMARK    3  A    between atoms: C_6  and  O_7 
ROOT
HETATM    1  C   LIG     1      26.855  31.115  36.735  1.00  0.00    -0.027 C 
HETATM    2  C   LIG     1      27.003  32.202  37.823  1.00  0.00     0.017 C 
HETATM    3  C   LIG     1      25.731  31.542  35.764  1.00  0.00     0.017 C 
ENDROOT
BRANCH   1   4
HETATM    4  C   LIG     1      28.169  30.982  35.907  1.00  0.00     0.006 C 
HETATM    5  C   LIG     1      28.001  31.054  34.385  1.00  0.00     0.006 C 
ENDBRANCH   1   4
BRANCH   1   6
HETATM    6  C   LIG     1      26.482  29.757  37.391  1.00  0.00     0.172 C 
BRANCH   6   7
HETATM    7  O   LIG     1      25.225  29.817  38.016  1.00  0.00    -0.400 OA
HETATM    8  H   LIG     1      24.852  30.718  37.833  1.00  0.00     0.209 HD
ENDBRANCH   6   7
ENDBRANCH   1   6
TORSDOF 3
ENDMDL
MODEL 20
REMARK VINA RESULT:      -3.1     20.960     22.260
REMARK  3 active torsions:
REMARK  status: ('A' for Active; 'I' for Inactive)
REMARK    1  A    between atoms: C_2  and  C_3 
REMARK    2  A    between atoms: C_3  and  C_6 
REMARK    3  A    between atoms: C_6  and  O_7 
ROOT
HETATM    1  C   LIG     1       3.750  39.890  35.826  1.00  0.00    -0.027 C 
HETATM    2  C   LIG     1       2.560  40.371  36.686  1.00  0.00     0.017 C 
HETATM    3  C   LIG     1       4.483  38.763  36.589  1.00  0.00     0.017 C 
ENDROOT
BRANCH   1   4
HETATM    4  C   LIG     1       3.247  39.294  34.475  1.00  0.00     0.006 C 
HETATM    5  C   LIG     1       3.674  40.058  33.217  1.00  0.00     0.006 C 
ENDBRANCH   1   4
BRANCH   1   6
HETATM    6  C   LIG     1       4.732  41.067  35.574  1.00  0.00     0.172 C 
BRANCH   6   7
HETATM    7  O   LIG     1       6.020  40.770  36.048  1.00  0.00    -0.400 OA
HETATM    8  H   LIG     1       6.004  39.831  36.367  1.00  0.00     0.209 HD
ENDBRANCH   6   7
ENDBRANCH   1   6
TORSDOF 3
ENDMDL
