REMARK  3 active torsions:
REMARK  status: ('A' for Active; 'I' for Inactive)
REMARK    1  A    between atoms: N_2  and  C_3 
REMARK    2  A    between atoms: C_8  and  C_9 
REMARK    3  A    between atoms: C_9  and  O_10 
ROOT
HETATM    1  C   LIG     1       0.293  -0.264   0.004  1.00  0.00     0.044 A 
HETATM    2  C   LIG     1      -0.382  -1.462   0.317  1.00  0.00     0.030 A 
HETATM    3  C   LIG     1      -1.765  -1.476   0.501  1.00  0.00     0.002 A 
HETATM    4  C   LIG     1      -2.499  -0.299   0.377  1.00  0.00     0.001 A 
HETATM    5  C   LIG     1      -1.855   0.896   0.055  1.00  0.00     0.020 A 
HETATM    6  C   LIG     1      -0.463   0.929  -0.145  1.00  0.00     0.064 A 
ENDROOT
BRANCH   6   7
HETATM    7  C   LIG     1       0.155   2.208  -0.562  1.00  0.00     0.178 C 
HETATM    8  O   LIG     1       1.026   2.223  -1.473  1.00  0.00    -0.646 OA
BRANCH   7   9
HETATM    9  O   LIG     1      -0.241   3.415   0.011  1.00  0.00    -0.773 OA
HETATM   10  H   LIG     1      -0.910   3.448   0.770  1.00  0.00     0.167 HD
ENDBRANCH   7   9
ENDBRANCH   6   7
BRANCH   1  11
HETATM   11  N   LIG     1       1.733  -0.247  -0.101  1.00  0.00    -0.393 N 
HETATM   12  C   LIG     1       2.537  -1.448  -0.304  1.00  0.00     0.146 C 
HETATM   13  H   LIG     1       2.249   0.656  -0.020  1.00  0.00     0.159 HD
ENDBRANCH   1  11
TORSDOF 3
