MODEL 1
REMARK VINA RESULT:      -6.7      0.000      0.000
REMARK  3 active torsions:
REMARK  status: ('A' for Active; 'I' for Inactive)
REMARK    1  A    between atoms: N_2  and  C_3 
REMARK    2  A    between atoms: C_8  and  C_9 
REMARK    3  A    between atoms: C_9  and  O_10 
ROOT
HETATM    1  C   LIG     1      17.070  35.706  24.201  1.00  0.00     0.044 A 
HETATM    2  C   LIG     1      17.576  34.806  25.161  1.00  0.00     0.030 A 
HETATM    3  C   LIG     1      18.200  35.272  26.319  1.00  0.00     0.002 A 
HETATM    4  C   LIG     1      18.331  36.641  26.540  1.00  0.00     0.001 A 
HETATM    5  C   LIG     1      17.827  37.551  25.611  1.00  0.00     0.020 A 
HETATM    6  C   LIG     1      17.185  37.101  24.443  1.00  0.00     0.064 A 
ENDROOT
BRANCH   6   7
HETATM    7  C   LIG     1      16.599  38.111  23.532  1.00  0.00     0.178 C 
HETATM    8  O   LIG     1      17.339  38.967  22.977  1.00  0.00    -0.646 OA
BRANCH   7   9
HETATM    9  O   LIG     1      15.237  38.108  23.241  1.00  0.00    -0.773 OA
HETATM   10  H   LIG     1      14.888  37.823  22.334  1.00  0.00     0.167 HD
ENDBRANCH   7   9
ENDBRANCH   6   7
BRANCH   1  11
HETATM   11  N   LIG     1      16.501  35.212  22.969  1.00  0.00    -0.393 N 
HETATM   12  C   LIG     1      17.219  35.211  21.698  1.00  0.00     0.146 C 
HETATM   13  H   LIG     1      15.526  34.841  22.959  1.00  0.00     0.159 HD
ENDBRANCH   1  11
TORSDOF 3
ENDMDL
MODEL 2
REMARK VINA RESULT:      -6.5      2.775      3.934
REMARK  3 active torsions:
REMARK  status: ('A' for Active; 'I' for Inactive)
REMARK    1  A    between atoms: N_2  and  C_3 
REMARK    2  A    between atoms: C_8  and  C_9 
REMARK    3  A    between atoms: C_9  and  O_10 
ROOT
HETATM    1  C   LIG     1      17.484  36.859  21.200  1.00  0.00     0.044 A 
HETATM    2  C   LIG     1      18.398  36.750  20.131  1.00  0.00     0.030 A 
HETATM    3  C   LIG     1      19.187  37.836  19.752  1.00  0.00     0.002 A 
HETATM    4  C   LIG     1      19.081  39.048  20.431  1.00  0.00     0.001 A 
HETATM    5  C   LIG     1      18.194  39.176  21.500  1.00  0.00     0.020 A 
HETATM    6  C   LIG     1      17.397  38.089  21.904  1.00  0.00     0.064 A 
ENDROOT
BRANCH   6   7
HETATM    7  C   LIG     1      16.532  38.258  23.093  1.00  0.00     0.178 C 
HETATM    8  O   LIG     1      17.035  38.595  24.199  1.00  0.00    -0.646 OA
BRANCH   7   9
HETATM    9  O   LIG     1      15.152  38.090  23.005  1.00  0.00    -0.773 OA
HETATM   10  H   LIG     1      14.531  38.403  23.740  1.00  0.00     0.167 HD
ENDBRANCH   7   9
ENDBRANCH   6   7
BRANCH   1  11
HETATM   11  N   LIG     1      16.614  35.754  21.527  1.00  0.00    -0.393 N 
HETATM   12  C   LIG     1      15.460  35.374  20.717  1.00  0.00     0.146 C 
HETATM   13  H   LIG     1      16.791  35.191  22.387  1.00  0.00     0.159 HD
ENDBRANCH   1  11
TORSDOF 3
ENDMDL
MODEL 3
REMARK VINA RESULT:      -6.4      3.063      4.918
REMARK  3 active torsions:
REMARK  status: ('A' for Active; 'I' for Inactive)
REMARK    1  A    between atoms: N_2  and  C_3 
REMARK    2  A    between atoms: C_8  and  C_9 
REMARK    3  A    between atoms: C_9  and  O_10 
ROOT
HETATM    1  C   LIG     1      17.585  37.932  21.707  1.00  0.00     0.044 A 
HETATM    2  C   LIG     1      18.367  39.086  21.493  1.00  0.00     0.030 A 
HETATM    3  C   LIG     1      19.303  39.133  20.460  1.00  0.00     0.002 A 
HETATM    4  C   LIG     1      19.478  38.034  19.623  1.00  0.00     0.001 A 
HETATM    5  C   LIG     1      18.707  36.886  19.808  1.00  0.00     0.020 A 
HETATM    6  C   LIG     1      17.750  36.822  20.837  1.00  0.00     0.064 A 
ENDROOT
BRANCH   6   7
HETATM    7  C   LIG     1      16.906  35.609  20.935  1.00  0.00     0.178 C 
HETATM    8  O   LIG     1      16.356  35.136  19.905  1.00  0.00    -0.646 OA
BRANCH   7   9
HETATM    9  O   LIG     1      16.739  34.950  22.151  1.00  0.00    -0.773 OA
HETATM   10  H   LIG     1      16.937  33.962  22.251  1.00  0.00     0.167 HD
ENDBRANCH   7   9
ENDBRANCH   6   7
BRANCH   1  11
HETATM   11  N   LIG     1      16.680  37.865  22.831  1.00  0.00    -0.393 N 
HETATM   12  C   LIG     1      17.122  37.915  24.221  1.00  0.00     0.146 C 
HETATM   13  H   LIG     1      15.655  37.764  22.666  1.00  0.00     0.159 HD
ENDBRANCH   1  11
TORSDOF 3
ENDMDL
MODEL 4
REMARK VINA RESULT:      -6.0      7.946     10.434
REMARK  3 active torsions:
REMARK  status: ('A' for Active; 'I' for Inactive)
REMARK    1  A    between atoms: N_2  and  C_3 
REMARK    2  A    between atoms: C_8  and  C_9 
REMARK    3  A    between atoms: C_9  and  O_10 
ROOT
HETATM    1  C   LIG     1      14.456  31.835  16.408  1.00  0.00     0.044 A 
HETATM    2  C   LIG     1      13.429  30.876  16.290  1.00  0.00     0.030 A 
HETATM    3  C   LIG     1      13.371  30.022  15.189  1.00  0.00     0.002 A 
HETATM    4  C   LIG     1      14.333  30.108  14.186  1.00  0.00     0.001 A 
HETATM    5  C   LIG     1      15.366  31.041  14.286  1.00  0.00     0.020 A 
HETATM    6  C   LIG     1      15.448  31.903  15.394  1.00  0.00     0.064 A 
ENDROOT
BRANCH   6   7
HETATM    7  C   LIG     1      16.609  32.817  15.486  1.00  0.00     0.178 C 
HETATM    8  O   LIG     1      17.776  32.381  15.290  1.00  0.00    -0.646 OA
BRANCH   7   9
HETATM    9  O   LIG     1      16.433  34.175  15.749  1.00  0.00    -0.773 OA
HETATM   10  H   LIG     1      15.794  34.742  15.206  1.00  0.00     0.167 HD
ENDBRANCH   7   9
ENDBRANCH   6   7
BRANCH   1  11
HETATM   11  N   LIG     1      14.457  32.769  17.510  1.00  0.00    -0.393 N 
HETATM   12  C   LIG     1      15.054  32.475  18.809  1.00  0.00     0.146 C 
HETATM   13  H   LIG     1      14.005  33.702  17.400  1.00  0.00     0.159 HD
ENDBRANCH   1  11
TORSDOF 3
ENDMDL
MODEL 5
REMARK VINA RESULT:      -6.0      8.265     10.024
REMARK  3 active torsions:
REMARK  status: ('A' for Active; 'I' for Inactive)
REMARK    1  A    between atoms: N_2  and  C_3 
REMARK    2  A    between atoms: C_8  and  C_9 
REMARK    3  A    between atoms: C_9  and  O_10 
ROOT
HETATM    1  C   LIG     1      15.496  31.862  15.312  1.00  0.00     0.044 A 
HETATM    2  C   LIG     1      14.933  30.761  14.634  1.00  0.00     0.030 A 
HETATM    3  C   LIG     1      13.727  30.202  15.056  1.00  0.00     0.002 A 
HETATM    4  C   LIG     1      13.060  30.729  16.160  1.00  0.00     0.001 A 
HETATM    5  C   LIG     1      13.591  31.826  16.838  1.00  0.00     0.020 A 
HETATM    6  C   LIG     1      14.801  32.410  16.422  1.00  0.00     0.064 A 
ENDROOT
BRANCH   6   7
HETATM    7  C   LIG     1      15.275  33.621  17.130  1.00  0.00     0.178 C 
HETATM    8  O   LIG     1      15.700  34.611  16.477  1.00  0.00    -0.646 OA
BRANCH   7   9
HETATM    9  O   LIG     1      15.224  33.703  18.520  1.00  0.00    -0.773 OA
HETATM   10  H   LIG     1      15.824  34.333  19.037  1.00  0.00     0.167 HD
ENDBRANCH   7   9
ENDBRANCH   6   7
BRANCH   1  11
HETATM   11  N   LIG     1      16.786  32.377  14.916  1.00  0.00    -0.393 N 
HETATM   12  C   LIG     1      17.048  32.965  13.607  1.00  0.00     0.146 C 
HETATM   13  H   LIG     1      17.590  32.328  15.579  1.00  0.00     0.159 HD
ENDBRANCH   1  11
TORSDOF 3
ENDMDL
MODEL 6
REMARK VINA RESULT:      -6.0      2.215      3.587
REMARK  3 active torsions:
REMARK  status: ('A' for Active; 'I' for Inactive)
REMARK    1  A    between atoms: N_2  and  C_3 
REMARK    2  A    between atoms: C_8  and  C_9 
REMARK    3  A    between atoms: C_9  and  O_10 
ROOT
HETATM    1  C   LIG     1      17.439  37.648  22.544  1.00  0.00     0.044 A 
HETATM    2  C   LIG     1      17.126  36.853  21.422  1.00  0.00     0.030 A 
HETATM    3  C   LIG     1      16.845  35.494  21.566  1.00  0.00     0.002 A 
HETATM    4  C   LIG     1      16.871  34.904  22.827  1.00  0.00     0.001 A 
HETATM    5  C   LIG     1      17.165  35.673  23.953  1.00  0.00     0.020 A 
HETATM    6  C   LIG     1      17.441  37.047  23.830  1.00  0.00     0.064 A 
ENDROOT
BRANCH   6   7
HETATM    7  C   LIG     1      17.668  37.829  25.067  1.00  0.00     0.178 C 
HETATM    8  O   LIG     1      16.992  38.869  25.291  1.00  0.00    -0.646 OA
BRANCH   7   9
HETATM    9  O   LIG     1      18.597  37.412  26.017  1.00  0.00    -0.773 OA
HETATM   10  H   LIG     1      19.302  36.718  25.802  1.00  0.00     0.167 HD
ENDBRANCH   7   9
ENDBRANCH   6   7
BRANCH   1  11
HETATM   11  N   LIG     1      17.810  39.033  22.372  1.00  0.00    -0.393 N 
HETATM   12  C   LIG     1      18.708  39.499  21.320  1.00  0.00     0.146 C 
HETATM   13  H   LIG     1      17.439  39.755  23.027  1.00  0.00     0.159 HD
ENDBRANCH   1  11
TORSDOF 3
ENDMDL
MODEL 7
REMARK VINA RESULT:      -6.0      9.965     11.170
REMARK  3 active torsions:
REMARK  status: ('A' for Active; 'I' for Inactive)
REMARK    1  A    between atoms: N_2  and  C_3 
REMARK    2  A    between atoms: C_8  and  C_9 
REMARK    3  A    between atoms: C_9  and  O_10 
ROOT
HETATM    1  C   LIG     1      14.568  30.595  14.669  1.00  0.00     0.044 A 
HETATM    2  C   LIG     1      13.346  30.284  15.300  1.00  0.00     0.030 A 
HETATM    3  C   LIG     1      12.926  30.987  16.430  1.00  0.00     0.002 A 
HETATM    4  C   LIG     1      13.714  32.011  16.950  1.00  0.00     0.001 A 
HETATM    5  C   LIG     1      14.921  32.345  16.335  1.00  0.00     0.020 A 
HETATM    6  C   LIG     1      15.357  31.655  15.189  1.00  0.00     0.064 A 
ENDROOT
BRANCH   6   7
HETATM    7  C   LIG     1      16.606  32.105  14.533  1.00  0.00     0.178 C 
HETATM    8  O   LIG     1      17.626  32.367  15.226  1.00  0.00    -0.646 OA
BRANCH   7   9
HETATM    9  O   LIG     1      16.689  32.207  13.146  1.00  0.00    -0.773 OA
HETATM   10  H   LIG     1      16.605  33.099  12.674  1.00  0.00     0.167 HD
ENDBRANCH   7   9
ENDBRANCH   6   7
BRANCH   1  11
HETATM   11  N   LIG     1      15.031  29.806  13.552  1.00  0.00    -0.393 N 
HETATM   12  C   LIG     1      15.326  28.380  13.646  1.00  0.00     0.146 C 
HETATM   13  H   LIG     1      15.180  30.257  12.624  1.00  0.00     0.159 HD
ENDBRANCH   1  11
TORSDOF 3
ENDMDL
MODEL 8
REMARK VINA RESULT:      -5.9      1.544      3.441
REMARK  3 active torsions:
REMARK  status: ('A' for Active; 'I' for Inactive)
REMARK    1  A    between atoms: N_2  and  C_3 
REMARK    2  A    between atoms: C_8  and  C_9 
REMARK    3  A    between atoms: C_9  and  O_10 
ROOT
HETATM    1  C   LIG     1      17.090  36.744  23.630  1.00  0.00     0.044 A 
HETATM    2  C   LIG     1      16.992  35.350  23.446  1.00  0.00     0.030 A 
HETATM    3  C   LIG     1      17.038  34.792  22.168  1.00  0.00     0.002 A 
HETATM    4  C   LIG     1      17.184  35.613  21.052  1.00  0.00     0.001 A 
HETATM    5  C   LIG     1      17.297  36.994  21.210  1.00  0.00     0.020 A 
HETATM    6  C   LIG     1      17.263  37.575  22.490  1.00  0.00     0.064 A 
ENDROOT
BRANCH   6   7
HETATM    7  C   LIG     1      17.466  39.037  22.603  1.00  0.00     0.178 C 
HETATM    8  O   LIG     1      16.655  39.740  23.263  1.00  0.00    -0.646 OA
BRANCH   7   9
HETATM    9  O   LIG     1      18.573  39.652  22.021  1.00  0.00    -0.773 OA
HETATM   10  H   LIG     1      18.782  40.630  22.182  1.00  0.00     0.167 HD
ENDBRANCH   7   9
ENDBRANCH   6   7
BRANCH   1  11
HETATM   11  N   LIG     1      16.957  37.315  24.949  1.00  0.00    -0.393 N 
HETATM   12  C   LIG     1      17.928  37.104  26.017  1.00  0.00     0.146 C 
HETATM   13  H   LIG     1      16.126  37.903  25.179  1.00  0.00     0.159 HD
ENDBRANCH   1  11
TORSDOF 3
ENDMDL
MODEL 9
REMARK VINA RESULT:      -5.9      8.515     10.863
REMARK  3 active torsions:
REMARK  status: ('A' for Active; 'I' for Inactive)
REMARK    1  A    between atoms: N_2  and  C_3 
REMARK    2  A    between atoms: C_8  and  C_9 
REMARK    3  A    between atoms: C_9  and  O_10 
ROOT
HETATM    1  C   LIG     1      15.400  32.170  15.728  1.00  0.00     0.044 A 
HETATM    2  C   LIG     1      16.169  32.377  14.564  1.00  0.00     0.030 A 
HETATM    3  C   LIG     1      16.042  31.529  13.463  1.00  0.00     0.002 A 
HETATM    4  C   LIG     1      15.149  30.461  13.502  1.00  0.00     0.001 A 
HETATM    5  C   LIG     1      14.368  30.244  14.638  1.00  0.00     0.020 A 
HETATM    6  C   LIG     1      14.473  31.094  15.754  1.00  0.00     0.064 A 
ENDROOT
BRANCH   6   7
HETATM    7  C   LIG     1      13.563  30.863  16.899  1.00  0.00     0.178 C 
HETATM    8  O   LIG     1      13.960  31.077  18.076  1.00  0.00    -0.646 OA
BRANCH   7   9
HETATM    9  O   LIG     1      12.248  30.449  16.696  1.00  0.00    -0.773 OA
HETATM   10  H   LIG     1      12.015  29.734  16.018  1.00  0.00     0.167 HD
ENDBRANCH   7   9
ENDBRANCH   6   7
BRANCH   1  11
HETATM   11  N   LIG     1      15.600  33.003  16.890  1.00  0.00    -0.393 N 
HETATM   12  C   LIG     1      14.999  34.324  17.044  1.00  0.00     0.146 C 
HETATM   13  H   LIG     1      16.211  32.671  17.668  1.00  0.00     0.159 HD
ENDBRANCH   1  11
TORSDOF 3
ENDMDL
MODEL 10
REMARK VINA RESULT:      -5.6      2.531      4.140
REMARK  3 active torsions:
REMARK  status: ('A' for Active; 'I' for Inactive)
REMARK    1  A    between atoms: N_2  and  C_3 
REMARK    2  A    between atoms: C_8  and  C_9 
REMARK    3  A    between atoms: C_9  and  O_10 
ROOT
HETATM    1  C   LIG     1      17.077  37.575  22.696  1.00  0.00     0.044 A 
HETATM    2  C   LIG     1      16.315  36.391  22.618  1.00  0.00     0.030 A 
HETATM    3  C   LIG     1      16.400  35.558  21.502  1.00  0.00     0.002 A 
HETATM    4  C   LIG     1      17.245  35.888  20.446  1.00  0.00     0.001 A 
HETATM    5  C   LIG     1      18.019  37.048  20.505  1.00  0.00     0.020 A 
HETATM    6  C   LIG     1      17.955  37.895  21.626  1.00  0.00     0.064 A 
ENDROOT
BRANCH   6   7
HETATM    7  C   LIG     1      18.857  39.069  21.670  1.00  0.00     0.178 C 
HETATM    8  O   LIG     1      19.522  39.318  22.711  1.00  0.00    -0.646 OA
BRANCH   7   9
HETATM    9  O   LIG     1      19.018  39.890  20.556  1.00  0.00    -0.773 OA
HETATM   10  H   LIG     1      19.525  40.764  20.609  1.00  0.00     0.167 HD
ENDBRANCH   7   9
ENDBRANCH   6   7
BRANCH   1  11
HETATM   11  N   LIG     1      16.917  38.471  23.817  1.00  0.00    -0.393 N 
HETATM   12  C   LIG     1      17.284  38.118  25.184  1.00  0.00     0.146 C 
HETATM   13  H   LIG     1      16.510  39.420  23.669  1.00  0.00     0.159 HD
ENDBRANCH   1  11
TORSDOF 3
ENDMDL
MODEL 11
REMARK VINA RESULT:      -5.6      3.485      4.026
REMARK  3 active torsions:
REMARK  status: ('A' for Active; 'I' for Inactive)
REMARK    1  A    between atoms: N_2  and  C_3 
REMARK    2  A    between atoms: C_8  and  C_9 
REMARK    3  A    between atoms: C_9  and  O_10 
ROOT
HETATM    1  C   LIG     1      17.533  37.142  21.206  1.00  0.00     0.044 A 
HETATM    2  C   LIG     1      18.144  38.326  21.668  1.00  0.00     0.030 A 
HETATM    3  C   LIG     1      17.543  39.101  22.660  1.00  0.00     0.002 A 
HETATM    4  C   LIG     1      16.324  38.711  23.209  1.00  0.00     0.001 A 
HETATM    5  C   LIG     1      15.706  37.537  22.778  1.00  0.00     0.020 A 
HETATM    6  C   LIG     1      16.302  36.736  21.787  1.00  0.00     0.064 A 
ENDROOT
BRANCH   6   7
HETATM    7  C   LIG     1      15.641  35.462  21.425  1.00  0.00     0.178 C 
HETATM    8  O   LIG     1      16.323  34.410  21.296  1.00  0.00    -0.646 OA
BRANCH   7   9
HETATM    9  O   LIG     1      14.259  35.392  21.263  1.00  0.00    -0.773 OA
HETATM   10  H   LIG     1      13.806  35.722  20.420  1.00  0.00     0.167 HD
ENDBRANCH   7   9
ENDBRANCH   6   7
BRANCH   1  11
HETATM   11  N   LIG     1      18.123  36.394  20.121  1.00  0.00    -0.393 N 
HETATM   12  C   LIG     1      19.292  36.849  19.376  1.00  0.00     0.146 C 
HETATM   13  H   LIG     1      17.704  35.484  19.829  1.00  0.00     0.159 HD
ENDBRANCH   1  11
TORSDOF 3
ENDMDL
MODEL 12
REMARK VINA RESULT:      -5.5     10.019     11.307
REMARK  3 active torsions:
REMARK  status: ('A' for Active; 'I' for Inactive)
REMARK    1  A    between atoms: N_2  and  C_3 
REMARK    2  A    between atoms: C_8  and  C_9 
REMARK    3  A    between atoms: C_9  and  O_10 
ROOT
HETATM    1  C   LIG     1      15.311  31.725  14.972  1.00  0.00     0.044 A 
HETATM    2  C   LIG     1      15.536  32.724  15.941  1.00  0.00     0.030 A 
HETATM    3  C   LIG     1      14.815  32.736  17.136  1.00  0.00     0.002 A 
HETATM    4  C   LIG     1      13.858  31.756  17.384  1.00  0.00     0.001 A 
HETATM    5  C   LIG     1      13.627  30.749  16.446  1.00  0.00     0.020 A 
HETATM    6  C   LIG     1      14.352  30.713  15.241  1.00  0.00     0.064 A 
ENDROOT
BRANCH   6   7
HETATM    7  C   LIG     1      14.121  29.579  14.318  1.00  0.00     0.178 C 
HETATM    8  O   LIG     1      15.097  29.004  13.765  1.00  0.00    -0.646 OA
BRANCH   7   9
HETATM    9  O   LIG     1      12.834  29.102  14.077  1.00  0.00    -0.773 OA
HETATM   10  H   LIG     1      12.021  29.534  14.497  1.00  0.00     0.167 HD
ENDBRANCH   7   9
ENDBRANCH   6   7
BRANCH   1  11
HETATM   11  N   LIG     1      16.004  31.772  13.706  1.00  0.00    -0.393 N 
HETATM   12  C   LIG     1      16.936  32.834  13.340  1.00  0.00     0.146 C 
HETATM   13  H   LIG     1      15.839  31.026  12.995  1.00  0.00     0.159 HD
ENDBRANCH   1  11
TORSDOF 3
ENDMDL
MODEL 13
REMARK VINA RESULT:      -5.4      9.771     11.094
REMARK  3 active torsions:
REMARK  status: ('A' for Active; 'I' for Inactive)
REMARK    1  A    between atoms: N_2  and  C_3 
REMARK    2  A    between atoms: C_8  and  C_9 
REMARK    3  A    between atoms: C_9  and  O_10 
ROOT
HETATM    1  C   LIG     1      14.191  30.567  14.914  1.00  0.00     0.044 A 
HETATM    2  C   LIG     1      15.102  30.590  13.837  1.00  0.00     0.030 A 
HETATM    3  C   LIG     1      16.139  31.524  13.799  1.00  0.00     0.002 A 
HETATM    4  C   LIG     1      16.286  32.448  14.830  1.00  0.00     0.001 A 
HETATM    5  C   LIG     1      15.406  32.436  15.912  1.00  0.00     0.020 A 
HETATM    6  C   LIG     1      14.361  31.496  15.975  1.00  0.00     0.064 A 
ENDROOT
BRANCH   6   7
HETATM    7  C   LIG     1      13.506  31.478  17.183  1.00  0.00     0.178 C 
HETATM    8  O   LIG     1      12.254  31.379  17.072  1.00  0.00    -0.646 OA
BRANCH   7   9
HETATM    9  O   LIG     1      14.067  31.528  18.458  1.00  0.00    -0.773 OA
HETATM   10  H   LIG     1      14.276  30.686  18.979  1.00  0.00     0.167 HD
ENDBRANCH   7   9
ENDBRANCH   6   7
BRANCH   1  11
HETATM   11  N   LIG     1      13.074  29.652  14.901  1.00  0.00    -0.393 N 
HETATM   12  C   LIG     1      12.991  28.500  14.009  1.00  0.00     0.146 C 
HETATM   13  H   LIG     1      12.268  29.807  15.545  1.00  0.00     0.159 HD
ENDBRANCH   1  11
TORSDOF 3
ENDMDL
MODEL 14
REMARK VINA RESULT:      -5.3      8.561     10.686
REMARK  3 active torsions:
REMARK  status: ('A' for Active; 'I' for Inactive)
REMARK    1  A    between atoms: N_2  and  C_3 
REMARK    2  A    between atoms: C_8  and  C_9 
REMARK    3  A    between atoms: C_9  and  O_10 
ROOT
HETATM    1  C   LIG     1      14.678  32.064  16.614  1.00  0.00     0.044 A 
HETATM    2  C   LIG     1      15.750  32.969  16.468  1.00  0.00     0.030 A 
HETATM    3  C   LIG     1      16.516  32.987  15.302  1.00  0.00     0.002 A 
HETATM    4  C   LIG     1      16.229  32.106  14.263  1.00  0.00     0.001 A 
HETATM    5  C   LIG     1      15.165  31.211  14.379  1.00  0.00     0.020 A 
HETATM    6  C   LIG     1      14.374  31.184  15.542  1.00  0.00     0.064 A 
ENDROOT
BRANCH   6   7
HETATM    7  C   LIG     1      13.211  30.269  15.577  1.00  0.00     0.178 C 
HETATM    8  O   LIG     1      13.027  29.442  14.644  1.00  0.00    -0.646 OA
BRANCH   7   9
HETATM    9  O   LIG     1      12.327  30.276  16.655  1.00  0.00    -0.773 OA
HETATM   10  H   LIG     1      11.377  30.614  16.560  1.00  0.00     0.167 HD
ENDBRANCH   7   9
ENDBRANCH   6   7
BRANCH   1  11
HETATM   11  N   LIG     1      13.947  31.998  17.857  1.00  0.00    -0.393 N 
HETATM   12  C   LIG     1      14.581  31.756  19.149  1.00  0.00     0.146 C 
HETATM   13  H   LIG     1      12.910  32.116  17.857  1.00  0.00     0.159 HD
ENDBRANCH   1  11
TORSDOF 3
ENDMDL
MODEL 15
REMARK VINA RESULT:      -5.2      8.731     10.574
REMARK  3 active torsions:
REMARK  status: ('A' for Active; 'I' for Inactive)
REMARK    1  A    between atoms: N_2  and  C_3 
REMARK    2  A    between atoms: C_8  and  C_9 
REMARK    3  A    between atoms: C_9  and  O_10 
ROOT
HETATM    1  C   LIG     1      14.453  31.108  15.697  1.00  0.00     0.044 A 
HETATM    2  C   LIG     1      14.396  30.166  14.649  1.00  0.00     0.030 A 
HETATM    3  C   LIG     1      15.196  30.309  13.514  1.00  0.00     0.002 A 
HETATM    4  C   LIG     1      16.065  31.392  13.404  1.00  0.00     0.001 A 
HETATM    5  C   LIG     1      16.149  32.330  14.433  1.00  0.00     0.020 A 
HETATM    6  C   LIG     1      15.359  32.197  15.590  1.00  0.00     0.064 A 
ENDROOT
BRANCH   6   7
HETATM    7  C   LIG     1      15.546  33.177  16.683  1.00  0.00     0.178 C 
HETATM    8  O   LIG     1      15.583  32.789  17.882  1.00  0.00    -0.646 OA
BRANCH   7   9
HETATM    9  O   LIG     1      15.727  34.531  16.408  1.00  0.00    -0.773 OA
HETATM   10  H   LIG     1      16.643  34.916  16.217  1.00  0.00     0.167 HD
ENDBRANCH   7   9
ENDBRANCH   6   7
BRANCH   1  11
HETATM   11  N   LIG     1      13.561  30.994  16.826  1.00  0.00    -0.393 N 
HETATM   12  C   LIG     1      12.261  31.654  16.892  1.00  0.00     0.146 C 
HETATM   13  H   LIG     1      13.841  30.425  17.654  1.00  0.00     0.159 HD
ENDBRANCH   1  11
TORSDOF 3
ENDMDL
MODEL 16
REMARK VINA RESULT:      -5.1      3.181      4.232
REMARK  3 active torsions:
REMARK  status: ('A' for Active; 'I' for Inactive)
REMARK    1  A    between atoms: N_2  and  C_3 
REMARK    2  A    between atoms: C_8  and  C_9 
REMARK    3  A    between atoms: C_9  and  O_10 
ROOT
HETATM    1  C   LIG     1      17.970  37.226  20.649  1.00  0.00     0.044 A 
HETATM    2  C   LIG     1      17.482  36.071  20.003  1.00  0.00     0.030 A 
HETATM    3  C   LIG     1      16.421  35.344  20.543  1.00  0.00     0.002 A 
HETATM    4  C   LIG     1      15.828  35.753  21.735  1.00  0.00     0.001 A 
HETATM    5  C   LIG     1      16.284  36.900  22.386  1.00  0.00     0.020 A 
HETATM    6  C   LIG     1      17.346  37.652  21.851  1.00  0.00     0.064 A 
ENDROOT
BRANCH   6   7
HETATM    7  C   LIG     1      17.736  38.902  22.542  1.00  0.00     0.178 C 
HETATM    8  O   LIG     1      16.876  39.568  23.181  1.00  0.00    -0.646 OA
BRANCH   7   9
HETATM    9  O   LIG     1      19.058  39.342  22.535  1.00  0.00    -0.773 OA
HETATM   10  H   LIG     1      19.760  38.924  23.133  1.00  0.00     0.167 HD
ENDBRANCH   7   9
ENDBRANCH   6   7
BRANCH   1  11
HETATM   11  N   LIG     1      19.121  37.921  20.124  1.00  0.00    -0.393 N 
HETATM   12  C   LIG     1      19.079  38.755  18.928  1.00  0.00     0.146 C 
HETATM   13  H   LIG     1      20.045  37.829  20.601  1.00  0.00     0.159 HD
ENDBRANCH   1  11
TORSDOF 3
ENDMDL
MODEL 17
REMARK VINA RESULT:      -5.1      8.845     10.560
REMARK  3 active torsions:
REMARK  status: ('A' for Active; 'I' for Inactive)
REMARK    1  A    between atoms: N_2  and  C_3 
REMARK    2  A    between atoms: C_8  and  C_9 
REMARK    3  A    between atoms: C_9  and  O_10 
ROOT
HETATM    1  C   LIG     1      14.835  31.195  15.067  1.00  0.00     0.044 A 
HETATM    2  C   LIG     1      15.445  31.136  13.797  1.00  0.00     0.030 A 
HETATM    3  C   LIG     1      16.446  32.041  13.442  1.00  0.00     0.002 A 
HETATM    4  C   LIG     1      16.857  33.019  14.344  1.00  0.00     0.001 A 
HETATM    5  C   LIG     1      16.277  33.089  15.611  1.00  0.00     0.020 A 
HETATM    6  C   LIG     1      15.274  32.179  15.992  1.00  0.00     0.064 A 
ENDROOT
BRANCH   6   7
HETATM    7  C   LIG     1      14.751  32.251  17.375  1.00  0.00     0.178 C 
HETATM    8  O   LIG     1      15.523  32.539  18.329  1.00  0.00    -0.646 OA
BRANCH   7   9
HETATM    9  O   LIG     1      13.399  32.042  17.642  1.00  0.00    -0.773 OA
HETATM   10  H   LIG     1      12.734  32.805  17.636  1.00  0.00     0.167 HD
ENDBRANCH   7   9
ENDBRANCH   6   7
BRANCH   1  11
HETATM   11  N   LIG     1      13.743  30.308  15.391  1.00  0.00    -0.393 N 
HETATM   12  C   LIG     1      13.168  29.363  14.439  1.00  0.00     0.146 C 
HETATM   13  H   LIG     1      13.319  30.333  16.343  1.00  0.00     0.159 HD
ENDBRANCH   1  11
TORSDOF 3
ENDMDL
MODEL 18
REMARK VINA RESULT:      -3.8     15.665     16.160
REMARK  3 active torsions:
REMARK  status: ('A' for Active; 'I' for Inactive)
REMARK    1  A    between atoms: N_2  and  C_3 
REMARK    2  A    between atoms: C_8  and  C_9 
REMARK    3  A    between atoms: C_9  and  O_10 
ROOT
HETATM    1  C   LIG     1      27.197  30.078  34.290  1.00  0.00     0.044 A 
HETATM    2  C   LIG     1      28.010  31.212  34.089  1.00  0.00     0.030 A 
HETATM    3  C   LIG     1      29.071  31.180  33.183  1.00  0.00     0.002 A 
HETATM    4  C   LIG     1      29.339  30.019  32.462  1.00  0.00     0.001 A 
HETATM    5  C   LIG     1      28.539  28.888  32.634  1.00  0.00     0.020 A 
HETATM    6  C   LIG     1      27.459  28.904  33.535  1.00  0.00     0.064 A 
ENDROOT
BRANCH   6   7
HETATM    7  C   LIG     1      26.598  27.703  33.618  1.00  0.00     0.178 C 
HETATM    8  O   LIG     1      26.577  27.011  34.671  1.00  0.00    -0.646 OA
BRANCH   7   9
HETATM    9  O   LIG     1      25.770  27.341  32.557  1.00  0.00    -0.773 OA
HETATM   10  H   LIG     1      26.148  27.015  31.677  1.00  0.00     0.167 HD
ENDBRANCH   7   9
ENDBRANCH   6   7
BRANCH   1  11
HETATM   11  N   LIG     1      26.156  30.098  35.291  1.00  0.00    -0.393 N 
HETATM   12  C   LIG     1      25.868  31.259  36.126  1.00  0.00     0.146 C 
HETATM   13  H   LIG     1      25.574  29.247  35.452  1.00  0.00     0.159 HD
ENDBRANCH   1  11
TORSDOF 3
ENDMDL
