MODEL 1
REMARK VINA RESULT:      -6.9      0.000      0.000
REMARK  3 active torsions:
REMARK  status: ('A' for Active; 'I' for Inactive)
REMARK    1  A    between atoms: O_1  and  C_2 
REMARK    2  A    between atoms: C_3  and  C_8 
REMARK    3  A    between atoms: C_8  and  O_9 
ROOT
HETATM    1  C   LIG     1      17.506  37.538  25.479  1.00  0.00     0.082 A 
HETATM    2  C   LIG     1      17.054  36.815  24.348  1.00  0.00     0.072 A 
HETATM    3  C   LIG     1      17.212  35.415  24.331  1.00  0.00     0.020 A 
HETATM    4  C   LIG     1      17.802  34.751  25.408  1.00  0.00     0.001 A 
HETATM    5  C   LIG     1      18.244  35.470  26.517  1.00  0.00     0.003 A 
HETATM    6  C   LIG     1      18.098  36.856  26.554  1.00  0.00     0.037 A 
ENDROOT
BRANCH   2   7
HETATM    7  C   LIG     1      16.421  37.488  23.185  1.00  0.00     0.295 C 
HETATM    8  O   LIG     1      15.348  38.136  23.323  1.00  0.00    -0.259 OA
BRANCH   7   9
HETATM    9  O   LIG     1      17.021  37.401  21.923  1.00  0.00    -0.322 OA
HETATM   10  C   LIG     1      17.999  38.330  21.472  1.00  0.00     0.213 C 
ENDBRANCH   7   9
ENDBRANCH   2   7
BRANCH   1  11
HETATM   11  O   LIG     1      17.371  38.925  25.540  1.00  0.00    -0.360 OA
HETATM   12  H   LIG     1      17.456  39.506  24.714  1.00  0.00     0.217 HD
ENDBRANCH   1  11
TORSDOF 3
ENDMDL
MODEL 2
REMARK VINA RESULT:      -6.6      1.063      2.110
REMARK  3 active torsions:
REMARK  status: ('A' for Active; 'I' for Inactive)
REMARK    1  A    between atoms: O_1  and  C_2 
REMARK    2  A    between atoms: C_3  and  C_8 
REMARK    3  A    between atoms: C_8  and  O_9 
ROOT
HETATM    1  C   LIG     1      17.162  35.686  24.196  1.00  0.00     0.082 A 
HETATM    2  C   LIG     1      17.240  37.082  24.423  1.00  0.00     0.072 A 
HETATM    3  C   LIG     1      17.796  37.543  25.632  1.00  0.00     0.020 A 
HETATM    4  C   LIG     1      18.264  36.641  26.592  1.00  0.00     0.001 A 
HETATM    5  C   LIG     1      18.183  35.269  26.361  1.00  0.00     0.003 A 
HETATM    6  C   LIG     1      17.636  34.792  25.170  1.00  0.00     0.037 A 
ENDROOT
BRANCH   2   7
HETATM    7  C   LIG     1      16.753  38.070  23.426  1.00  0.00     0.295 C 
HETATM    8  O   LIG     1      15.533  38.113  23.108  1.00  0.00    -0.259 OA
BRANCH   7   9
HETATM    9  O   LIG     1      17.656  38.960  22.835  1.00  0.00    -0.322 OA
HETATM   10  C   LIG     1      18.135  38.799  21.505  1.00  0.00     0.213 C 
ENDBRANCH   7   9
ENDBRANCH   2   7
BRANCH   1  11
HETATM   11  O   LIG     1      16.618  35.184  23.014  1.00  0.00    -0.360 OA
HETATM   12  H   LIG     1      16.212  34.256  22.966  1.00  0.00     0.217 HD
ENDBRANCH   1  11
TORSDOF 3
ENDMDL
MODEL 3
REMARK VINA RESULT:      -6.5      1.789      4.655
REMARK  3 active torsions:
REMARK  status: ('A' for Active; 'I' for Inactive)
REMARK    1  A    between atoms: O_1  and  C_2 
REMARK    2  A    between atoms: C_3  and  C_8 
REMARK    3  A    between atoms: C_8  and  O_9 
ROOT
HETATM    1  C   LIG     1      17.534  36.872  21.207  1.00  0.00     0.082 A 
HETATM    2  C   LIG     1      17.440  38.086  21.931  1.00  0.00     0.072 A 
HETATM    3  C   LIG     1      18.243  39.174  21.537  1.00  0.00     0.020 A 
HETATM    4  C   LIG     1      19.117  39.060  20.452  1.00  0.00     0.001 A 
HETATM    5  C   LIG     1      19.204  37.862  19.746  1.00  0.00     0.003 A 
HETATM    6  C   LIG     1      18.417  36.772  20.120  1.00  0.00     0.037 A 
ENDROOT
BRANCH   2   7
HETATM    7  C   LIG     1      16.523  38.244  23.088  1.00  0.00     0.295 C 
HETATM    8  O   LIG     1      15.296  37.970  22.977  1.00  0.00    -0.259 OA
BRANCH   7   9
HETATM    9  O   LIG     1      17.023  38.702  24.312  1.00  0.00    -0.322 OA
HETATM   10  C   LIG     1      17.362  37.825  25.380  1.00  0.00     0.213 C 
ENDBRANCH   7   9
ENDBRANCH   2   7
BRANCH   1  11
HETATM   11  O   LIG     1      16.758  35.768  21.562  1.00  0.00    -0.360 OA
HETATM   12  H   LIG     1      17.176  34.868  21.768  1.00  0.00     0.217 HD
ENDBRANCH   1  11
TORSDOF 3
ENDMDL
MODEL 4
REMARK VINA RESULT:      -6.4      1.338      1.724
REMARK  3 active torsions:
REMARK  status: ('A' for Active; 'I' for Inactive)
REMARK    1  A    between atoms: O_1  and  C_2 
REMARK    2  A    between atoms: C_3  and  C_8 
REMARK    3  A    between atoms: C_8  and  O_9 
ROOT
HETATM    1  C   LIG     1      17.525  37.441  24.876  1.00  0.00     0.082 A 
HETATM    2  C   LIG     1      17.240  36.294  24.095  1.00  0.00     0.072 A 
HETATM    3  C   LIG     1      17.421  35.020  24.669  1.00  0.00     0.020 A 
HETATM    4  C   LIG     1      17.872  34.889  25.985  1.00  0.00     0.001 A 
HETATM    5  C   LIG     1      18.151  36.022  26.746  1.00  0.00     0.003 A 
HETATM    6  C   LIG     1      17.978  37.292  26.197  1.00  0.00     0.037 A 
ENDROOT
BRANCH   2   7
HETATM    7  C   LIG     1      16.759  36.396  22.694  1.00  0.00     0.295 C 
HETATM    8  O   LIG     1      17.130  37.349  21.955  1.00  0.00    -0.259 OA
BRANCH   7   9
HETATM    9  O   LIG     1      15.885  35.426  22.189  1.00  0.00    -0.322 OA
HETATM   10  C   LIG     1      14.864  35.727  21.245  1.00  0.00     0.213 C 
ENDBRANCH   7   9
ENDBRANCH   2   7
BRANCH   1  11
HETATM   11  O   LIG     1      17.362  38.722  24.350  1.00  0.00    -0.360 OA
HETATM   12  H   LIG     1      16.531  39.272  24.535  1.00  0.00     0.217 HD
ENDBRANCH   1  11
TORSDOF 3
ENDMDL
MODEL 5
REMARK VINA RESULT:      -6.4      2.008      4.451
REMARK  3 active torsions:
REMARK  status: ('A' for Active; 'I' for Inactive)
REMARK    1  A    between atoms: O_1  and  C_2 
REMARK    2  A    between atoms: C_3  and  C_8 
REMARK    3  A    between atoms: C_8  and  O_9 
ROOT
HETATM    1  C   LIG     1      18.620  38.990  21.229  1.00  0.00     0.082 A 
HETATM    2  C   LIG     1      17.683  38.034  21.691  1.00  0.00     0.072 A 
HETATM    3  C   LIG     1      17.582  36.802  21.014  1.00  0.00     0.020 A 
HETATM    4  C   LIG     1      18.391  36.527  19.909  1.00  0.00     0.001 A 
HETATM    5  C   LIG     1      19.310  37.474  19.461  1.00  0.00     0.003 A 
HETATM    6  C   LIG     1      19.426  38.700  20.117  1.00  0.00     0.037 A 
ENDROOT
BRANCH   2   7
HETATM    7  C   LIG     1      16.807  38.292  22.862  1.00  0.00     0.295 C 
HETATM    8  O   LIG     1      15.986  39.249  22.852  1.00  0.00    -0.259 OA
BRANCH   7   9
HETATM    9  O   LIG     1      16.894  37.464  23.988  1.00  0.00    -0.322 OA
HETATM   10  C   LIG     1      17.293  37.945  25.266  1.00  0.00     0.213 C 
ENDBRANCH   7   9
ENDBRANCH   2   7
BRANCH   1  11
HETATM   11  O   LIG     1      18.755  40.224  21.867  1.00  0.00    -0.360 OA
HETATM   12  H   LIG     1      18.933  41.076  21.347  1.00  0.00     0.217 HD
ENDBRANCH   1  11
TORSDOF 3
ENDMDL
MODEL 6
REMARK VINA RESULT:      -6.2      3.780      5.284
REMARK  3 active torsions:
REMARK  status: ('A' for Active; 'I' for Inactive)
REMARK    1  A    between atoms: O_1  and  C_2 
REMARK    2  A    between atoms: C_3  and  C_8 
REMARK    3  A    between atoms: C_8  and  O_9 
ROOT
HETATM    1  C   LIG     1      18.009  37.139  20.411  1.00  0.00     0.082 A 
HETATM    2  C   LIG     1      18.592  38.426  20.315  1.00  0.00     0.072 A 
HETATM    3  C   LIG     1      18.480  39.305  21.411  1.00  0.00     0.020 A 
HETATM    4  C   LIG     1      17.806  38.915  22.571  1.00  0.00     0.001 A 
HETATM    5  C   LIG     1      17.235  37.647  22.657  1.00  0.00     0.003 A 
HETATM    6  C   LIG     1      17.335  36.762  21.583  1.00  0.00     0.037 A 
ENDROOT
BRANCH   2   7
HETATM    7  C   LIG     1      19.315  38.874  19.098  1.00  0.00     0.295 C 
HETATM    8  O   LIG     1      20.438  39.442  19.191  1.00  0.00    -0.259 OA
BRANCH   7   9
HETATM    9  O   LIG     1      18.746  38.666  17.837  1.00  0.00    -0.322 OA
HETATM   10  C   LIG     1      18.788  39.643  16.803  1.00  0.00     0.213 C 
ENDBRANCH   7   9
ENDBRANCH   2   7
BRANCH   1  11
HETATM   11  O   LIG     1      18.095  36.236  19.351  1.00  0.00    -0.360 OA
HETATM   12  H   LIG     1      18.294  35.253  19.503  1.00  0.00     0.217 HD
ENDBRANCH   1  11
TORSDOF 3
ENDMDL
MODEL 7
REMARK VINA RESULT:      -6.2      3.433      4.836
REMARK  3 active torsions:
REMARK  status: ('A' for Active; 'I' for Inactive)
REMARK    1  A    between atoms: O_1  and  C_2 
REMARK    2  A    between atoms: C_3  and  C_8 
REMARK    3  A    between atoms: C_8  and  O_9 
ROOT
HETATM    1  C   LIG     1      17.763  38.082  21.580  1.00  0.00     0.082 A 
HETATM    2  C   LIG     1      17.863  36.884  20.831  1.00  0.00     0.072 A 
HETATM    3  C   LIG     1      18.764  36.834  19.749  1.00  0.00     0.020 A 
HETATM    4  C   LIG     1      19.547  37.944  19.421  1.00  0.00     0.001 A 
HETATM    5  C   LIG     1      19.442  39.119  20.164  1.00  0.00     0.003 A 
HETATM    6  C   LIG     1      18.555  39.189  21.238  1.00  0.00     0.037 A 
ENDROOT
BRANCH   2   7
HETATM    7  C   LIG     1      17.048  35.685  21.151  1.00  0.00     0.295 C 
HETATM    8  O   LIG     1      16.914  35.298  22.344  1.00  0.00    -0.259 OA
BRANCH   7   9
HETATM    9  O   LIG     1      16.421  34.977  20.118  1.00  0.00    -0.322 OA
HETATM   10  C   LIG     1      15.658  33.798  20.348  1.00  0.00     0.213 C 
ENDBRANCH   7   9
ENDBRANCH   2   7
BRANCH   1  11
HETATM   11  O   LIG     1      16.883  38.178  22.659  1.00  0.00    -0.360 OA
HETATM   12  H   LIG     1      16.008  38.683  22.589  1.00  0.00     0.217 HD
ENDBRANCH   1  11
TORSDOF 3
ENDMDL
MODEL 8
REMARK VINA RESULT:      -5.9      9.020     10.549
REMARK  3 active torsions:
REMARK  status: ('A' for Active; 'I' for Inactive)
REMARK    1  A    between atoms: O_1  and  C_2 
REMARK    2  A    between atoms: C_3  and  C_8 
REMARK    3  A    between atoms: C_8  and  O_9 
ROOT
HETATM    1  C   LIG     1      13.438  31.297  16.239  1.00  0.00     0.082 A 
HETATM    2  C   LIG     1      14.666  31.995  16.143  1.00  0.00     0.072 A 
HETATM    3  C   LIG     1      15.600  31.594  15.167  1.00  0.00     0.020 A 
HETATM    4  C   LIG     1      15.320  30.528  14.308  1.00  0.00     0.001 A 
HETATM    5  C   LIG     1      14.109  29.846  14.410  1.00  0.00     0.003 A 
HETATM    6  C   LIG     1      13.171  30.227  15.369  1.00  0.00     0.037 A 
ENDROOT
BRANCH   2   7
HETATM    7  C   LIG     1      14.997  33.133  17.038  1.00  0.00     0.295 C 
HETATM    8  O   LIG     1      14.657  34.309  16.734  1.00  0.00    -0.259 OA
BRANCH   7   9
HETATM    9  O   LIG     1      15.693  32.898  18.230  1.00  0.00    -0.322 OA
HETATM   10  C   LIG     1      15.119  32.203  19.331  1.00  0.00     0.213 C 
ENDBRANCH   7   9
ENDBRANCH   2   7
BRANCH   1  11
HETATM   11  O   LIG     1      12.484  31.658  17.190  1.00  0.00    -0.360 OA
HETATM   12  H   LIG     1      11.654  32.185  16.940  1.00  0.00     0.217 HD
ENDBRANCH   1  11
TORSDOF 3
ENDMDL
MODEL 9
REMARK VINA RESULT:      -5.8      8.923     10.139
REMARK  3 active torsions:
REMARK  status: ('A' for Active; 'I' for Inactive)
REMARK    1  A    between atoms: O_1  and  C_2 
REMARK    2  A    between atoms: C_3  and  C_8 
REMARK    3  A    between atoms: C_8  and  O_9 
ROOT
HETATM    1  C   LIG     1      14.893  32.744  16.835  1.00  0.00     0.082 A 
HETATM    2  C   LIG     1      15.669  32.526  15.670  1.00  0.00     0.072 A 
HETATM    3  C   LIG     1      15.352  31.435  14.838  1.00  0.00     0.020 A 
HETATM    4  C   LIG     1      14.291  30.582  15.154  1.00  0.00     0.001 A 
HETATM    5  C   LIG     1      13.533  30.803  16.302  1.00  0.00     0.003 A 
HETATM    6  C   LIG     1      13.831  31.878  17.139  1.00  0.00     0.037 A 
ENDROOT
BRANCH   2   7
HETATM    7  C   LIG     1      16.803  33.412  15.303  1.00  0.00     0.295 C 
HETATM    8  O   LIG     1      16.795  34.632  15.622  1.00  0.00    -0.259 OA
BRANCH   7   9
HETATM    9  O   LIG     1      17.892  32.887  14.596  1.00  0.00    -0.322 OA
HETATM   10  C   LIG     1      18.497  33.566  13.502  1.00  0.00     0.213 C 
ENDBRANCH   7   9
ENDBRANCH   2   7
BRANCH   1  11
HETATM   11  O   LIG     1      15.171  33.812  17.689  1.00  0.00    -0.360 OA
HETATM   12  H   LIG     1      14.704  33.914  18.582  1.00  0.00     0.217 HD
ENDBRANCH   1  11
TORSDOF 3
ENDMDL
MODEL 10
REMARK VINA RESULT:      -5.7      8.766     10.373
REMARK  3 active torsions:
REMARK  status: ('A' for Active; 'I' for Inactive)
REMARK    1  A    between atoms: O_1  and  C_2 
REMARK    2  A    between atoms: C_3  and  C_8 
REMARK    3  A    between atoms: C_8  and  O_9 
ROOT
HETATM    1  C   LIG     1      15.540  31.620  15.280  1.00  0.00     0.082 A 
HETATM    2  C   LIG     1      14.788  32.259  16.295  1.00  0.00     0.072 A 
HETATM    3  C   LIG     1      13.507  31.762  16.605  1.00  0.00     0.020 A 
HETATM    4  C   LIG     1      12.986  30.659  15.924  1.00  0.00     0.001 A 
HETATM    5  C   LIG     1      13.733  30.036  14.926  1.00  0.00     0.003 A 
HETATM    6  C   LIG     1      15.004  30.513  14.604  1.00  0.00     0.037 A 
ENDROOT
BRANCH   2   7
HETATM    7  C   LIG     1      15.309  33.434  17.040  1.00  0.00     0.295 C 
HETATM    8  O   LIG     1      15.734  34.449  16.423  1.00  0.00    -0.259 OA
BRANCH   7   9
HETATM    9  O   LIG     1      15.329  33.415  18.439  1.00  0.00    -0.322 OA
HETATM   10  C   LIG     1      15.442  32.212  19.190  1.00  0.00     0.213 C 
ENDBRANCH   7   9
ENDBRANCH   2   7
BRANCH   1  11
HETATM   11  O   LIG     1      16.813  32.077  14.939  1.00  0.00    -0.360 OA
HETATM   12  H   LIG     1      16.949  32.822  14.265  1.00  0.00     0.217 HD
ENDBRANCH   1  11
TORSDOF 3
ENDMDL
MODEL 11
REMARK VINA RESULT:      -5.7      2.969      4.954
REMARK  3 active torsions:
REMARK  status: ('A' for Active; 'I' for Inactive)
REMARK    1  A    between atoms: O_1  and  C_2 
REMARK    2  A    between atoms: C_3  and  C_8 
REMARK    3  A    between atoms: C_8  and  O_9 
ROOT
HETATM    1  C   LIG     1      18.123  36.982  20.452  1.00  0.00     0.082 A 
HETATM    2  C   LIG     1      17.588  37.803  21.475  1.00  0.00     0.072 A 
HETATM    3  C   LIG     1      18.108  39.101  21.644  1.00  0.00     0.020 A 
HETATM    4  C   LIG     1      19.132  39.572  20.819  1.00  0.00     0.001 A 
HETATM    5  C   LIG     1      19.653  38.758  19.816  1.00  0.00     0.003 A 
HETATM    6  C   LIG     1      19.152  37.469  19.631  1.00  0.00     0.037 A 
ENDROOT
BRANCH   2   7
HETATM    7  C   LIG     1      16.499  37.336  22.370  1.00  0.00     0.295 C 
HETATM    8  O   LIG     1      16.076  38.071  23.305  1.00  0.00    -0.259 OA
BRANCH   7   9
HETATM    9  O   LIG     1      15.937  36.069  22.177  1.00  0.00    -0.322 OA
HETATM   10  C   LIG     1      14.712  35.869  21.481  1.00  0.00     0.213 C 
ENDBRANCH   7   9
ENDBRANCH   2   7
BRANCH   1  11
HETATM   11  O   LIG     1      17.640  35.689  20.248  1.00  0.00    -0.360 OA
HETATM   12  H   LIG     1      17.461  35.059  21.022  1.00  0.00     0.217 HD
ENDBRANCH   1  11
TORSDOF 3
ENDMDL
MODEL 12
REMARK VINA RESULT:      -5.6      2.844      5.024
REMARK  3 active torsions:
REMARK  status: ('A' for Active; 'I' for Inactive)
REMARK    1  A    between atoms: O_1  and  C_2 
REMARK    2  A    between atoms: C_3  and  C_8 
REMARK    3  A    between atoms: C_8  and  O_9 
ROOT
HETATM    1  C   LIG     1      18.576  37.317  20.079  1.00  0.00     0.082 A 
HETATM    2  C   LIG     1      17.560  37.084  21.038  1.00  0.00     0.072 A 
HETATM    3  C   LIG     1      17.296  38.077  22.001  1.00  0.00     0.020 A 
HETATM    4  C   LIG     1      18.021  39.271  22.012  1.00  0.00     0.001 A 
HETATM    5  C   LIG     1      19.019  39.492  21.065  1.00  0.00     0.003 A 
HETATM    6  C   LIG     1      19.296  38.521  20.102  1.00  0.00     0.037 A 
ENDROOT
BRANCH   2   7
HETATM    7  C   LIG     1      16.769  35.827  21.057  1.00  0.00     0.295 C 
HETATM    8  O   LIG     1      16.553  35.187  19.991  1.00  0.00    -0.259 OA
BRANCH   7   9
HETATM    9  O   LIG     1      16.258  35.348  22.269  1.00  0.00    -0.322 OA
HETATM   10  C   LIG     1      17.086  35.044  23.386  1.00  0.00     0.213 C 
ENDBRANCH   7   9
ENDBRANCH   2   7
BRANCH   1  11
HETATM   11  O   LIG     1      18.873  36.362  19.107  1.00  0.00    -0.360 OA
HETATM   12  H   LIG     1      19.408  35.528  19.324  1.00  0.00     0.217 HD
ENDBRANCH   1  11
TORSDOF 3
ENDMDL
MODEL 13
REMARK VINA RESULT:      -5.6     10.556     11.918
REMARK  3 active torsions:
REMARK  status: ('A' for Active; 'I' for Inactive)
REMARK    1  A    between atoms: O_1  and  C_2 
REMARK    2  A    between atoms: C_3  and  C_8 
REMARK    3  A    between atoms: C_8  and  O_9 
ROOT
HETATM    1  C   LIG     1      15.444  31.591  15.014  1.00  0.00     0.082 A 
HETATM    2  C   LIG     1      14.376  30.681  15.203  1.00  0.00     0.072 A 
HETATM    3  C   LIG     1      13.471  30.907  16.259  1.00  0.00     0.020 A 
HETATM    4  C   LIG     1      13.622  32.009  17.104  1.00  0.00     0.001 A 
HETATM    5  C   LIG     1      14.676  32.899  16.912  1.00  0.00     0.003 A 
HETATM    6  C   LIG     1      15.583  32.694  15.872  1.00  0.00     0.037 A 
ENDROOT
BRANCH   2   7
HETATM    7  C   LIG     1      14.183  29.499  14.324  1.00  0.00     0.295 C 
HETATM    8  O   LIG     1      13.031  29.019  14.137  1.00  0.00    -0.259 OA
BRANCH   7   9
HETATM    9  O   LIG     1      15.289  28.913  13.698  1.00  0.00    -0.322 OA
HETATM   10  C   LIG     1      15.382  27.515  13.452  1.00  0.00     0.213 C 
ENDBRANCH   7   9
ENDBRANCH   2   7
BRANCH   1  11
HETATM   11  O   LIG     1      16.364  31.407  13.982  1.00  0.00    -0.360 OA
HETATM   12  H   LIG     1      17.164  30.793  14.085  1.00  0.00     0.217 HD
ENDBRANCH   1  11
TORSDOF 3
ENDMDL
MODEL 14
REMARK VINA RESULT:      -5.0      2.783      3.935
REMARK  3 active torsions:
REMARK  status: ('A' for Active; 'I' for Inactive)
REMARK    1  A    between atoms: O_1  and  C_2 
REMARK    2  A    between atoms: C_3  and  C_8 
REMARK    3  A    between atoms: C_8  and  O_9 
ROOT
HETATM    1  C   LIG     1      17.223  36.322  22.472  1.00  0.00     0.082 A 
HETATM    2  C   LIG     1      17.653  37.195  21.444  1.00  0.00     0.072 A 
HETATM    3  C   LIG     1      17.641  38.584  21.683  1.00  0.00     0.020 A 
HETATM    4  C   LIG     1      17.213  39.091  22.913  1.00  0.00     0.001 A 
HETATM    5  C   LIG     1      16.791  38.225  23.919  1.00  0.00     0.003 A 
HETATM    6  C   LIG     1      16.796  36.847  23.702  1.00  0.00     0.037 A 
ENDROOT
BRANCH   2   7
HETATM    7  C   LIG     1      18.114  36.692  20.125  1.00  0.00     0.295 C 
HETATM    8  O   LIG     1      17.356  35.985  19.406  1.00  0.00    -0.259 OA
BRANCH   7   9
HETATM    9  O   LIG     1      19.403  37.003  19.676  1.00  0.00    -0.322 OA
HETATM   10  C   LIG     1      19.821  38.336  19.405  1.00  0.00     0.213 C 
ENDBRANCH   7   9
ENDBRANCH   2   7
BRANCH   1  11
HETATM   11  O   LIG     1      17.218  34.940  22.280  1.00  0.00    -0.360 OA
HETATM   12  H   LIG     1      18.077  34.415  22.170  1.00  0.00     0.217 HD
ENDBRANCH   1  11
TORSDOF 3
ENDMDL
MODEL 15
REMARK VINA RESULT:      -4.5      9.735     11.234
REMARK  3 active torsions:
REMARK  status: ('A' for Active; 'I' for Inactive)
REMARK    1  A    between atoms: O_1  and  C_2 
REMARK    2  A    between atoms: C_3  and  C_8 
REMARK    3  A    between atoms: C_8  and  O_9 
ROOT
HETATM    1  C   LIG     1      16.244  32.609  15.698  1.00  0.00     0.082 A 
HETATM    2  C   LIG     1      15.567  31.729  14.820  1.00  0.00     0.072 A 
HETATM    3  C   LIG     1      15.889  31.758  13.449  1.00  0.00     0.020 A 
HETATM    4  C   LIG     1      16.860  32.637  12.963  1.00  0.00     0.001 A 
HETATM    5  C   LIG     1      17.522  33.500  13.834  1.00  0.00     0.003 A 
HETATM    6  C   LIG     1      17.217  33.488  15.195  1.00  0.00     0.037 A 
ENDROOT
BRANCH   2   7
HETATM    7  C   LIG     1      14.530  30.781  15.301  1.00  0.00     0.295 C 
HETATM    8  O   LIG     1      14.193  29.787  14.599  1.00  0.00    -0.259 OA
BRANCH   7   9
HETATM    9  O   LIG     1      13.920  30.991  16.543  1.00  0.00    -0.322 OA
HETATM   10  C   LIG     1      12.655  31.627  16.681  1.00  0.00     0.213 C 
ENDBRANCH   7   9
ENDBRANCH   2   7
BRANCH   1  11
HETATM   11  O   LIG     1      15.958  32.616  17.064  1.00  0.00    -0.360 OA
HETATM   12  H   LIG     1      15.419  33.361  17.491  1.00  0.00     0.217 HD
ENDBRANCH   1  11
TORSDOF 3
ENDMDL
MODEL 16
REMARK VINA RESULT:      -4.3     10.343     11.950
REMARK  3 active torsions:
REMARK  status: ('A' for Active; 'I' for Inactive)
REMARK    1  A    between atoms: O_1  and  C_2 
REMARK    2  A    between atoms: C_3  and  C_8 
REMARK    3  A    between atoms: C_8  and  O_9 
ROOT
HETATM    1  C   LIG     1      15.374  31.192  14.207  1.00  0.00     0.082 A 
HETATM    2  C   LIG     1      14.482  31.190  15.306  1.00  0.00     0.072 A 
HETATM    3  C   LIG     1      14.694  32.108  16.354  1.00  0.00     0.020 A 
HETATM    4  C   LIG     1      15.764  33.004  16.311  1.00  0.00     0.001 A 
HETATM    5  C   LIG     1      16.638  33.000  15.226  1.00  0.00     0.003 A 
HETATM    6  C   LIG     1      16.446  32.099  14.178  1.00  0.00     0.037 A 
ENDROOT
BRANCH   2   7
HETATM    7  C   LIG     1      13.333  30.252  15.386  1.00  0.00     0.295 C 
HETATM    8  O   LIG     1      12.696  30.107  16.465  1.00  0.00    -0.259 OA
BRANCH   7   9
HETATM    9  O   LIG     1      12.954  29.522  14.254  1.00  0.00    -0.322 OA
HETATM   10  C   LIG     1      13.058  28.105  14.182  1.00  0.00     0.213 C 
ENDBRANCH   7   9
ENDBRANCH   2   7
BRANCH   1  11
HETATM   11  O   LIG     1      15.204  30.302  13.147  1.00  0.00    -0.360 OA
HETATM   12  H   LIG     1      14.769  29.395  13.277  1.00  0.00     0.217 HD
ENDBRANCH   1  11
TORSDOF 3
ENDMDL
