MODEL 1
REMARK VINA RESULT:     -10.1      0.000      0.000
REMARK  1 active torsions:
REMARK  status: ('A' for Active; 'I' for Inactive)
REMARK    1  A    between atoms: C_1  and  C_2 
ROOT
HETATM    1  C   LIG     1      16.272  35.335  20.476  1.00  0.00     0.086 A 
HETATM    2  N   LIG     1      17.306  35.969  19.853  1.00  0.00    -0.246 NA
HETATM    3  C   LIG     1      17.914  37.063  20.383  1.00  0.00     0.067 A 
HETATM    4  C   LIG     1      18.967  37.682  19.700  1.00  0.00     0.032 A 
HETATM    5  C   LIG     1      19.591  38.807  20.249  1.00  0.00     0.002 A 
HETATM    6  C   LIG     1      19.164  39.318  21.479  1.00  0.00     0.001 A 
HETATM    7  C   LIG     1      18.112  38.706  22.169  1.00  0.00     0.014 A 
HETATM    8  C   LIG     1      17.482  37.577  21.625  1.00  0.00    -0.007 A 
HETATM    9  C   LIG     1      16.431  36.936  22.290  1.00  0.00     0.016 A 
HETATM   10  C   LIG     1      15.826  35.814  21.722  1.00  0.00     0.035 A 
ENDROOT
BRANCH   1  11
HETATM   11  C   LIG     1      15.679  34.142  19.824  1.00  0.00     0.086 A 
HETATM   12  C   LIG     1      15.157  33.061  20.562  1.00  0.00     0.035 A 
HETATM   13  C   LIG     1      14.602  31.969  19.892  1.00  0.00     0.016 A 
HETATM   14  C   LIG     1      14.558  31.956  18.494  1.00  0.00    -0.007 A 
HETATM   15  C   LIG     1      15.076  33.061  17.785  1.00  0.00     0.067 A 
HETATM   16  C   LIG     1      14.005  30.875  17.791  1.00  0.00     0.014 A 
HETATM   17  N   LIG     1      15.612  34.110  18.464  1.00  0.00    -0.246 NA
HETATM   18  C   LIG     1      15.037  33.073  16.386  1.00  0.00     0.032 A 
HETATM   19  C   LIG     1      14.486  31.991  15.692  1.00  0.00     0.002 A 
HETATM   20  C   LIG     1      13.972  30.895  16.393  1.00  0.00     0.001 A 
ENDBRANCH   1  11
TORSDOF 1
ENDMDL
MODEL 2
REMARK VINA RESULT:     -10.1      0.028      7.048
REMARK  1 active torsions:
REMARK  status: ('A' for Active; 'I' for Inactive)
REMARK    1  A    between atoms: C_1  and  C_2 
ROOT
HETATM    1  C   LIG     1      15.664  34.130  19.814  1.00  0.00     0.086 A 
HETATM    2  N   LIG     1      15.594  34.102  18.453  1.00  0.00    -0.246 NA
HETATM    3  C   LIG     1      15.062  33.052  17.773  1.00  0.00     0.067 A 
HETATM    4  C   LIG     1      15.020  33.069  16.374  1.00  0.00     0.032 A 
HETATM    5  C   LIG     1      14.472  31.987  15.678  1.00  0.00     0.002 A 
HETATM    6  C   LIG     1      13.966  30.885  16.376  1.00  0.00     0.001 A 
HETATM    7  C   LIG     1      14.003  30.860  17.774  1.00  0.00     0.014 A 
HETATM    8  C   LIG     1      14.552  31.942  18.479  1.00  0.00    -0.007 A 
HETATM    9  C   LIG     1      14.600  31.952  19.877  1.00  0.00     0.016 A 
HETATM   10  C   LIG     1      15.151  33.044  20.549  1.00  0.00     0.035 A 
ENDROOT
BRANCH   1  11
HETATM   11  C   LIG     1      16.252  35.325  20.467  1.00  0.00     0.086 A 
HETATM   12  C   LIG     1      15.788  35.812  21.705  1.00  0.00     0.035 A 
HETATM   13  C   LIG     1      16.389  36.937  22.276  1.00  0.00     0.016 A 
HETATM   14  C   LIG     1      17.453  37.568  21.622  1.00  0.00    -0.007 A 
HETATM   15  C   LIG     1      17.902  37.045  20.391  1.00  0.00     0.067 A 
HETATM   16  C   LIG     1      18.079  38.698  22.169  1.00  0.00     0.014 A 
HETATM   17  N   LIG     1      17.298  35.950  19.858  1.00  0.00    -0.246 NA
HETATM   18  C   LIG     1      18.970  37.656  19.722  1.00  0.00     0.032 A 
HETATM   19  C   LIG     1      19.588  38.783  20.272  1.00  0.00     0.002 A 
HETATM   20  C   LIG     1      19.144  39.302  21.493  1.00  0.00     0.001 A 
ENDBRANCH   1  11
TORSDOF 1
ENDMDL
MODEL 3
REMARK VINA RESULT:      -9.2      2.077      7.301
REMARK  1 active torsions:
REMARK  status: ('A' for Active; 'I' for Inactive)
REMARK    1  A    between atoms: C_1  and  C_2 
ROOT
HETATM    1  C   LIG     1      15.708  34.209  20.798  1.00  0.00     0.086 A 
HETATM    2  N   LIG     1      15.829  34.532  19.479  1.00  0.00    -0.246 NA
HETATM    3  C   LIG     1      15.405  33.707  18.485  1.00  0.00     0.067 A 
HETATM    4  C   LIG     1      15.557  34.083  17.146  1.00  0.00     0.032 A 
HETATM    5  C   LIG     1      15.119  33.232  16.127  1.00  0.00     0.002 A 
HETATM    6  C   LIG     1      14.529  32.003  16.442  1.00  0.00     0.001 A 
HETATM    7  C   LIG     1      14.372  31.619  17.777  1.00  0.00     0.014 A 
HETATM    8  C   LIG     1      14.809  32.468  18.805  1.00  0.00    -0.007 A 
HETATM    9  C   LIG     1      14.662  32.118  20.151  1.00  0.00     0.016 A 
HETATM   10  C   LIG     1      15.106  32.986  21.151  1.00  0.00     0.035 A 
ENDROOT
BRANCH   1  11
HETATM   11  C   LIG     1      16.191  35.178  21.811  1.00  0.00     0.086 A 
HETATM   12  C   LIG     1      16.172  36.570  21.592  1.00  0.00     0.035 A 
HETATM   13  C   LIG     1      16.632  37.435  22.588  1.00  0.00     0.016 A 
HETATM   14  C   LIG     1      17.099  36.917  23.800  1.00  0.00    -0.007 A 
HETATM   15  C   LIG     1      17.092  35.519  23.993  1.00  0.00     0.067 A 
HETATM   16  C   LIG     1      17.566  37.759  24.822  1.00  0.00     0.014 A 
HETATM   17  N   LIG     1      16.640  34.701  23.005  1.00  0.00    -0.246 NA
HETATM   18  C   LIG     1      17.549  34.979  25.201  1.00  0.00     0.032 A 
HETATM   19  C   LIG     1      18.014  35.824  26.214  1.00  0.00     0.002 A 
HETATM   20  C   LIG     1      18.022  37.210  26.024  1.00  0.00     0.001 A 
ENDBRANCH   1  11
TORSDOF 1
ENDMDL
MODEL 4
REMARK VINA RESULT:      -9.2      2.084      2.909
REMARK  1 active torsions:
REMARK  status: ('A' for Active; 'I' for Inactive)
REMARK    1  A    between atoms: C_1  and  C_2 
ROOT
HETATM    1  C   LIG     1      16.207  35.177  21.810  1.00  0.00     0.086 A 
HETATM    2  N   LIG     1      16.632  34.696  23.012  1.00  0.00    -0.246 NA
HETATM    3  C   LIG     1      17.086  35.509  24.002  1.00  0.00     0.067 A 
HETATM    4  C   LIG     1      17.518  34.964  25.217  1.00  0.00     0.032 A 
HETATM    5  C   LIG     1      17.984  35.804  26.234  1.00  0.00     0.002 A 
HETATM    6  C   LIG     1      18.021  37.188  26.040  1.00  0.00     0.001 A 
HETATM    7  C   LIG     1      17.591  37.742  24.830  1.00  0.00     0.014 A 
HETATM    8  C   LIG     1      17.122  36.906  23.805  1.00  0.00    -0.007 A 
HETATM    9  C   LIG     1      16.679  37.426  22.585  1.00  0.00     0.016 A 
HETATM   10  C   LIG     1      16.217  36.568  21.586  1.00  0.00     0.035 A 
ENDROOT
BRANCH   1  11
HETATM   11  C   LIG     1      15.719  34.213  20.794  1.00  0.00     0.086 A 
HETATM   12  C   LIG     1      15.108  32.993  21.145  1.00  0.00     0.035 A 
HETATM   13  C   LIG     1      14.659  32.129  20.144  1.00  0.00     0.016 A 
HETATM   14  C   LIG     1      14.810  32.482  18.798  1.00  0.00    -0.007 A 
HETATM   15  C   LIG     1      15.413  33.717  18.481  1.00  0.00     0.067 A 
HETATM   16  C   LIG     1      14.368  31.637  17.768  1.00  0.00     0.014 A 
HETATM   17  N   LIG     1      15.842  34.538  19.477  1.00  0.00    -0.246 NA
HETATM   18  C   LIG     1      15.568  34.095  17.142  1.00  0.00     0.032 A 
HETATM   19  C   LIG     1      15.127  33.247  16.121  1.00  0.00     0.002 A 
HETATM   20  C   LIG     1      14.529  32.022  16.433  1.00  0.00     0.001 A 
ENDBRANCH   1  11
TORSDOF 1
ENDMDL
MODEL 5
REMARK VINA RESULT:      -9.0      1.296      2.491
REMARK  1 active torsions:
REMARK  status: ('A' for Active; 'I' for Inactive)
REMARK    1  A    between atoms: C_1  and  C_2 
ROOT
HETATM    1  C   LIG     1      15.472  33.751  19.369  1.00  0.00     0.086 A 
HETATM    2  N   LIG     1      16.330  34.798  19.207  1.00  0.00    -0.246 NA
HETATM    3  C   LIG     1      16.662  35.631  20.229  1.00  0.00     0.067 A 
HETATM    4  C   LIG     1      17.543  36.696  20.009  1.00  0.00     0.032 A 
HETATM    5  C   LIG     1      17.882  37.551  21.063  1.00  0.00     0.002 A 
HETATM    6  C   LIG     1      17.342  37.346  22.337  1.00  0.00     0.001 A 
HETATM    7  C   LIG     1      16.461  36.283  22.566  1.00  0.00     0.014 A 
HETATM    8  C   LIG     1      16.116  35.422  21.514  1.00  0.00    -0.007 A 
HETATM    9  C   LIG     1      15.243  34.347  21.708  1.00  0.00     0.016 A 
HETATM   10  C   LIG     1      14.921  33.506  20.641  1.00  0.00     0.035 A 
ENDROOT
BRANCH   1  11
HETATM   11  C   LIG     1      15.178  32.890  18.197  1.00  0.00     0.086 A 
HETATM   12  C   LIG     1      14.208  31.870  18.235  1.00  0.00     0.035 A 
HETATM   13  C   LIG     1      13.969  31.098  17.096  1.00  0.00     0.016 A 
HETATM   14  C   LIG     1      14.685  31.347  15.921  1.00  0.00    -0.007 A 
HETATM   15  C   LIG     1      15.640  32.386  15.912  1.00  0.00     0.067 A 
HETATM   16  C   LIG     1      14.468  30.591  14.759  1.00  0.00     0.014 A 
HETATM   17  N   LIG     1      15.853  33.121  17.036  1.00  0.00    -0.246 NA
HETATM   18  C   LIG     1      16.364  32.658  14.746  1.00  0.00     0.032 A 
HETATM   19  C   LIG     1      16.143  31.899  13.592  1.00  0.00     0.002 A 
HETATM   20  C   LIG     1      15.197  30.868  13.599  1.00  0.00     0.001 A 
ENDBRANCH   1  11
TORSDOF 1
ENDMDL
MODEL 6
REMARK VINA RESULT:      -9.0      1.312      7.070
REMARK  1 active torsions:
REMARK  status: ('A' for Active; 'I' for Inactive)
REMARK    1  A    between atoms: C_1  and  C_2 
ROOT
HETATM    1  C   LIG     1      15.168  32.865  18.173  1.00  0.00     0.086 A 
HETATM    2  N   LIG     1      15.851  33.097  17.016  1.00  0.00    -0.246 NA
HETATM    3  C   LIG     1      15.641  32.368  15.888  1.00  0.00     0.067 A 
HETATM    4  C   LIG     1      16.372  32.642  14.727  1.00  0.00     0.032 A 
HETATM    5  C   LIG     1      16.153  31.890  13.568  1.00  0.00     0.002 A 
HETATM    6  C   LIG     1      15.204  30.863  13.566  1.00  0.00     0.001 A 
HETATM    7  C   LIG     1      14.467  30.582  14.721  1.00  0.00     0.014 A 
HETATM    8  C   LIG     1      14.682  31.332  15.887  1.00  0.00    -0.007 A 
HETATM    9  C   LIG     1      13.959  31.082  17.058  1.00  0.00     0.016 A 
HETATM   10  C   LIG     1      14.195  31.847  18.202  1.00  0.00     0.035 A 
ENDROOT
BRANCH   1  11
HETATM   11  C   LIG     1      15.459  33.719  19.349  1.00  0.00     0.086 A 
HETATM   12  C   LIG     1      14.909  33.464  20.621  1.00  0.00     0.035 A 
HETATM   13  C   LIG     1      15.228  34.300  21.694  1.00  0.00     0.016 A 
HETATM   14  C   LIG     1      16.097  35.379  21.504  1.00  0.00    -0.007 A 
HETATM   15  C   LIG     1      16.641  35.599  20.221  1.00  0.00     0.067 A 
HETATM   16  C   LIG     1      16.439  36.236  22.562  1.00  0.00     0.014 A 
HETATM   17  N   LIG     1      16.312  34.770  19.194  1.00  0.00    -0.246 NA
HETATM   18  C   LIG     1      17.518  36.668  20.008  1.00  0.00     0.032 A 
HETATM   19  C   LIG     1      17.853  37.519  21.067  1.00  0.00     0.002 A 
HETATM   20  C   LIG     1      17.315  37.303  22.340  1.00  0.00     0.001 A 
ENDBRANCH   1  11
TORSDOF 1
ENDMDL
MODEL 7
REMARK VINA RESULT:      -7.7      5.765      9.386
REMARK  1 active torsions:
REMARK  status: ('A' for Active; 'I' for Inactive)
REMARK    1  A    between atoms: C_1  and  C_2 
ROOT
HETATM    1  C   LIG     1      17.474  33.252  13.649  1.00  0.00     0.086 A 
HETATM    2  N   LIG     1      16.767  32.164  13.230  1.00  0.00    -0.246 NA
HETATM    3  C   LIG     1      15.825  31.565  14.006  1.00  0.00     0.067 A 
HETATM    4  C   LIG     1      15.131  30.446  13.532  1.00  0.00     0.032 A 
HETATM    5  C   LIG     1      14.162  29.833  14.333  1.00  0.00     0.002 A 
HETATM    6  C   LIG     1      13.884  30.335  15.608  1.00  0.00     0.001 A 
HETATM    7  C   LIG     1      14.572  31.453  16.090  1.00  0.00     0.014 A 
HETATM    8  C   LIG     1      15.546  32.073  15.293  1.00  0.00    -0.007 A 
HETATM    9  C   LIG     1      16.248  33.196  15.741  1.00  0.00     0.016 A 
HETATM   10  C   LIG     1      17.210  33.792  14.922  1.00  0.00     0.035 A 
ENDROOT
BRANCH   1  11
HETATM   11  C   LIG     1      18.474  33.842  12.727  1.00  0.00     0.086 A 
HETATM   12  C   LIG     1      18.178  34.140  11.383  1.00  0.00     0.035 A 
HETATM   13  C   LIG     1      19.159  34.705  10.565  1.00  0.00     0.016 A 
HETATM   14  C   LIG     1      20.428  34.981  11.086  1.00  0.00    -0.007 A 
HETATM   15  C   LIG     1      20.688  34.684  12.441  1.00  0.00     0.067 A 
HETATM   16  C   LIG     1      21.435  35.550  10.292  1.00  0.00     0.014 A 
HETATM   17  N   LIG     1      19.714  34.133  13.213  1.00  0.00    -0.246 NA
HETATM   18  C   LIG     1      21.948  34.957  12.986  1.00  0.00     0.032 A 
HETATM   19  C   LIG     1      22.948  35.523  12.188  1.00  0.00     0.002 A 
HETATM   20  C   LIG     1      22.692  35.818  10.844  1.00  0.00     0.001 A 
ENDBRANCH   1  11
TORSDOF 1
ENDMDL
MODEL 8
REMARK VINA RESULT:      -7.6      5.210      8.033
REMARK  1 active torsions:
REMARK  status: ('A' for Active; 'I' for Inactive)
REMARK    1  A    between atoms: C_1  and  C_2 
ROOT
HETATM    1  C   LIG     1      17.341  33.210  12.719  1.00  0.00     0.086 A 
HETATM    2  N   LIG     1      18.511  32.614  12.353  1.00  0.00    -0.246 NA
HETATM    3  C   LIG     1      19.440  33.244  11.586  1.00  0.00     0.067 A 
HETATM    4  C   LIG     1      20.623  32.586  11.233  1.00  0.00     0.032 A 
HETATM    5  C   LIG     1      21.577  33.237  10.444  1.00  0.00     0.002 A 
HETATM    6  C   LIG     1      21.351  34.546  10.005  1.00  0.00     0.001 A 
HETATM    7  C   LIG     1      20.171  35.212  10.354  1.00  0.00     0.014 A 
HETATM    8  C   LIG     1      19.210  34.565  11.145  1.00  0.00    -0.007 A 
HETATM    9  C   LIG     1      18.022  35.203  11.517  1.00  0.00     0.016 A 
HETATM   10  C   LIG     1      17.086  34.532  12.306  1.00  0.00     0.035 A 
ENDROOT
BRANCH   1  11
HETATM   11  C   LIG     1      16.393  32.446  13.566  1.00  0.00     0.086 A 
HETATM   12  C   LIG     1      15.767  31.265  13.122  1.00  0.00     0.035 A 
HETATM   13  C   LIG     1      14.891  30.583  13.970  1.00  0.00     0.016 A 
HETATM   14  C   LIG     1      14.646  31.071  15.258  1.00  0.00    -0.007 A 
HETATM   15  C   LIG     1      15.300  32.249  15.677  1.00  0.00     0.067 A 
HETATM   16  C   LIG     1      13.773  30.409  16.135  1.00  0.00     0.014 A 
HETATM   17  N   LIG     1      16.147  32.892  14.830  1.00  0.00    -0.246 NA
HETATM   18  C   LIG     1      15.075  32.751  16.964  1.00  0.00     0.032 A 
HETATM   19  C   LIG     1      14.202  32.087  17.832  1.00  0.00     0.002 A 
HETATM   20  C   LIG     1      13.553  30.919  17.418  1.00  0.00     0.001 A 
ENDBRANCH   1  11
TORSDOF 1
ENDMDL
MODEL 9
REMARK VINA RESULT:      -7.5      5.141      8.638
REMARK  1 active torsions:
REMARK  status: ('A' for Active; 'I' for Inactive)
REMARK    1  A    between atoms: C_1  and  C_2 
ROOT
HETATM    1  C   LIG     1      16.430  32.660  13.760  1.00  0.00     0.086 A 
HETATM    2  N   LIG     1      16.310  33.126  15.035  1.00  0.00    -0.246 NA
HETATM    3  C   LIG     1      15.520  32.519  15.960  1.00  0.00     0.067 A 
HETATM    4  C   LIG     1      15.426  33.041  17.255  1.00  0.00     0.032 A 
HETATM    5  C   LIG     1      14.613  32.414  18.204  1.00  0.00     0.002 A 
HETATM    6  C   LIG     1      13.890  31.265  17.863  1.00  0.00     0.001 A 
HETATM    7  C   LIG     1      13.979  30.736  16.571  1.00  0.00     0.014 A 
HETATM    8  C   LIG     1      14.793  31.360  15.614  1.00  0.00    -0.007 A 
HETATM    9  C   LIG     1      14.909  30.855  14.315  1.00  0.00     0.016 A 
HETATM   10  C   LIG     1      15.728  31.498  13.385  1.00  0.00     0.035 A 
ENDROOT
BRANCH   1  11
HETATM   11  C   LIG     1      17.325  33.383  12.824  1.00  0.00     0.086 A 
HETATM   12  C   LIG     1      16.957  34.601  12.219  1.00  0.00     0.035 A 
HETATM   13  C   LIG     1      17.847  35.241  11.353  1.00  0.00     0.016 A 
HETATM   14  C   LIG     1      19.101  34.677  11.098  1.00  0.00    -0.007 A 
HETATM   15  C   LIG     1      19.444  33.463  11.731  1.00  0.00     0.067 A 
HETATM   16  C   LIG     1      20.018  35.295  10.235  1.00  0.00     0.014 A 
HETATM   17  N   LIG     1      18.557  32.861  12.568  1.00  0.00    -0.246 NA
HETATM   18  C   LIG     1      20.696  32.883  11.497  1.00  0.00     0.032 A 
HETATM   19  C   LIG     1      21.604  33.505  10.634  1.00  0.00     0.002 A 
HETATM   20  C   LIG     1      21.266  34.707  10.005  1.00  0.00     0.001 A 
ENDBRANCH   1  11
TORSDOF 1
ENDMDL
