REMARK  1 active torsions:
REMARK  status: ('A' for Active; 'I' for Inactive)
REMARK    1  A    between atoms: C_1  and  C_2 
ROOT
HETATM    1  C   LIG     1       0.743  -0.672  -0.079  1.00  0.00     0.086 A 
HETATM    2  N   LIG     1       1.401   0.516  -0.199  1.00  0.00    -0.246 NA
HETATM    3  C   LIG     1       2.748   0.588  -0.368  1.00  0.00     0.067 A 
HETATM    4  C   LIG     1       3.377   1.833  -0.480  1.00  0.00     0.032 A 
HETATM    5  C   LIG     1       4.763   1.903  -0.654  1.00  0.00     0.002 A 
HETATM    6  C   LIG     1       5.524   0.731  -0.716  1.00  0.00     0.001 A 
HETATM    7  C   LIG     1       4.904  -0.518  -0.606  1.00  0.00     0.014 A 
HETATM    8  C   LIG     1       3.514  -0.596  -0.431  1.00  0.00    -0.007 A 
HETATM    9  C   LIG     1       2.861  -1.828  -0.323  1.00  0.00     0.016 A 
HETATM   10  C   LIG     1       1.476  -1.872  -0.151  1.00  0.00     0.035 A 
ENDROOT
BRANCH   1  11
HETATM   11  C   LIG     1      -0.730  -0.650   0.092  1.00  0.00     0.086 A 
HETATM   12  C   LIG     1      -1.441  -1.733   0.645  1.00  0.00     0.035 A 
HETATM   13  C   LIG     1      -2.828  -1.650   0.790  1.00  0.00     0.016 A 
HETATM   14  C   LIG     1      -3.503  -0.490   0.395  1.00  0.00    -0.007 A 
HETATM   15  C   LIG     1      -2.759   0.582  -0.142  1.00  0.00     0.067 A 
HETATM   16  C   LIG     1      -4.895  -0.374   0.529  1.00  0.00     0.014 A 
HETATM   17  N   LIG     1      -1.410   0.473  -0.273  1.00  0.00    -0.246 NA
HETATM   18  C   LIG     1      -3.412   1.755  -0.538  1.00  0.00     0.032 A 
HETATM   19  C   LIG     1      -4.800   1.863  -0.403  1.00  0.00     0.002 A 
HETATM   20  C   LIG     1      -5.539   0.801   0.129  1.00  0.00     0.001 A 
ENDBRANCH   1  11
TORSDOF 1
