REMARK  3 active torsions:
REMARK  status: ('A' for Active; 'I' for Inactive)
REMARK    1  A    between atoms: O_1  and  C_2 
REMARK    2  A    between atoms: C_3  and  C_8 
REMARK    3  A    between atoms: C_8  and  O_9 
ROOT
HETATM    1  C   LIG     1      -1.139   0.998  -0.466  1.00  0.00     0.082 A 
HETATM    2  C   LIG     1      -0.163   0.080  -0.008  1.00  0.00     0.072 A 
HETATM    3  C   LIG     1      -0.590  -1.124   0.586  1.00  0.00     0.020 A 
HETATM    4  C   LIG     1      -1.951  -1.409   0.721  1.00  0.00     0.001 A 
HETATM    5  C   LIG     1      -2.905  -0.500   0.268  1.00  0.00     0.003 A 
HETATM    6  C   LIG     1      -2.503   0.698  -0.323  1.00  0.00     0.037 A 
ENDROOT
BRANCH   2   7
HETATM    7  C   LIG     1       1.292   0.349  -0.135  1.00  0.00     0.295 C 
HETATM    8  O   LIG     1       1.704   1.419  -0.662  1.00  0.00    -0.259 OA
BRANCH   7   9
HETATM    9  O   LIG     1       2.215  -0.593   0.334  1.00  0.00    -0.322 OA
HETATM   10  C   LIG     1       3.622  -0.401   0.245  1.00  0.00     0.213 C 
ENDBRANCH   7   9
ENDBRANCH   2   7
BRANCH   1  11
HETATM   11  O   LIG     1      -0.763   2.203  -1.060  1.00  0.00    -0.360 OA
HETATM   12  H   LIG     1      -1.450   2.870  -1.393  1.00  0.00     0.217 HD
ENDBRANCH   1  11
TORSDOF 3
