REMARK  2 active torsions:
REMARK  status: ('A' for Active; 'I' for Inactive)
REMARK    1  A    between atoms: C_2  and  C_3 
REMARK    2  A    between atoms: C_2  and  C_9 
ROOT
HETATM    1  O   LIG     1      -0.280  -2.544   0.133  1.00  0.00    -0.287 OA
HETATM    2  C   LIG     1      -0.142  -1.292   0.068  1.00  0.00     0.192 C 
ENDROOT
BRANCH   2   3
HETATM    3  C   LIG     1       1.198  -0.707   0.314  1.00  0.00     0.015 A 
HETATM    4  C   LIG     1       1.338   0.550   0.933  1.00  0.00     0.015 A 
HETATM    5  C   LIG     1       2.608   1.082   1.176  1.00  0.00     0.001 A 
HETATM    6  C   LIG     1       3.750   0.363   0.814  1.00  0.00     0.000 A 
HETATM    7  C   LIG     1       3.623  -0.892   0.214  1.00  0.00     0.001 A 
HETATM    8  C   LIG     1       2.355  -1.429  -0.030  1.00  0.00     0.015 A 
ENDBRANCH   2   3
BRANCH   2   9
HETATM    9  C   LIG     1      -1.326  -0.459  -0.253  1.00  0.00     0.015 A 
HETATM   10  C   LIG     1      -1.198   0.727  -1.000  1.00  0.00     0.015 A 
HETATM   11  C   LIG     1      -2.325   1.494  -1.311  1.00  0.00     0.001 A 
HETATM   12  C   LIG     1      -3.591   1.080  -0.890  1.00  0.00     0.000 A 
HETATM   13  C   LIG     1      -3.733  -0.104  -0.162  1.00  0.00     0.001 A 
HETATM   14  C   LIG     1      -2.608  -0.874   0.151  1.00  0.00     0.015 A 
ENDBRANCH   2   9
TORSDOF 2
