MODEL 1
REMARK VINA RESULT:      -7.2      0.000      0.000
REMARK  0 active torsions:
REMARK  status: ('A' for Active; 'I' for Inactive)
ROOT
HETATM    1  C   LIG     1      17.216  36.139  24.254  1.00  0.00    -0.023 A 
HETATM    2  C   LIG     1      16.655  36.243  22.974  1.00  0.00     0.031 A 
HETATM    3  C   LIG     1      16.450  37.506  22.416  1.00  0.00     0.117 A 
HETATM    4  N   LIG     1      16.792  38.625  23.110  1.00  0.00    -0.272 NA
HETATM    5  C   LIG     1      17.337  38.560  24.354  1.00  0.00     0.128 A 
HETATM    6  C   LIG     1      17.564  37.316  24.957  1.00  0.00    -0.008 A 
HETATM    7  C   LIG     1      18.125  37.223  26.239  1.00  0.00     0.014 A 
HETATM    8  C   LIG     1      18.340  35.968  26.819  1.00  0.00     0.001 A 
HETATM    9  C   LIG     1      17.996  34.804  26.125  1.00  0.00     0.001 A 
HETATM   10  C   LIG     1      17.435  34.886  24.846  1.00  0.00     0.012 A 
ENDROOT
TORSDOF 0
ENDMDL
MODEL 2
REMARK VINA RESULT:      -7.2      0.664      2.084
REMARK  0 active torsions:
REMARK  status: ('A' for Active; 'I' for Inactive)
ROOT
HETATM    1  C   LIG     1      17.626  37.286  24.748  1.00  0.00    -0.023 A 
HETATM    2  C   LIG     1      17.503  38.483  24.029  1.00  0.00     0.031 A 
HETATM    3  C   LIG     1      17.001  38.450  22.726  1.00  0.00     0.117 A 
HETATM    4  N   LIG     1      16.636  37.267  22.162  1.00  0.00    -0.272 NA
HETATM    5  C   LIG     1      16.744  36.089  22.831  1.00  0.00     0.128 A 
HETATM    6  C   LIG     1      17.240  36.068  24.141  1.00  0.00    -0.008 A 
HETATM    7  C   LIG     1      17.361  34.865  24.853  1.00  0.00     0.014 A 
HETATM    8  C   LIG     1      17.860  34.873  26.159  1.00  0.00     0.001 A 
HETATM    9  C   LIG     1      18.242  36.076  26.760  1.00  0.00     0.001 A 
HETATM   10  C   LIG     1      18.126  37.281  26.059  1.00  0.00     0.012 A 
ENDROOT
TORSDOF 0
ENDMDL
MODEL 3
REMARK VINA RESULT:      -6.9      2.930      4.487
REMARK  0 active torsions:
REMARK  status: ('A' for Active; 'I' for Inactive)
ROOT
HETATM    1  C   LIG     1      17.667  37.301  21.210  1.00  0.00    -0.023 A 
HETATM    2  C   LIG     1      16.662  36.640  21.930  1.00  0.00     0.031 A 
HETATM    3  C   LIG     1      16.002  37.314  22.960  1.00  0.00     0.117 A 
HETATM    4  N   LIG     1      16.331  38.599  23.260  1.00  0.00    -0.272 NA
HETATM    5  C   LIG     1      17.301  39.268  22.583  1.00  0.00     0.128 A 
HETATM    6  C   LIG     1      17.993  38.637  21.540  1.00  0.00    -0.008 A 
HETATM    7  C   LIG     1      18.998  39.306  20.826  1.00  0.00     0.014 A 
HETATM    8  C   LIG     1      19.673  38.653  19.791  1.00  0.00     0.001 A 
HETATM    9  C   LIG     1      19.352  37.332  19.464  1.00  0.00     0.001 A 
HETATM   10  C   LIG     1      18.352  36.655  20.170  1.00  0.00     0.012 A 
ENDROOT
TORSDOF 0
ENDMDL
MODEL 4
REMARK VINA RESULT:      -6.9      3.207      5.047
REMARK  0 active torsions:
REMARK  status: ('A' for Active; 'I' for Inactive)
ROOT
HETATM    1  C   LIG     1      17.892  38.428  21.452  1.00  0.00    -0.023 A 
HETATM    2  C   LIG     1      16.978  38.739  22.468  1.00  0.00     0.031 A 
HETATM    3  C   LIG     1      16.047  37.779  22.870  1.00  0.00     0.117 A 
HETATM    4  N   LIG     1      16.031  36.553  22.280  1.00  0.00    -0.272 NA
HETATM    5  C   LIG     1      16.902  36.219  21.292  1.00  0.00     0.128 A 
HETATM    6  C   LIG     1      17.855  37.148  20.853  1.00  0.00    -0.008 A 
HETATM    7  C   LIG     1      18.766  36.828  19.835  1.00  0.00     0.014 A 
HETATM    8  C   LIG     1      19.707  37.773  19.416  1.00  0.00     0.001 A 
HETATM    9  C   LIG     1      19.744  39.040  20.007  1.00  0.00     0.001 A 
HETATM   10  C   LIG     1      18.840  39.369  21.023  1.00  0.00     0.012 A 
ENDROOT
TORSDOF 0
ENDMDL
MODEL 5
REMARK VINA RESULT:      -6.9      3.329      4.336
REMARK  0 active torsions:
REMARK  status: ('A' for Active; 'I' for Inactive)
ROOT
HETATM    1  C   LIG     1      18.237  37.196  20.562  1.00  0.00    -0.023 A 
HETATM    2  C   LIG     1      19.207  37.142  19.552  1.00  0.00     0.031 A 
HETATM    3  C   LIG     1      19.974  38.276  19.277  1.00  0.00     0.117 A 
HETATM    4  N   LIG     1      19.780  39.422  19.984  1.00  0.00    -0.272 NA
HETATM    5  C   LIG     1      18.848  39.509  20.970  1.00  0.00     0.128 A 
HETATM    6  C   LIG     1      18.053  38.398  21.284  1.00  0.00    -0.008 A 
HETATM    7  C   LIG     1      17.085  38.462  22.297  1.00  0.00     0.014 A 
HETATM    8  C   LIG     1      16.305  37.339  22.590  1.00  0.00     0.001 A 
HETATM    9  C   LIG     1      16.485  36.150  21.877  1.00  0.00     0.001 A 
HETATM   10  C   LIG     1      17.449  36.076  20.865  1.00  0.00     0.012 A 
ENDROOT
TORSDOF 0
ENDMDL
MODEL 6
REMARK VINA RESULT:      -6.6      1.527      3.409
REMARK  0 active torsions:
REMARK  status: ('A' for Active; 'I' for Inactive)
ROOT
HETATM    1  C   LIG     1      17.246  35.722  24.109  1.00  0.00    -0.023 A 
HETATM    2  C   LIG     1      17.489  34.818  25.152  1.00  0.00     0.031 A 
HETATM    3  C   LIG     1      17.856  35.303  26.409  1.00  0.00     0.117 A 
HETATM    4  N   LIG     1      17.975  36.643  26.618  1.00  0.00    -0.272 NA
HETATM    5  C   LIG     1      17.748  37.547  25.628  1.00  0.00     0.128 A 
HETATM    6  C   LIG     1      17.377  37.110  24.349  1.00  0.00    -0.008 A 
HETATM    7  C   LIG     1      17.136  38.023  23.312  1.00  0.00     0.014 A 
HETATM    8  C   LIG     1      16.769  37.560  22.045  1.00  0.00     0.001 A 
HETATM    9  C   LIG     1      16.640  36.188  21.806  1.00  0.00     0.001 A 
HETATM   10  C   LIG     1      16.877  35.270  22.834  1.00  0.00     0.012 A 
ENDROOT
TORSDOF 0
ENDMDL
MODEL 7
REMARK VINA RESULT:      -6.5      3.325      4.645
REMARK  0 active torsions:
REMARK  status: ('A' for Active; 'I' for Inactive)
ROOT
HETATM    1  C   LIG     1      17.960  38.270  21.359  1.00  0.00    -0.023 A 
HETATM    2  C   LIG     1      18.788  39.332  20.971  1.00  0.00     0.031 A 
HETATM    3  C   LIG     1      19.727  39.134  19.956  1.00  0.00     0.117 A 
HETATM    4  N   LIG     1      19.834  37.920  19.351  1.00  0.00    -0.272 NA
HETATM    5  C   LIG     1      19.048  36.869  19.703  1.00  0.00     0.128 A 
HETATM    6  C   LIG     1      18.091  37.017  20.716  1.00  0.00    -0.008 A 
HETATM    7  C   LIG     1      17.267  35.948  21.098  1.00  0.00     0.014 A 
HETATM    8  C   LIG     1      16.320  36.123  22.112  1.00  0.00     0.001 A 
HETATM    9  C   LIG     1      16.190  37.360  22.749  1.00  0.00     0.001 A 
HETATM   10  C   LIG     1      17.007  38.433  22.375  1.00  0.00     0.012 A 
ENDROOT
TORSDOF 0
ENDMDL
MODEL 8
REMARK VINA RESULT:      -6.5      1.654      3.993
REMARK  0 active torsions:
REMARK  status: ('A' for Active; 'I' for Inactive)
ROOT
HETATM    1  C   LIG     1      17.661  37.220  24.689  1.00  0.00    -0.023 A 
HETATM    2  C   LIG     1      18.129  37.277  26.009  1.00  0.00     0.031 A 
HETATM    3  C   LIG     1      18.180  36.106  26.768  1.00  0.00     0.117 A 
HETATM    4  N   LIG     1      17.780  34.922  26.230  1.00  0.00    -0.272 NA
HETATM    5  C   LIG     1      17.320  34.833  24.954  1.00  0.00     0.128 A 
HETATM    6  C   LIG     1      17.249  35.979  24.151  1.00  0.00    -0.008 A 
HETATM    7  C   LIG     1      16.779  35.913  22.831  1.00  0.00     0.014 A 
HETATM    8  C   LIG     1      16.718  37.072  22.051  1.00  0.00     0.001 A 
HETATM    9  C   LIG     1      17.124  38.300  22.582  1.00  0.00     0.001 A 
HETATM   10  C   LIG     1      17.595  38.377  23.897  1.00  0.00     0.012 A 
ENDROOT
TORSDOF 0
ENDMDL
MODEL 9
REMARK VINA RESULT:      -6.3      1.326      3.277
REMARK  0 active torsions:
REMARK  status: ('A' for Active; 'I' for Inactive)
ROOT
HETATM    1  C   LIG     1      17.191  36.206  23.816  1.00  0.00    -0.023 A 
HETATM    2  C   LIG     1      17.322  36.271  25.210  1.00  0.00     0.031 A 
HETATM    3  C   LIG     1      17.415  37.518  25.831  1.00  0.00     0.117 A 
HETATM    4  N   LIG     1      17.379  38.658  25.089  1.00  0.00    -0.272 NA
HETATM    5  C   LIG     1      17.254  38.630  23.736  1.00  0.00     0.128 A 
HETATM    6  C   LIG     1      17.156  37.403  23.065  1.00  0.00    -0.008 A 
HETATM    7  C   LIG     1      17.026  37.348  21.669  1.00  0.00     0.014 A 
HETATM    8  C   LIG     1      16.931  36.110  21.025  1.00  0.00     0.001 A 
HETATM    9  C   LIG     1      16.966  34.925  21.766  1.00  0.00     0.001 A 
HETATM   10  C   LIG     1      17.096  34.970  23.158  1.00  0.00     0.012 A 
ENDROOT
TORSDOF 0
ENDMDL
MODEL 10
REMARK VINA RESULT:      -6.1      9.349     11.177
REMARK  0 active torsions:
REMARK  status: ('A' for Active; 'I' for Inactive)
ROOT
HETATM    1  C   LIG     1      14.149  31.458  15.959  1.00  0.00    -0.023 A 
HETATM    2  C   LIG     1      13.968  32.384  16.995  1.00  0.00     0.031 A 
HETATM    3  C   LIG     1      14.941  33.360  17.219  1.00  0.00     0.117 A 
HETATM    4  N   LIG     1      16.054  33.410  16.438  1.00  0.00    -0.272 NA
HETATM    5  C   LIG     1      16.261  32.527  15.427  1.00  0.00     0.128 A 
HETATM    6  C   LIG     1      15.315  31.529  15.161  1.00  0.00    -0.008 A 
HETATM    7  C   LIG     1      15.506  30.605  14.122  1.00  0.00     0.014 A 
HETATM    8  C   LIG     1      14.545  29.618  13.879  1.00  0.00     0.001 A 
HETATM    9  C   LIG     1      13.393  29.547  14.668  1.00  0.00     0.001 A 
HETATM   10  C   LIG     1      13.193  30.463  15.706  1.00  0.00     0.012 A 
ENDROOT
TORSDOF 0
ENDMDL
MODEL 11
REMARK VINA RESULT:      -6.1      1.566      3.678
REMARK  0 active torsions:
REMARK  status: ('A' for Active; 'I' for Inactive)
ROOT
HETATM    1  C   LIG     1      17.234  37.341  23.247  1.00  0.00    -0.023 A 
HETATM    2  C   LIG     1      17.379  38.446  24.097  1.00  0.00     0.031 A 
HETATM    3  C   LIG     1      17.498  38.240  25.473  1.00  0.00     0.117 A 
HETATM    4  N   LIG     1      17.472  36.979  25.982  1.00  0.00    -0.272 NA
HETATM    5  C   LIG     1      17.331  35.886  25.186  1.00  0.00     0.128 A 
HETATM    6  C   LIG     1      17.209  36.039  23.799  1.00  0.00    -0.008 A 
HETATM    7  C   LIG     1      17.063  34.927  22.956  1.00  0.00     0.014 A 
HETATM    8  C   LIG     1      16.942  35.108  21.575  1.00  0.00     0.001 A 
HETATM    9  C   LIG     1      16.966  36.395  21.028  1.00  0.00     0.001 A 
HETATM   10  C   LIG     1      17.111  37.510  21.860  1.00  0.00     0.012 A 
ENDROOT
TORSDOF 0
ENDMDL
MODEL 12
REMARK VINA RESULT:      -6.1      8.900     10.468
REMARK  0 active torsions:
REMARK  status: ('A' for Active; 'I' for Inactive)
ROOT
HETATM    1  C   LIG     1      15.394  31.946  15.191  1.00  0.00    -0.023 A 
HETATM    2  C   LIG     1      16.533  32.542  14.633  1.00  0.00     0.031 A 
HETATM    3  C   LIG     1      16.990  33.759  15.144  1.00  0.00     0.117 A 
HETATM    4  N   LIG     1      16.334  34.358  16.174  1.00  0.00    -0.272 NA
HETATM    5  C   LIG     1      15.226  33.808  16.737  1.00  0.00     0.128 A 
HETATM    6  C   LIG     1      14.728  32.588  16.261  1.00  0.00    -0.008 A 
HETATM    7  C   LIG     1      13.587  31.999  16.826  1.00  0.00     0.014 A 
HETATM    8  C   LIG     1      13.111  30.781  16.331  1.00  0.00     0.001 A 
HETATM    9  C   LIG     1      13.768  30.145  15.273  1.00  0.00     0.001 A 
HETATM   10  C   LIG     1      14.907  30.724  14.703  1.00  0.00     0.012 A 
ENDROOT
TORSDOF 0
ENDMDL
MODEL 13
REMARK VINA RESULT:      -5.9      9.621     11.096
REMARK  0 active torsions:
REMARK  status: ('A' for Active; 'I' for Inactive)
ROOT
HETATM    1  C   LIG     1      15.549  32.325  15.701  1.00  0.00    -0.023 A 
HETATM    2  C   LIG     1      16.623  33.124  15.285  1.00  0.00     0.031 A 
HETATM    3  C   LIG     1      17.178  32.920  14.020  1.00  0.00     0.117 A 
HETATM    4  N   LIG     1      16.679  31.955  13.201  1.00  0.00    -0.272 NA
HETATM    5  C   LIG     1      15.640  31.163  13.574  1.00  0.00     0.128 A 
HETATM    6  C   LIG     1      15.048  31.328  14.833  1.00  0.00    -0.008 A 
HETATM    7  C   LIG     1      13.974  30.524  15.242  1.00  0.00     0.014 A 
HETATM    8  C   LIG     1      13.402  30.709  16.504  1.00  0.00     0.001 A 
HETATM    9  C   LIG     1      13.897  31.694  17.364  1.00  0.00     0.001 A 
HETATM   10  C   LIG     1      14.968  32.502  16.966  1.00  0.00     0.012 A 
ENDROOT
TORSDOF 0
ENDMDL
MODEL 14
REMARK VINA RESULT:      -5.8      9.386     10.947
REMARK  0 active torsions:
REMARK  status: ('A' for Active; 'I' for Inactive)
ROOT
HETATM    1  C   LIG     1      14.597  31.047  15.507  1.00  0.00    -0.023 A 
HETATM    2  C   LIG     1      14.500  30.106  14.472  1.00  0.00     0.031 A 
HETATM    3  C   LIG     1      15.295  30.256  13.334  1.00  0.00     0.117 A 
HETATM    4  N   LIG     1      16.155  31.306  13.232  1.00  0.00    -0.272 NA
HETATM    5  C   LIG     1      16.272  32.236  14.216  1.00  0.00     0.128 A 
HETATM    6  C   LIG     1      15.497  32.130  15.379  1.00  0.00    -0.008 A 
HETATM    7  C   LIG     1      15.600  33.077  16.409  1.00  0.00     0.014 A 
HETATM    8  C   LIG     1      14.814  32.947  17.558  1.00  0.00     0.001 A 
HETATM    9  C   LIG     1      13.923  31.877  17.686  1.00  0.00     0.001 A 
HETATM   10  C   LIG     1      13.813  30.928  16.664  1.00  0.00     0.012 A 
ENDROOT
TORSDOF 0
ENDMDL
MODEL 15
REMARK VINA RESULT:      -5.7      9.280     11.245
REMARK  0 active torsions:
REMARK  status: ('A' for Active; 'I' for Inactive)
ROOT
HETATM    1  C   LIG     1      15.345  32.083  15.709  1.00  0.00    -0.023 A 
HETATM    2  C   LIG     1      15.369  32.812  16.906  1.00  0.00     0.031 A 
HETATM    3  C   LIG     1      14.526  32.437  17.954  1.00  0.00     0.117 A 
HETATM    4  N   LIG     1      13.690  31.373  17.813  1.00  0.00    -0.272 NA
HETATM    5  C   LIG     1      13.641  30.645  16.666  1.00  0.00     0.128 A 
HETATM    6  C   LIG     1      14.467  30.981  15.585  1.00  0.00    -0.008 A 
HETATM    7  C   LIG     1      14.435  30.246  14.391  1.00  0.00     0.014 A 
HETATM    8  C   LIG     1      15.270  30.604  13.327  1.00  0.00     0.001 A 
HETATM    9  C   LIG     1      16.138  31.693  13.448  1.00  0.00     0.001 A 
HETATM   10  C   LIG     1      16.177  32.433  14.635  1.00  0.00     0.012 A 
ENDROOT
TORSDOF 0
ENDMDL
MODEL 16
REMARK VINA RESULT:      -5.5      9.478     11.159
REMARK  0 active torsions:
REMARK  status: ('A' for Active; 'I' for Inactive)
ROOT
HETATM    1  C   LIG     1      14.744  31.213  14.923  1.00  0.00    -0.023 A 
HETATM    2  C   LIG     1      13.654  30.390  15.236  1.00  0.00     0.031 A 
HETATM    3  C   LIG     1      13.034  30.519  16.481  1.00  0.00     0.117 A 
HETATM    4  N   LIG     1      13.484  31.435  17.379  1.00  0.00    -0.272 NA
HETATM    5  C   LIG     1      14.540  32.248  17.108  1.00  0.00     0.128 A 
HETATM    6  C   LIG     1      15.196  32.158  15.873  1.00  0.00    -0.008 A 
HETATM    7  C   LIG     1      16.287  32.986  15.569  1.00  0.00     0.014 A 
HETATM    8  C   LIG     1      16.924  32.875  14.329  1.00  0.00     0.001 A 
HETATM    9  C   LIG     1      16.479  31.941  13.389  1.00  0.00     0.001 A 
HETATM   10  C   LIG     1      15.392  31.111  13.683  1.00  0.00     0.012 A 
ENDROOT
TORSDOF 0
ENDMDL
MODEL 17
REMARK VINA RESULT:      -5.3      9.744     11.439
REMARK  0 active torsions:
REMARK  status: ('A' for Active; 'I' for Inactive)
ROOT
HETATM    1  C   LIG     1      15.186  31.380  15.120  1.00  0.00    -0.023 A 
HETATM    2  C   LIG     1      15.685  30.583  14.079  1.00  0.00     0.031 A 
HETATM    3  C   LIG     1      14.946  29.480  13.648  1.00  0.00     0.117 A 
HETATM    4  N   LIG     1      13.753  29.182  14.232  1.00  0.00    -0.272 NA
HETATM    5  C   LIG     1      13.242  29.933  15.243  1.00  0.00     0.128 A 
HETATM    6  C   LIG     1      13.945  31.051  15.712  1.00  0.00    -0.008 A 
HETATM    7  C   LIG     1      13.439  31.842  16.755  1.00  0.00     0.014 A 
HETATM    8  C   LIG     1      14.161  32.952  17.204  1.00  0.00     0.001 A 
HETATM    9  C   LIG     1      15.388  33.277  16.619  1.00  0.00     0.001 A 
HETATM   10  C   LIG     1      15.902  32.495  15.579  1.00  0.00     0.012 A 
ENDROOT
TORSDOF 0
ENDMDL
MODEL 18
REMARK VINA RESULT:      -5.0     10.048     11.551
REMARK  0 active torsions:
REMARK  status: ('A' for Active; 'I' for Inactive)
ROOT
HETATM    1  C   LIG     1      15.007  31.945  15.714  1.00  0.00    -0.023 A 
HETATM    2  C   LIG     1      14.008  31.544  16.612  1.00  0.00     0.031 A 
HETATM    3  C   LIG     1      13.162  30.488  16.268  1.00  0.00     0.117 A 
HETATM    4  N   LIG     1      13.307  29.855  15.072  1.00  0.00    -0.272 NA
HETATM    5  C   LIG     1      14.264  30.219  14.179  1.00  0.00     0.128 A 
HETATM    6  C   LIG     1      15.139  31.272  14.477  1.00  0.00    -0.008 A 
HETATM    7  C   LIG     1      16.135  31.667  13.571  1.00  0.00     0.014 A 
HETATM    8  C   LIG     1      16.994  32.723  13.894  1.00  0.00     0.001 A 
HETATM    9  C   LIG     1      16.864  33.388  15.116  1.00  0.00     0.001 A 
HETATM   10  C   LIG     1      15.874  33.003  16.026  1.00  0.00     0.012 A 
ENDROOT
TORSDOF 0
ENDMDL
MODEL 19
REMARK VINA RESULT:      -4.6     11.448     13.083
REMARK  0 active torsions:
REMARK  status: ('A' for Active; 'I' for Inactive)
ROOT
HETATM    1  C   LIG     1      13.612  29.460  14.699  1.00  0.00    -0.023 A 
HETATM    2  C   LIG     1      12.903  28.332  14.264  1.00  0.00     0.031 A 
HETATM    3  C   LIG     1      13.553  27.374  13.484  1.00  0.00     0.117 A 
HETATM    4  N   LIG     1      14.862  27.535  13.150  1.00  0.00    -0.272 NA
HETATM    5  C   LIG     1      15.578  28.618  13.554  1.00  0.00     0.128 A 
HETATM    6  C   LIG     1      14.971  29.608  14.339  1.00  0.00    -0.008 A 
HETATM    7  C   LIG     1      15.688  30.734  14.769  1.00  0.00     0.014 A 
HETATM    8  C   LIG     1      15.058  31.707  15.551  1.00  0.00     0.001 A 
HETATM    9  C   LIG     1      13.714  31.563  15.907  1.00  0.00     0.001 A 
HETATM   10  C   LIG     1      12.990  30.443  15.483  1.00  0.00     0.012 A 
ENDROOT
TORSDOF 0
ENDMDL
