REMARK  0 active torsions:
REMARK  status: ('A' for Active; 'I' for Inactive)
ROOT
HETATM    1  C   LIG     1       0.180  -0.643   0.020  1.00  0.00    -0.023 A 
HETATM    2  C   LIG     1       1.381  -1.365   0.051  1.00  0.00     0.031 A 
HETATM    3  C   LIG     1       2.595  -0.675   0.043  1.00  0.00     0.117 A 
HETATM    4  N   LIG     1       2.610   0.685   0.006  1.00  0.00    -0.272 NA
HETATM    5  C   LIG     1       1.464   1.415  -0.026  1.00  0.00     0.128 A 
HETATM    6  C   LIG     1       0.220   0.770  -0.019  1.00  0.00    -0.008 A 
HETATM    7  C   LIG     1      -0.977   1.501  -0.051  1.00  0.00     0.014 A 
HETATM    8  C   LIG     1      -2.205   0.832  -0.044  1.00  0.00     0.001 A 
HETATM    9  C   LIG     1      -2.246  -0.565  -0.006  1.00  0.00     0.001 A 
HETATM   10  C   LIG     1      -1.058  -1.303   0.026  1.00  0.00     0.012 A 
ENDROOT
TORSDOF 0
