MODEL 1
REMARK VINA RESULT:      -6.3      0.000      0.000
REMARK  0 active torsions:
REMARK  status: ('A' for Active; 'I' for Inactive)
ROOT
HETATM    1  N   LIG     1      17.196  38.567  25.844  1.00  0.00    -0.191 NA
HETATM    2  C   LIG     1      17.150  37.872  24.921  1.00  0.00     0.103 C 
HETATM    3  C   LIG     1      17.091  37.004  23.767  1.00  0.00     0.088 A 
HETATM    4  C   LIG     1      17.140  35.605  23.928  1.00  0.00     0.056 A 
HETATM    5 CL   LIG     1      17.271  34.868  25.523  1.00  0.00    -0.083 Cl
HETATM    6  C   LIG     1      17.083  34.770  22.806  1.00  0.00     0.025 A 
HETATM    7  C   LIG     1      16.979  35.319  21.527  1.00  0.00     0.003 A 
HETATM    8  C   LIG     1      16.930  36.704  21.360  1.00  0.00     0.025 A 
HETATM    9  C   LIG     1      16.986  37.551  22.473  1.00  0.00     0.056 A 
HETATM   10 CL   LIG     1      16.921  39.292  22.213  1.00  0.00    -0.083 Cl
ENDROOT
TORSDOF 0
ENDMDL
MODEL 2
REMARK VINA RESULT:      -5.9      3.078      3.868
REMARK  0 active torsions:
REMARK  status: ('A' for Active; 'I' for Inactive)
ROOT
HETATM    1  N   LIG     1      18.327  36.577  18.621  1.00  0.00    -0.191 NA
HETATM    2  C   LIG     1      18.065  36.858  19.712  1.00  0.00     0.103 C 
HETATM    3  C   LIG     1      17.739  37.210  21.074  1.00  0.00     0.088 A 
HETATM    4  C   LIG     1      17.050  36.297  21.897  1.00  0.00     0.056 A 
HETATM    5 CL   LIG     1      16.566  34.710  21.305  1.00  0.00    -0.083 Cl
HETATM    6  C   LIG     1      16.737  36.645  23.216  1.00  0.00     0.025 A 
HETATM    7  C   LIG     1      17.104  37.894  23.720  1.00  0.00     0.003 A 
HETATM    8  C   LIG     1      17.787  38.803  22.910  1.00  0.00     0.025 A 
HETATM    9  C   LIG     1      18.107  38.469  21.589  1.00  0.00     0.056 A 
HETATM   10 CL   LIG     1      18.969  39.649  20.605  1.00  0.00    -0.083 Cl
ENDROOT
TORSDOF 0
ENDMDL
MODEL 3
REMARK VINA RESULT:      -5.9      2.328      3.230
REMARK  0 active torsions:
REMARK  status: ('A' for Active; 'I' for Inactive)
ROOT
HETATM    1  N   LIG     1      16.036  38.799  22.661  1.00  0.00    -0.191 NA
HETATM    2  C   LIG     1      16.460  38.012  23.395  1.00  0.00     0.103 C 
HETATM    3  C   LIG     1      16.990  37.030  24.312  1.00  0.00     0.088 A 
HETATM    4  C   LIG     1      17.066  35.675  23.934  1.00  0.00     0.056 A 
HETATM    5 CL   LIG     1      16.526  35.132  22.347  1.00  0.00    -0.083 Cl
HETATM    6  C   LIG     1      17.580  34.728  24.827  1.00  0.00     0.025 A 
HETATM    7  C   LIG     1      18.018  35.122  26.093  1.00  0.00     0.003 A 
HETATM    8  C   LIG     1      17.945  36.463  26.474  1.00  0.00     0.025 A 
HETATM    9  C   LIG     1      17.433  37.421  25.591  1.00  0.00     0.056 A 
HETATM   10 CL   LIG     1      17.360  39.101  26.116  1.00  0.00    -0.083 Cl
ENDROOT
TORSDOF 0
ENDMDL
MODEL 4
REMARK VINA RESULT:      -5.8      8.875     10.053
REMARK  0 active torsions:
REMARK  status: ('A' for Active; 'I' for Inactive)
ROOT
HETATM    1  N   LIG     1      17.538  32.694  14.611  1.00  0.00    -0.191 NA
HETATM    2  C   LIG     1      16.515  32.302  14.981  1.00  0.00     0.103 C 
HETATM    3  C   LIG     1      15.237  31.811  15.444  1.00  0.00     0.088 A 
HETATM    4  C   LIG     1      14.649  30.683  14.838  1.00  0.00     0.056 A 
HETATM    5 CL   LIG     1      15.438  29.836  13.511  1.00  0.00    -0.083 Cl
HETATM    6  C   LIG     1      13.410  30.213  15.291  1.00  0.00     0.025 A 
HETATM    7  C   LIG     1      12.755  30.859  16.342  1.00  0.00     0.003 A 
HETATM    8  C   LIG     1      13.333  31.977  16.946  1.00  0.00     0.025 A 
HETATM    9  C   LIG     1      14.571  32.458  16.503  1.00  0.00     0.056 A 
HETATM   10 CL   LIG     1      15.259  33.872  17.297  1.00  0.00    -0.083 Cl
ENDROOT
TORSDOF 0
ENDMDL
MODEL 5
REMARK VINA RESULT:      -5.8      3.085      4.170
REMARK  0 active torsions:
REMARK  status: ('A' for Active; 'I' for Inactive)
ROOT
HETATM    1  N   LIG     1      16.465  34.789  20.605  1.00  0.00    -0.191 NA
HETATM    2  C   LIG     1      16.900  35.829  20.864  1.00  0.00     0.103 C 
HETATM    3  C   LIG     1      17.443  37.127  21.188  1.00  0.00     0.088 A 
HETATM    4  C   LIG     1      16.811  37.942  22.149  1.00  0.00     0.056 A 
HETATM    5 CL   LIG     1      15.351  37.415  22.982  1.00  0.00    -0.083 Cl
HETATM    6  C   LIG     1      17.342  39.199  22.457  1.00  0.00     0.025 A 
HETATM    7  C   LIG     1      18.498  39.650  21.817  1.00  0.00     0.003 A 
HETATM    8  C   LIG     1      19.130  38.848  20.865  1.00  0.00     0.025 A 
HETATM    9  C   LIG     1      18.610  37.588  20.546  1.00  0.00     0.056 A 
HETATM   10 CL   LIG     1      19.441  36.613  19.338  1.00  0.00    -0.083 Cl
ENDROOT
TORSDOF 0
ENDMDL
MODEL 6
REMARK VINA RESULT:      -5.6      2.040      3.468
REMARK  0 active torsions:
REMARK  status: ('A' for Active; 'I' for Inactive)
ROOT
HETATM    1  N   LIG     1      16.077  37.896  24.243  1.00  0.00    -0.191 NA
HETATM    2  C   LIG     1      16.622  37.699  23.242  1.00  0.00     0.103 C 
HETATM    3  C   LIG     1      17.302  37.453  21.992  1.00  0.00     0.088 A 
HETATM    4  C   LIG     1      18.149  38.436  21.439  1.00  0.00     0.056 A 
HETATM    5 CL   LIG     1      18.407  39.982  22.242  1.00  0.00    -0.083 Cl
HETATM    6  C   LIG     1      18.804  38.191  20.227  1.00  0.00     0.025 A 
HETATM    7  C   LIG     1      18.623  36.976  19.563  1.00  0.00     0.003 A 
HETATM    8  C   LIG     1      17.786  36.000  20.104  1.00  0.00     0.025 A 
HETATM    9  C   LIG     1      17.124  36.230  21.316  1.00  0.00     0.056 A 
HETATM   10 CL   LIG     1      16.078  34.967  21.960  1.00  0.00    -0.083 Cl
ENDROOT
TORSDOF 0
ENDMDL
MODEL 7
REMARK VINA RESULT:      -5.6      2.085      2.582
REMARK  0 active torsions:
REMARK  status: ('A' for Active; 'I' for Inactive)
ROOT
HETATM    1  N   LIG     1      16.106  37.995  24.164  1.00  0.00    -0.191 NA
HETATM    2  C   LIG     1      16.648  37.773  23.166  1.00  0.00     0.103 C 
HETATM    3  C   LIG     1      17.323  37.496  21.920  1.00  0.00     0.088 A 
HETATM    4  C   LIG     1      17.109  36.273  21.253  1.00  0.00     0.056 A 
HETATM    5 CL   LIG     1      16.022  35.050  21.904  1.00  0.00    -0.083 Cl
HETATM    6  C   LIG     1      17.768  36.011  20.046  1.00  0.00     0.025 A 
HETATM    7  C   LIG     1      18.637  36.958  19.500  1.00  0.00     0.003 A 
HETATM    8  C   LIG     1      18.853  38.171  20.155  1.00  0.00     0.025 A 
HETATM    9  C   LIG     1      18.202  38.447  21.363  1.00  0.00     0.056 A 
HETATM   10 CL   LIG     1      18.507  39.991  22.153  1.00  0.00    -0.083 Cl
ENDROOT
TORSDOF 0
ENDMDL
MODEL 8
REMARK VINA RESULT:      -5.6      2.226      2.861
REMARK  0 active torsions:
REMARK  status: ('A' for Active; 'I' for Inactive)
ROOT
HETATM    1  N   LIG     1      17.158  34.753  25.657  1.00  0.00    -0.191 NA
HETATM    2  C   LIG     1      17.185  35.585  24.853  1.00  0.00     0.103 C 
HETATM    3  C   LIG     1      17.218  36.623  23.850  1.00  0.00     0.088 A 
HETATM    4  C   LIG     1      17.164  36.291  22.482  1.00  0.00     0.056 A 
HETATM    5 CL   LIG     1      17.056  34.616  21.947  1.00  0.00    -0.083 Cl
HETATM    6  C   LIG     1      17.197  37.303  21.516  1.00  0.00     0.025 A 
HETATM    7  C   LIG     1      17.283  38.641  21.903  1.00  0.00     0.003 A 
HETATM    8  C   LIG     1      17.336  38.978  23.256  1.00  0.00     0.025 A 
HETATM    9  C   LIG     1      17.304  37.977  24.234  1.00  0.00     0.056 A 
HETATM   10 CL   LIG     1      17.374  38.450  25.929  1.00  0.00    -0.083 Cl
ENDROOT
TORSDOF 0
ENDMDL
MODEL 9
REMARK VINA RESULT:      -5.6      2.211      3.035
REMARK  0 active torsions:
REMARK  status: ('A' for Active; 'I' for Inactive)
ROOT
HETATM    1  N   LIG     1      17.196  34.792  25.704  1.00  0.00    -0.191 NA
HETATM    2  C   LIG     1      17.210  35.615  24.892  1.00  0.00     0.103 C 
HETATM    3  C   LIG     1      17.228  36.643  23.877  1.00  0.00     0.088 A 
HETATM    4  C   LIG     1      17.303  38.002  24.245  1.00  0.00     0.056 A 
HETATM    5 CL   LIG     1      17.378  38.493  25.935  1.00  0.00    -0.083 Cl
HETATM    6  C   LIG     1      17.319  38.993  23.257  1.00  0.00     0.025 A 
HETATM    7  C   LIG     1      17.261  38.640  21.907  1.00  0.00     0.003 A 
HETATM    8  C   LIG     1      17.187  37.297  21.536  1.00  0.00     0.025 A 
HETATM    9  C   LIG     1      17.170  36.294  22.513  1.00  0.00     0.056 A 
HETATM   10 CL   LIG     1      17.075  34.613  21.997  1.00  0.00    -0.083 Cl
ENDROOT
TORSDOF 0
ENDMDL
MODEL 10
REMARK VINA RESULT:      -5.5      2.551      3.553
REMARK  0 active torsions:
REMARK  status: ('A' for Active; 'I' for Inactive)
ROOT
HETATM    1  N   LIG     1      18.905  39.896  20.723  1.00  0.00    -0.191 NA
HETATM    2  C   LIG     1      18.424  38.898  21.056  1.00  0.00     0.103 C 
HETATM    3  C   LIG     1      17.824  37.652  21.471  1.00  0.00     0.088 A 
HETATM    4  C   LIG     1      17.771  36.558  20.582  1.00  0.00     0.056 A 
HETATM    5 CL   LIG     1      18.428  36.667  18.951  1.00  0.00    -0.083 Cl
HETATM    6  C   LIG     1      17.187  35.354  20.991  1.00  0.00     0.025 A 
HETATM    7  C   LIG     1      16.656  35.231  22.277  1.00  0.00     0.003 A 
HETATM    8  C   LIG     1      16.705  36.309  23.161  1.00  0.00     0.025 A 
HETATM    9  C   LIG     1      17.286  37.520  22.766  1.00  0.00     0.056 A 
HETATM   10 CL   LIG     1      17.324  38.853  23.917  1.00  0.00    -0.083 Cl
ENDROOT
TORSDOF 0
ENDMDL
MODEL 11
REMARK VINA RESULT:      -5.5      8.595      9.955
REMARK  0 active torsions:
REMARK  status: ('A' for Active; 'I' for Inactive)
ROOT
HETATM    1  N   LIG     1      15.592  34.383  17.105  1.00  0.00    -0.191 NA
HETATM    2  C   LIG     1      15.439  33.462  16.423  1.00  0.00     0.103 C 
HETATM    3  C   LIG     1      15.249  32.311  15.571  1.00  0.00     0.088 A 
HETATM    4  C   LIG     1      16.021  32.158  14.402  1.00  0.00     0.056 A 
HETATM    5 CL   LIG     1      17.234  33.349  13.939  1.00  0.00    -0.083 Cl
HETATM    6  C   LIG     1      15.831  31.041  13.580  1.00  0.00     0.025 A 
HETATM    7  C   LIG     1      14.879  30.076  13.915  1.00  0.00     0.003 A 
HETATM    8  C   LIG     1      14.111  30.222  15.071  1.00  0.00     0.025 A 
HETATM    9  C   LIG     1      14.290  31.334  15.903  1.00  0.00     0.056 A 
HETATM   10 CL   LIG     1      13.298  31.474  17.352  1.00  0.00    -0.083 Cl
ENDROOT
TORSDOF 0
ENDMDL
MODEL 12
REMARK VINA RESULT:      -5.5      8.547      9.649
REMARK  0 active torsions:
REMARK  status: ('A' for Active; 'I' for Inactive)
ROOT
HETATM    1  N   LIG     1      15.485  34.369  17.246  1.00  0.00    -0.191 NA
HETATM    2  C   LIG     1      15.388  33.480  16.512  1.00  0.00     0.103 C 
HETATM    3  C   LIG     1      15.266  32.370  15.596  1.00  0.00     0.088 A 
HETATM    4  C   LIG     1      14.299  31.369  15.818  1.00  0.00     0.056 A 
HETATM    5 CL   LIG     1      13.214  31.432  17.204  1.00  0.00    -0.083 Cl
HETATM    6  C   LIG     1      14.187  30.296  14.926  1.00  0.00     0.025 A 
HETATM    7  C   LIG     1      15.030  30.214  13.816  1.00  0.00     0.003 A 
HETATM    8  C   LIG     1      15.990  31.202  13.590  1.00  0.00     0.025 A 
HETATM    9  C   LIG     1      16.113  32.281  14.474  1.00  0.00     0.056 A 
HETATM   10 CL   LIG     1      17.339  33.503  14.147  1.00  0.00    -0.083 Cl
ENDROOT
TORSDOF 0
ENDMDL
MODEL 13
REMARK VINA RESULT:      -4.8      8.996     10.072
REMARK  0 active torsions:
REMARK  status: ('A' for Active; 'I' for Inactive)
ROOT
HETATM    1  N   LIG     1      15.607  29.864  13.361  1.00  0.00    -0.191 NA
HETATM    2  C   LIG     1      15.461  30.677  14.170  1.00  0.00     0.103 C 
HETATM    3  C   LIG     1      15.278  31.692  15.181  1.00  0.00     0.088 A 
HETATM    4  C   LIG     1      14.206  31.602  16.092  1.00  0.00     0.056 A 
HETATM    5 CL   LIG     1      13.061  30.264  16.034  1.00  0.00    -0.083 Cl
HETATM    6  C   LIG     1      14.034  32.590  17.068  1.00  0.00     0.025 A 
HETATM    7  C   LIG     1      14.922  33.665  17.144  1.00  0.00     0.003 A 
HETATM    8  C   LIG     1      15.985  33.760  16.246  1.00  0.00     0.025 A 
HETATM    9  C   LIG     1      16.170  32.780  15.263  1.00  0.00     0.056 A 
HETATM   10 CL   LIG     1      17.526  32.943  14.151  1.00  0.00    -0.083 Cl
ENDROOT
TORSDOF 0
ENDMDL
MODEL 14
REMARK VINA RESULT:      -4.1      3.746      5.127
REMARK  0 active torsions:
REMARK  status: ('A' for Active; 'I' for Inactive)
ROOT
HETATM    1  N   LIG     1      15.587  34.571  17.959  1.00  0.00    -0.191 NA
HETATM    2  C   LIG     1      15.942  34.912  19.006  1.00  0.00     0.103 C 
HETATM    3  C   LIG     1      16.384  35.338  20.313  1.00  0.00     0.088 A 
HETATM    4  C   LIG     1      17.419  36.286  20.438  1.00  0.00     0.056 A 
HETATM    5 CL   LIG     1      18.205  36.980  19.022  1.00  0.00    -0.083 Cl
HETATM    6  C   LIG     1      17.843  36.693  21.708  1.00  0.00     0.025 A 
HETATM    7  C   LIG     1      17.244  36.164  22.852  1.00  0.00     0.003 A 
HETATM    8  C   LIG     1      16.218  35.226  22.736  1.00  0.00     0.025 A 
HETATM    9  C   LIG     1      15.783  34.808  21.472  1.00  0.00     0.056 A 
HETATM   10 CL   LIG     1      14.485  33.621  21.375  1.00  0.00    -0.083 Cl
ENDROOT
TORSDOF 0
ENDMDL
MODEL 15
REMARK VINA RESULT:      -3.9      6.188      7.284
REMARK  0 active torsions:
REMARK  status: ('A' for Active; 'I' for Inactive)
ROOT
HETATM    1  N   LIG     1      14.693  30.528  20.647  1.00  0.00    -0.191 NA
HETATM    2  C   LIG     1      14.781  31.366  19.854  1.00  0.00     0.103 C 
HETATM    3  C   LIG     1      14.890  32.412  18.864  1.00  0.00     0.088 A 
HETATM    4  C   LIG     1      14.440  32.193  17.547  1.00  0.00     0.056 A 
HETATM    5 CL   LIG     1      13.733  30.653  17.062  1.00  0.00    -0.083 Cl
HETATM    6  C   LIG     1      14.550  33.210  16.593  1.00  0.00     0.025 A 
HETATM    7  C   LIG     1      15.105  34.443  16.941  1.00  0.00     0.003 A 
HETATM    8  C   LIG     1      15.553  34.667  18.243  1.00  0.00     0.025 A 
HETATM    9  C   LIG     1      15.450  33.658  19.209  1.00  0.00     0.056 A 
HETATM   10 CL   LIG     1      16.029  33.987  20.839  1.00  0.00    -0.083 Cl
ENDROOT
TORSDOF 0
ENDMDL
MODEL 16
REMARK VINA RESULT:      -3.7     17.146     18.161
REMARK  0 active torsions:
REMARK  status: ('A' for Active; 'I' for Inactive)
ROOT
HETATM    1  N   LIG     1      29.829  30.193  34.248  1.00  0.00    -0.191 NA
HETATM    2  C   LIG     1      29.116  30.588  35.069  1.00  0.00     0.103 C 
HETATM    3  C   LIG     1      28.226  31.080  36.094  1.00  0.00     0.088 A 
HETATM    4  C   LIG     1      26.854  30.758  36.058  1.00  0.00     0.056 A 
HETATM    5 CL   LIG     1      26.179  29.755  34.777  1.00  0.00    -0.083 Cl
HETATM    6  C   LIG     1      25.998  31.239  37.055  1.00  0.00     0.025 A 
HETATM    7  C   LIG     1      26.497  32.038  38.086  1.00  0.00     0.003 A 
HETATM    8  C   LIG     1      27.854  32.360  38.128  1.00  0.00     0.025 A 
HETATM    9  C   LIG     1      28.723  31.886  37.138  1.00  0.00     0.056 A 
HETATM   10 CL   LIG     1      30.428  32.319  37.233  1.00  0.00    -0.083 Cl
ENDROOT
TORSDOF 0
ENDMDL
MODEL 17
REMARK VINA RESULT:      -3.5     16.982     17.824
REMARK  0 active torsions:
REMARK  status: ('A' for Active; 'I' for Inactive)
ROOT
HETATM    1  N   LIG     1      30.389  32.219  37.428  1.00  0.00    -0.191 NA
HETATM    2  C   LIG     1      29.490  31.742  36.879  1.00  0.00     0.103 C 
HETATM    3  C   LIG     1      28.368  31.145  36.193  1.00  0.00     0.088 A 
HETATM    4  C   LIG     1      28.574  30.375  35.031  1.00  0.00     0.056 A 
HETATM    5 CL   LIG     1      30.188  30.112  34.376  1.00  0.00    -0.083 Cl
HETATM    6  C   LIG     1      27.481  29.801  34.371  1.00  0.00     0.025 A 
HETATM    7  C   LIG     1      26.187  29.988  34.860  1.00  0.00     0.003 A 
HETATM    8  C   LIG     1      25.976  30.749  36.011  1.00  0.00     0.025 A 
HETATM    9  C   LIG     1      27.059  31.330  36.682  1.00  0.00     0.056 A 
HETATM   10 CL   LIG     1      26.744  32.282  38.129  1.00  0.00    -0.083 Cl
ENDROOT
TORSDOF 0
ENDMDL
MODEL 18
REMARK VINA RESULT:      -3.4     15.934     16.861
REMARK  0 active torsions:
REMARK  status: ('A' for Active; 'I' for Inactive)
ROOT
HETATM    1  N   LIG     1      26.507  21.737  17.962  1.00  0.00    -0.191 NA
HETATM    2  C   LIG     1      25.661  21.976  18.715  1.00  0.00     0.103 C 
HETATM    3  C   LIG     1      24.605  22.272  19.654  1.00  0.00     0.088 A 
HETATM    4  C   LIG     1      23.284  21.860  19.391  1.00  0.00     0.056 A 
HETATM    5 CL   LIG     1      22.873  20.975  17.924  1.00  0.00    -0.083 Cl
HETATM    6  C   LIG     1      22.266  22.152  20.305  1.00  0.00     0.025 A 
HETATM    7  C   LIG     1      22.554  22.851  21.479  1.00  0.00     0.003 A 
HETATM    8  C   LIG     1      23.860  23.263  21.746  1.00  0.00     0.025 A 
HETATM    9  C   LIG     1      24.890  22.978  20.840  1.00  0.00     0.056 A 
HETATM   10 CL   LIG     1      26.522  23.518  21.221  1.00  0.00    -0.083 Cl
ENDROOT
TORSDOF 0
ENDMDL
MODEL 19
REMARK VINA RESULT:      -3.4     15.957     16.892
REMARK  0 active torsions:
REMARK  status: ('A' for Active; 'I' for Inactive)
ROOT
HETATM    1  N   LIG     1      26.471  21.648  17.912  1.00  0.00    -0.191 NA
HETATM    2  C   LIG     1      25.639  21.907  18.673  1.00  0.00     0.103 C 
HETATM    3  C   LIG     1      24.600  22.232  19.623  1.00  0.00     0.088 A 
HETATM    4  C   LIG     1      24.908  22.957  20.791  1.00  0.00     0.056 A 
HETATM    5 CL   LIG     1      26.551  23.492  21.135  1.00  0.00    -0.083 Cl
HETATM    6  C   LIG     1      23.896  23.267  21.708  1.00  0.00     0.025 A 
HETATM    7  C   LIG     1      22.582  22.860  21.468  1.00  0.00     0.003 A 
HETATM    8  C   LIG     1      22.271  22.141  20.314  1.00  0.00     0.025 A 
HETATM    9  C   LIG     1      23.272  21.824  19.388  1.00  0.00     0.056 A 
HETATM   10 CL   LIG     1      22.831  20.915  17.945  1.00  0.00    -0.083 Cl
ENDROOT
TORSDOF 0
ENDMDL
MODEL 20
REMARK VINA RESULT:      -3.3     16.398     16.540
REMARK  0 active torsions:
REMARK  status: ('A' for Active; 'I' for Inactive)
ROOT
HETATM    1  N   LIG     1      25.914  22.973  23.050  1.00  0.00    -0.191 NA
HETATM    2  C   LIG     1      25.408  22.769  22.030  1.00  0.00     0.103 C 
HETATM    3  C   LIG     1      24.775  22.516  20.757  1.00  0.00     0.088 A 
HETATM    4  C   LIG     1      23.484  21.952  20.705  1.00  0.00     0.056 A 
HETATM    5 CL   LIG     1      22.602  21.541  22.173  1.00  0.00    -0.083 Cl
HETATM    6  C   LIG     1      22.878  21.709  19.468  1.00  0.00     0.025 A 
HETATM    7  C   LIG     1      23.547  22.022  18.283  1.00  0.00     0.003 A 
HETATM    8  C   LIG     1      24.825  22.580  18.327  1.00  0.00     0.025 A 
HETATM    9  C   LIG     1      25.445  22.829  19.557  1.00  0.00     0.056 A 
HETATM   10 CL   LIG     1      27.059  23.535  19.562  1.00  0.00    -0.083 Cl
ENDROOT
TORSDOF 0
ENDMDL
