REMARK  0 active torsions:
REMARK  status: ('A' for Active; 'I' for Inactive)
ROOT
HETATM    1  N   LIG     1       3.582   0.113   0.564  1.00  0.00    -0.191 NA
HETATM    2  C   LIG     1       2.440   0.077   0.384  1.00  0.00     0.103 C 
HETATM    3  C   LIG     1       1.014   0.032   0.160  1.00  0.00     0.088 A 
HETATM    4  C   LIG     1       0.349  -1.207   0.065  1.00  0.00     0.056 A 
HETATM    5 CL   LIG     1       1.220  -2.731   0.215  1.00  0.00    -0.083 Cl
HETATM    6  C   LIG     1      -1.033  -1.243  -0.153  1.00  0.00     0.025 A 
HETATM    7  C   LIG     1      -1.756  -0.055  -0.277  1.00  0.00     0.003 A 
HETATM    8  C   LIG     1      -1.104   1.175  -0.184  1.00  0.00     0.025 A 
HETATM    9  C   LIG     1       0.278   1.227   0.034  1.00  0.00     0.056 A 
HETATM   10 CL   LIG     1       1.057   2.803   0.144  1.00  0.00    -0.083 Cl
ENDROOT
TORSDOF 0
