MODEL 1
REMARK VINA RESULT:      -8.1      0.000      0.000
REMARK  0 active torsions:
REMARK  status: ('A' for Active; 'I' for Inactive)
ROOT
HETATM    1  C   LIG     1      16.038  34.522  20.819  1.00  0.00     0.070 C 
HETATM    2  C   LIG     1      16.494  35.387  21.953  1.00  0.00     0.032 A 
HETATM    3  N   LIG     1      16.835  34.805  23.132  1.00  0.00    -0.253 NA
HETATM    4  C   LIG     1      17.256  35.531  24.200  1.00  0.00     0.068 A 
HETATM    5  C   LIG     1      17.594  34.875  25.390  1.00  0.00     0.032 A 
HETATM    6  C   LIG     1      18.029  35.607  26.496  1.00  0.00     0.002 A 
HETATM    7  C   LIG     1      18.128  36.998  26.420  1.00  0.00     0.001 A 
HETATM    8  C   LIG     1      17.794  37.666  25.239  1.00  0.00     0.014 A 
HETATM    9  C   LIG     1      17.353  36.942  24.111  1.00  0.00    -0.001 A 
HETATM   10  C   LIG     1      17.003  37.571  22.892  1.00  0.00    -0.048 A 
HETATM   11  C   LIG     1      17.079  39.066  22.717  1.00  0.00     0.049 C 
HETATM   12  C   LIG     1      16.573  36.779  21.814  1.00  0.00     0.034 A 
ENDROOT
TORSDOF 0
ENDMDL
MODEL 2
REMARK VINA RESULT:      -8.0      1.343      2.910
REMARK  0 active torsions:
REMARK  status: ('A' for Active; 'I' for Inactive)
ROOT
HETATM    1  C   LIG     1      17.940  39.653  21.932  1.00  0.00     0.070 C 
HETATM    2  C   LIG     1      17.717  38.372  22.674  1.00  0.00     0.032 A 
HETATM    3  N   LIG     1      18.109  38.283  23.972  1.00  0.00    -0.253 NA
HETATM    4  C   LIG     1      17.936  37.151  24.703  1.00  0.00     0.068 A 
HETATM    5  C   LIG     1      18.361  37.120  26.036  1.00  0.00     0.032 A 
HETATM    6  C   LIG     1      18.190  35.965  26.801  1.00  0.00     0.002 A 
HETATM    7  C   LIG     1      17.594  34.834  26.237  1.00  0.00     0.001 A 
HETATM    8  C   LIG     1      17.165  34.851  24.907  1.00  0.00     0.014 A 
HETATM    9  C   LIG     1      17.330  36.011  24.119  1.00  0.00    -0.001 A 
HETATM   10  C   LIG     1      16.913  36.080  22.768  1.00  0.00    -0.048 A 
HETATM   11  C   LIG     1      16.260  34.910  22.076  1.00  0.00     0.049 C 
HETATM   12  C   LIG     1      17.112  37.271  22.052  1.00  0.00     0.034 A 
ENDROOT
TORSDOF 0
ENDMDL
MODEL 3
REMARK VINA RESULT:      -7.8      2.386      4.121
REMARK  0 active torsions:
REMARK  status: ('A' for Active; 'I' for Inactive)
ROOT
HETATM    1  C   LIG     1      15.647  34.025  20.698  1.00  0.00     0.070 C 
HETATM    2  C   LIG     1      16.391  35.298  20.963  1.00  0.00     0.032 A 
HETATM    3  N   LIG     1      17.309  35.726  20.058  1.00  0.00    -0.253 NA
HETATM    4  C   LIG     1      18.019  36.871  20.236  1.00  0.00     0.068 A 
HETATM    5  C   LIG     1      18.952  37.261  19.267  1.00  0.00     0.032 A 
HETATM    6  C   LIG     1      19.689  38.435  19.436  1.00  0.00     0.002 A 
HETATM    7  C   LIG     1      19.498  39.224  20.572  1.00  0.00     0.001 A 
HETATM    8  C   LIG     1      18.570  38.846  21.547  1.00  0.00     0.014 A 
HETATM    9  C   LIG     1      17.817  37.663  21.393  1.00  0.00    -0.001 A 
HETATM   10  C   LIG     1      16.865  37.236  22.351  1.00  0.00    -0.048 A 
HETATM   11  C   LIG     1      16.592  38.023  23.607  1.00  0.00     0.049 C 
HETATM   12  C   LIG     1      16.155  36.046  22.123  1.00  0.00     0.034 A 
ENDROOT
TORSDOF 0
ENDMDL
MODEL 4
REMARK VINA RESULT:      -7.7      2.372      4.973
REMARK  0 active torsions:
REMARK  status: ('A' for Active; 'I' for Inactive)
ROOT
HETATM    1  C   LIG     1      17.182  38.191  25.275  1.00  0.00     0.070 C 
HETATM    2  C   LIG     1      17.414  37.800  23.848  1.00  0.00     0.032 A 
HETATM    3  N   LIG     1      18.103  38.644  23.037  1.00  0.00    -0.253 NA
HETATM    4  C   LIG     1      18.349  38.351  21.733  1.00  0.00     0.068 A 
HETATM    5  C   LIG     1      19.065  39.261  20.946  1.00  0.00     0.032 A 
HETATM    6  C   LIG     1      19.326  38.975  19.604  1.00  0.00     0.002 A 
HETATM    7  C   LIG     1      18.874  37.779  19.043  1.00  0.00     0.001 A 
HETATM    8  C   LIG     1      18.158  36.861  19.818  1.00  0.00     0.014 A 
HETATM    9  C   LIG     1      17.885  37.134  21.175  1.00  0.00    -0.001 A 
HETATM   10  C   LIG     1      17.164  36.239  22.002  1.00  0.00    -0.048 A 
HETATM   11  C   LIG     1      16.638  34.926  21.484  1.00  0.00     0.049 C 
HETATM   12  C   LIG     1      16.935  36.584  23.344  1.00  0.00     0.034 A 
ENDROOT
TORSDOF 0
ENDMDL
MODEL 5
REMARK VINA RESULT:      -6.7      1.614      4.073
REMARK  0 active torsions:
REMARK  status: ('A' for Active; 'I' for Inactive)
ROOT
HETATM    1  C   LIG     1      17.558  38.116  25.752  1.00  0.00     0.070 C 
HETATM    2  C   LIG     1      17.487  37.752  24.302  1.00  0.00     0.032 A 
HETATM    3  N   LIG     1      16.897  36.583  23.942  1.00  0.00    -0.253 NA
HETATM    4  C   LIG     1      16.800  36.192  22.644  1.00  0.00     0.068 A 
HETATM    5  C   LIG     1      16.180  34.975  22.336  1.00  0.00     0.032 A 
HETATM    6  C   LIG     1      16.072  34.560  21.007  1.00  0.00     0.002 A 
HETATM    7  C   LIG     1      16.582  35.358  19.981  1.00  0.00     0.001 A 
HETATM    8  C   LIG     1      17.203  36.575  20.275  1.00  0.00     0.014 A 
HETATM    9  C   LIG     1      17.321  37.011  21.612  1.00  0.00    -0.001 A 
HETATM   10  C   LIG     1      17.941  38.234  21.963  1.00  0.00    -0.048 A 
HETATM   11  C   LIG     1      18.520  39.160  20.924  1.00  0.00     0.049 C 
HETATM   12  C   LIG     1      18.018  38.596  23.317  1.00  0.00     0.034 A 
ENDROOT
TORSDOF 0
ENDMDL
MODEL 6
REMARK VINA RESULT:      -6.7      7.995     10.546
REMARK  0 active torsions:
REMARK  status: ('A' for Active; 'I' for Inactive)
ROOT
HETATM    1  C   LIG     1      18.485  33.675  13.367  1.00  0.00     0.070 C 
HETATM    2  C   LIG     1      17.317  33.084  14.095  1.00  0.00     0.032 A 
HETATM    3  N   LIG     1      16.733  31.960  13.605  1.00  0.00    -0.253 NA
HETATM    4  C   LIG     1      15.671  31.373  14.217  1.00  0.00     0.068 A 
HETATM    5  C   LIG     1      15.111  30.215  13.663  1.00  0.00     0.032 A 
HETATM    6  C   LIG     1      14.020  29.600  14.280  1.00  0.00     0.002 A 
HETATM    7  C   LIG     1      13.482  30.138  15.451  1.00  0.00     0.001 A 
HETATM    8  C   LIG     1      14.032  31.294  16.014  1.00  0.00     0.014 A 
HETATM    9  C   LIG     1      15.135  31.929  15.404  1.00  0.00    -0.001 A 
HETATM   10  C   LIG     1      15.727  33.101  15.934  1.00  0.00    -0.048 A 
HETATM   11  C   LIG     1      15.215  33.753  17.193  1.00  0.00     0.049 C 
HETATM   12  C   LIG     1      16.823  33.672  15.268  1.00  0.00     0.034 A 
ENDROOT
TORSDOF 0
ENDMDL
MODEL 7
REMARK VINA RESULT:      -6.5      1.396      3.959
REMARK  0 active torsions:
REMARK  status: ('A' for Active; 'I' for Inactive)
ROOT
HETATM    1  C   LIG     1      17.322  34.869  26.233  1.00  0.00     0.070 C 
HETATM    2  C   LIG     1      17.342  35.527  24.888  1.00  0.00     0.032 A 
HETATM    3  N   LIG     1      17.767  36.813  24.788  1.00  0.00    -0.253 NA
HETATM    4  C   LIG     1      17.811  37.470  23.600  1.00  0.00     0.068 A 
HETATM    5  C   LIG     1      18.258  38.796  23.560  1.00  0.00     0.032 A 
HETATM    6  C   LIG     1      18.309  39.483  22.346  1.00  0.00     0.002 A 
HETATM    7  C   LIG     1      17.913  38.851  21.166  1.00  0.00     0.001 A 
HETATM    8  C   LIG     1      17.464  37.527  21.191  1.00  0.00     0.014 A 
HETATM    9  C   LIG     1      17.406  36.817  22.409  1.00  0.00    -0.001 A 
HETATM   10  C   LIG     1      16.959  35.476  22.488  1.00  0.00    -0.048 A 
HETATM   11  C   LIG     1      16.512  34.712  21.268  1.00  0.00     0.049 C 
HETATM   12  C   LIG     1      16.932  34.838  23.739  1.00  0.00     0.034 A 
ENDROOT
TORSDOF 0
ENDMDL
MODEL 8
REMARK VINA RESULT:      -6.2      7.882     10.012
REMARK  0 active torsions:
REMARK  status: ('A' for Active; 'I' for Inactive)
ROOT
HETATM    1  C   LIG     1      18.113  34.051  13.444  1.00  0.00     0.070 C 
HETATM    2  C   LIG     1      17.081  33.189  14.103  1.00  0.00     0.032 A 
HETATM    3  N   LIG     1      16.662  33.502  15.357  1.00  0.00    -0.253 NA
HETATM    4  C   LIG     1      15.729  32.763  16.012  1.00  0.00     0.068 A 
HETATM    5  C   LIG     1      15.337  33.136  17.303  1.00  0.00     0.032 A 
HETATM    6  C   LIG     1      14.380  32.387  17.990  1.00  0.00     0.002 A 
HETATM    7  C   LIG     1      13.810  31.261  17.391  1.00  0.00     0.001 A 
HETATM    8  C   LIG     1      14.193  30.877  16.102  1.00  0.00     0.014 A 
HETATM    9  C   LIG     1      15.159  31.623  15.394  1.00  0.00    -0.001 A 
HETATM   10  C   LIG     1      15.581  31.277  14.087  1.00  0.00    -0.048 A 
HETATM   11  C   LIG     1      15.022  30.080  13.362  1.00  0.00     0.049 C 
HETATM   12  C   LIG     1      16.547  32.071  13.449  1.00  0.00     0.034 A 
ENDROOT
TORSDOF 0
ENDMDL
MODEL 9
REMARK VINA RESULT:      -5.6      6.824     10.293
REMARK  0 active torsions:
REMARK  status: ('A' for Active; 'I' for Inactive)
ROOT
HETATM    1  C   LIG     1      15.117  34.494  18.124  1.00  0.00     0.070 C 
HETATM    2  C   LIG     1      15.233  33.531  16.982  1.00  0.00     0.032 A 
HETATM    3  N   LIG     1      14.349  32.503  16.894  1.00  0.00    -0.253 NA
HETATM    4  C   LIG     1      14.397  31.594  15.885  1.00  0.00     0.068 A 
HETATM    5  C   LIG     1      13.459  30.556  15.847  1.00  0.00     0.032 A 
HETATM    6  C   LIG     1      13.495  29.615  14.817  1.00  0.00     0.002 A 
HETATM    7  C   LIG     1      14.468  29.706  13.819  1.00  0.00     0.001 A 
HETATM    8  C   LIG     1      15.411  30.738  13.844  1.00  0.00     0.014 A 
HETATM    9  C   LIG     1      15.390  31.698  14.878  1.00  0.00    -0.001 A 
HETATM   10  C   LIG     1      16.321  32.762  14.950  1.00  0.00    -0.048 A 
HETATM   11  C   LIG     1      17.406  32.940  13.919  1.00  0.00     0.049 C 
HETATM   12  C   LIG     1      16.232  33.676  16.011  1.00  0.00     0.034 A 
ENDROOT
TORSDOF 0
ENDMDL
MODEL 10
REMARK VINA RESULT:      -5.5      1.450      4.510
REMARK  0 active torsions:
REMARK  status: ('A' for Active; 'I' for Inactive)
ROOT
HETATM    1  C   LIG     1      17.263  39.619  26.210  1.00  0.00     0.070 C 
HETATM    2  C   LIG     1      17.239  38.325  25.457  1.00  0.00     0.032 A 
HETATM    3  N   LIG     1      16.802  38.317  24.171  1.00  0.00    -0.253 NA
HETATM    4  C   LIG     1      16.755  37.179  23.431  1.00  0.00     0.068 A 
HETATM    5  C   LIG     1      16.295  37.234  22.110  1.00  0.00     0.032 A 
HETATM    6  C   LIG     1      16.240  36.073  21.337  1.00  0.00     0.002 A 
HETATM    7  C   LIG     1      16.644  34.851  21.880  1.00  0.00     0.001 A 
HETATM    8  C   LIG     1      17.105  34.782  23.198  1.00  0.00     0.014 A 
HETATM    9  C   LIG     1      17.167  35.945  23.993  1.00  0.00    -0.001 A 
HETATM   10  C   LIG     1      17.626  35.929  25.333  1.00  0.00    -0.048 A 
HETATM   11  C   LIG     1      18.082  34.658  26.002  1.00  0.00     0.049 C 
HETATM   12  C   LIG     1      17.658  37.131  26.058  1.00  0.00     0.034 A 
ENDROOT
TORSDOF 0
ENDMDL
MODEL 11
REMARK VINA RESULT:      -5.5      7.857     10.122
REMARK  0 active torsions:
REMARK  status: ('A' for Active; 'I' for Inactive)
ROOT
HETATM    1  C   LIG     1      13.570  28.380  13.842  1.00  0.00     0.070 C 
HETATM    2  C   LIG     1      14.184  29.645  14.357  1.00  0.00     0.032 A 
HETATM    3  N   LIG     1      13.848  30.085  15.597  1.00  0.00    -0.253 NA
HETATM    4  C   LIG     1      14.369  31.223  16.125  1.00  0.00     0.068 A 
HETATM    5  C   LIG     1      13.984  31.626  17.410  1.00  0.00     0.032 A 
HETATM    6  C   LIG     1      14.510  32.794  17.966  1.00  0.00     0.002 A 
HETATM    7  C   LIG     1      15.423  33.564  17.243  1.00  0.00     0.001 A 
HETATM    8  C   LIG     1      15.816  33.173  15.959  1.00  0.00     0.014 A 
HETATM    9  C   LIG     1      15.294  31.996  15.381  1.00  0.00    -0.001 A 
HETATM   10  C   LIG     1      15.660  31.557  14.086  1.00  0.00    -0.048 A 
HETATM   11  C   LIG     1      16.637  32.323  13.232  1.00  0.00     0.049 C 
HETATM   12  C   LIG     1      15.096  30.374  13.582  1.00  0.00     0.034 A 
ENDROOT
TORSDOF 0
ENDMDL
