REMARK  0 active torsions:
REMARK  status: ('A' for Active; 'I' for Inactive)
ROOT
HETATM    1  C   LIG     1      -1.789   2.949  -0.697  1.00  0.00     0.070 C 
HETATM    2  C   LIG     1      -1.054   1.679  -0.398  1.00  0.00     0.032 A 
HETATM    3  N   LIG     1       0.304   1.693  -0.368  1.00  0.00    -0.253 NA
HETATM    4  C   LIG     1       1.032   0.577  -0.103  1.00  0.00     0.068 A 
HETATM    5  C   LIG     1       2.430   0.654  -0.086  1.00  0.00     0.032 A 
HETATM    6  C   LIG     1       3.192  -0.484   0.185  1.00  0.00     0.002 A 
HETATM    7  C   LIG     1       2.562  -1.704   0.440  1.00  0.00     0.001 A 
HETATM    8  C   LIG     1       1.167  -1.795   0.426  1.00  0.00     0.014 A 
HETATM    9  C   LIG     1       0.381  -0.655   0.154  1.00  0.00    -0.001 A 
HETATM   10  C   LIG     1      -1.034  -0.694   0.128  1.00  0.00    -0.048 A 
HETATM   11  C   LIG     1      -1.800  -1.965   0.391  1.00  0.00     0.049 C 
HETATM   12  C   LIG     1      -1.744   0.485  -0.150  1.00  0.00     0.034 A 
ENDROOT
TORSDOF 0
