MODEL 1
REMARK VINA RESULT:      -7.2      0.000      0.000
REMARK  4 active torsions:
REMARK  status: ('A' for Active; 'I' for Inactive)
REMARK    1  A    between atoms: C_2  and  C_3 
REMARK    2  A    between atoms: C_2  and  O_6 
REMARK    3  A    between atoms: C_3  and  O_4 
REMARK    4  A    between atoms: O_6  and  C_7 
ROOT
HETATM    1  C   LIG     1      17.293  37.687  22.252  1.00  0.00     0.091 A 
HETATM    2  C   LIG     1      17.974  38.920  22.328  1.00  0.00     0.040 A 
HETATM    3  C   LIG     1      18.897  39.279  21.341  1.00  0.00     0.026 A 
HETATM    4  C   LIG     1      19.155  38.416  20.274  1.00  0.00     0.035 A 
HETATM    5 CL   LIG     1      20.314  38.870  19.039  1.00  0.00    -0.084 Cl
HETATM    6  C   LIG     1      18.490  37.190  20.193  1.00  0.00     0.050 A 
HETATM    7  C   LIG     1      17.564  36.824  21.178  1.00  0.00     0.069 A 
HETATM    8 CL   LIG     1      16.743  35.277  21.049  1.00  0.00    -0.081 Cl
ENDROOT
BRANCH   1   9
HETATM    9  O   LIG     1      16.358  37.279  23.220  1.00  0.00    -0.334 OA
BRANCH   9  10
HETATM   10  C   LIG     1      16.662  36.776  24.521  1.00  0.00     0.222 C 
HETATM   11  C   LIG     1      17.415  35.446  24.420  1.00  0.00     0.051 C 
BRANCH  10  12
HETATM   12  C   LIG     1      17.511  37.784  25.235  1.00  0.00     0.170 C 
HETATM   13  O   LIG     1      17.027  38.898  25.567  1.00  0.00    -0.648 OA
BRANCH  12  14
HETATM   14  O   LIG     1      18.842  37.492  25.524  1.00  0.00    -0.774 OA
HETATM   15  H   LIG     1      19.260  37.784  26.400  1.00  0.00     0.167 HD
ENDBRANCH  12  14
ENDBRANCH  10  12
ENDBRANCH   9  10
ENDBRANCH   1   9
TORSDOF 4
ENDMDL
MODEL 2
REMARK VINA RESULT:      -6.9      2.586      4.785
REMARK  4 active torsions:
REMARK  status: ('A' for Active; 'I' for Inactive)
REMARK    1  A    between atoms: C_2  and  C_3 
REMARK    2  A    between atoms: C_2  and  O_6 
REMARK    3  A    between atoms: C_3  and  O_4 
REMARK    4  A    between atoms: O_6  and  C_7 
ROOT
HETATM    1  C   LIG     1      17.422  36.981  22.584  1.00  0.00     0.091 A 
HETATM    2  C   LIG     1      17.713  37.660  23.786  1.00  0.00     0.040 A 
HETATM    3  C   LIG     1      17.661  36.984  25.008  1.00  0.00     0.026 A 
HETATM    4  C   LIG     1      17.316  35.631  25.048  1.00  0.00     0.035 A 
HETATM    5 CL   LIG     1      17.251  34.787  26.584  1.00  0.00    -0.084 Cl
HETATM    6  C   LIG     1      17.021  34.952  23.863  1.00  0.00     0.050 A 
HETATM    7  C   LIG     1      17.072  35.623  22.636  1.00  0.00     0.069 A 
HETATM    8 CL   LIG     1      16.697  34.742  21.162  1.00  0.00    -0.081 Cl
ENDROOT
BRANCH   1   9
HETATM    9  O   LIG     1      17.458  37.617  21.330  1.00  0.00    -0.334 OA
BRANCH   9  10
HETATM   10  C   LIG     1      18.619  37.823  20.525  1.00  0.00     0.222 C 
HETATM   11  C   LIG     1      18.453  37.147  19.160  1.00  0.00     0.051 C 
BRANCH  10  12
HETATM   12  C   LIG     1      18.813  39.298  20.337  1.00  0.00     0.170 C 
HETATM   13  O   LIG     1      18.929  39.778  19.179  1.00  0.00    -0.648 OA
BRANCH  12  14
HETATM   14  O   LIG     1      18.873  40.138  21.446  1.00  0.00    -0.774 OA
HETATM   15  H   LIG     1      18.599  41.111  21.376  1.00  0.00     0.167 HD
ENDBRANCH  12  14
ENDBRANCH  10  12
ENDBRANCH   9  10
ENDBRANCH   1   9
TORSDOF 4
ENDMDL
MODEL 3
REMARK VINA RESULT:      -6.8      2.947      5.167
REMARK  4 active torsions:
REMARK  status: ('A' for Active; 'I' for Inactive)
REMARK    1  A    between atoms: C_2  and  C_3 
REMARK    2  A    between atoms: C_2  and  O_6 
REMARK    3  A    between atoms: C_3  and  O_4 
REMARK    4  A    between atoms: O_6  and  C_7 
ROOT
HETATM    1  C   LIG     1      16.862  36.342  22.995  1.00  0.00     0.091 A 
HETATM    2  C   LIG     1      17.057  35.123  23.679  1.00  0.00     0.040 A 
HETATM    3  C   LIG     1      17.523  35.120  24.997  1.00  0.00     0.026 A 
HETATM    4  C   LIG     1      17.803  36.325  25.646  1.00  0.00     0.035 A 
HETATM    5 CL   LIG     1      18.387  36.316  27.299  1.00  0.00    -0.084 Cl
HETATM    6  C   LIG     1      17.618  37.537  24.975  1.00  0.00     0.050 A 
HETATM    7  C   LIG     1      17.152  37.547  23.655  1.00  0.00     0.069 A 
HETATM    8 CL   LIG     1      16.928  39.086  22.838  1.00  0.00    -0.081 Cl
ENDROOT
BRANCH   1   9
HETATM    9  O   LIG     1      16.399  36.398  21.669  1.00  0.00    -0.334 OA
BRANCH   9  10
HETATM   10  C   LIG     1      16.932  35.672  20.561  1.00  0.00     0.222 C 
HETATM   11  C   LIG     1      15.806  35.220  19.625  1.00  0.00     0.051 C 
BRANCH  10  12
HETATM   12  C   LIG     1      17.878  36.565  19.817  1.00  0.00     0.170 C 
HETATM   13  O   LIG     1      18.580  37.404  20.443  1.00  0.00    -0.648 OA
BRANCH  12  14
HETATM   14  O   LIG     1      17.977  36.474  18.432  1.00  0.00    -0.774 OA
HETATM   15  H   LIG     1      17.204  36.749  17.836  1.00  0.00     0.167 HD
ENDBRANCH  12  14
ENDBRANCH  10  12
ENDBRANCH   9  10
ENDBRANCH   1   9
TORSDOF 4
ENDMDL
MODEL 4
REMARK VINA RESULT:      -6.7      3.010      5.225
REMARK  4 active torsions:
REMARK  status: ('A' for Active; 'I' for Inactive)
REMARK    1  A    between atoms: C_2  and  C_3 
REMARK    2  A    between atoms: C_2  and  O_6 
REMARK    3  A    between atoms: C_3  and  O_4 
REMARK    4  A    between atoms: O_6  and  C_7 
ROOT
HETATM    1  C   LIG     1      16.466  36.394  23.247  1.00  0.00     0.091 A 
HETATM    2  C   LIG     1      16.738  35.205  23.956  1.00  0.00     0.040 A 
HETATM    3  C   LIG     1      17.504  35.240  25.124  1.00  0.00     0.026 A 
HETATM    4  C   LIG     1      18.010  36.453  25.596  1.00  0.00     0.035 A 
HETATM    5 CL   LIG     1      18.971  36.492  27.063  1.00  0.00    -0.084 Cl
HETATM    6  C   LIG     1      17.751  37.635  24.898  1.00  0.00     0.050 A 
HETATM    7  C   LIG     1      16.984  37.607  23.727  1.00  0.00     0.069 A 
HETATM    8 CL   LIG     1      16.674  39.109  22.870  1.00  0.00    -0.081 Cl
ENDROOT
BRANCH   1   9
HETATM    9  O   LIG     1      15.703  36.411  22.065  1.00  0.00    -0.334 OA
BRANCH   9  10
HETATM   10  C   LIG     1      16.082  35.840  20.812  1.00  0.00     0.222 C 
HETATM   11  C   LIG     1      17.608  35.777  20.692  1.00  0.00     0.051 C 
BRANCH  10  12
HETATM   12  C   LIG     1      15.512  34.457  20.728  1.00  0.00     0.170 C 
HETATM   13  O   LIG     1      16.010  33.614  19.935  1.00  0.00    -0.648 OA
BRANCH  12  14
HETATM   14  O   LIG     1      14.424  34.103  21.521  1.00  0.00    -0.774 OA
HETATM   15  H   LIG     1      13.992  33.190  21.435  1.00  0.00     0.167 HD
ENDBRANCH  12  14
ENDBRANCH  10  12
ENDBRANCH   9  10
ENDBRANCH   1   9
TORSDOF 4
ENDMDL
MODEL 5
REMARK VINA RESULT:      -6.3      2.466      3.607
REMARK  4 active torsions:
REMARK  status: ('A' for Active; 'I' for Inactive)
REMARK    1  A    between atoms: C_2  and  C_3 
REMARK    2  A    between atoms: C_2  and  O_6 
REMARK    3  A    between atoms: C_3  and  O_4 
REMARK    4  A    between atoms: O_6  and  C_7 
ROOT
HETATM    1  C   LIG     1      17.667  37.247  21.083  1.00  0.00     0.091 A 
HETATM    2  C   LIG     1      18.336  36.584  20.033  1.00  0.00     0.040 A 
HETATM    3  C   LIG     1      19.339  37.237  19.311  1.00  0.00     0.026 A 
HETATM    4  C   LIG     1      19.683  38.555  19.622  1.00  0.00     0.035 A 
HETATM    5 CL   LIG     1      20.941  39.371  18.713  1.00  0.00    -0.084 Cl
HETATM    6  C   LIG     1      19.022  39.222  20.656  1.00  0.00     0.050 A 
HETATM    7  C   LIG     1      18.017  38.573  21.384  1.00  0.00     0.069 A 
HETATM    8 CL   LIG     1      17.204  39.437  22.679  1.00  0.00    -0.081 Cl
ENDROOT
BRANCH   1   9
HETATM    9  O   LIG     1      16.650  36.635  21.837  1.00  0.00    -0.334 OA
BRANCH   9  10
HETATM   10  C   LIG     1      16.469  35.230  22.019  1.00  0.00     0.222 C 
HETATM   11  C   LIG     1      16.692  34.846  23.485  1.00  0.00     0.051 C 
BRANCH  10  12
HETATM   12  C   LIG     1      15.071  34.874  21.611  1.00  0.00     0.170 C 
HETATM   13  O   LIG     1      14.674  33.681  21.688  1.00  0.00    -0.648 OA
BRANCH  12  14
HETATM   14  O   LIG     1      14.211  35.862  21.140  1.00  0.00    -0.774 OA
HETATM   15  H   LIG     1      13.817  36.552  21.769  1.00  0.00     0.167 HD
ENDBRANCH  12  14
ENDBRANCH  10  12
ENDBRANCH   9  10
ENDBRANCH   1   9
TORSDOF 4
ENDMDL
MODEL 6
REMARK VINA RESULT:      -6.3      2.043      2.781
REMARK  4 active torsions:
REMARK  status: ('A' for Active; 'I' for Inactive)
REMARK    1  A    between atoms: C_2  and  C_3 
REMARK    2  A    between atoms: C_2  and  O_6 
REMARK    3  A    between atoms: C_3  and  O_4 
REMARK    4  A    between atoms: O_6  and  C_7 
ROOT
HETATM    1  C   LIG     1      18.291  37.532  21.009  1.00  0.00     0.091 A 
HETATM    2  C   LIG     1      18.397  36.733  19.852  1.00  0.00     0.040 A 
HETATM    3  C   LIG     1      18.678  37.318  18.614  1.00  0.00     0.026 A 
HETATM    4  C   LIG     1      18.851  38.700  18.514  1.00  0.00     0.035 A 
HETATM    5 CL   LIG     1      19.203  39.430  16.958  1.00  0.00    -0.084 Cl
HETATM    6  C   LIG     1      18.743  39.500  19.654  1.00  0.00     0.050 A 
HETATM    7  C   LIG     1      18.462  38.921  20.897  1.00  0.00     0.069 A 
HETATM    8 CL   LIG     1      18.332  39.952  22.313  1.00  0.00    -0.081 Cl
ENDROOT
BRANCH   1   9
HETATM    9  O   LIG     1      18.007  36.992  22.277  1.00  0.00    -0.334 OA
BRANCH   9  10
HETATM   10  C   LIG     1      16.743  36.491  22.713  1.00  0.00     0.222 C 
HETATM   11  C   LIG     1      16.931  35.227  23.559  1.00  0.00     0.051 C 
BRANCH  10  12
HETATM   12  C   LIG     1      16.068  37.550  23.530  1.00  0.00     0.170 C 
HETATM   13  O   LIG     1      16.438  37.766  24.715  1.00  0.00    -0.648 OA
BRANCH  12  14
HETATM   14  O   LIG     1      15.024  38.291  22.983  1.00  0.00    -0.774 OA
HETATM   15  H   LIG     1      14.578  38.003  22.120  1.00  0.00     0.167 HD
ENDBRANCH  12  14
ENDBRANCH  10  12
ENDBRANCH   9  10
ENDBRANCH   1   9
TORSDOF 4
ENDMDL
MODEL 7
REMARK VINA RESULT:      -6.2      3.316      5.322
REMARK  4 active torsions:
REMARK  status: ('A' for Active; 'I' for Inactive)
REMARK    1  A    between atoms: C_2  and  C_3 
REMARK    2  A    between atoms: C_2  and  O_6 
REMARK    3  A    between atoms: C_3  and  O_4 
REMARK    4  A    between atoms: O_6  and  C_7 
ROOT
HETATM    1  C   LIG     1      18.018  38.088  21.258  1.00  0.00     0.091 A 
HETATM    2  C   LIG     1      18.452  39.040  22.205  1.00  0.00     0.040 A 
HETATM    3  C   LIG     1      18.191  38.851  23.565  1.00  0.00     0.026 A 
HETATM    4  C   LIG     1      17.496  37.719  23.997  1.00  0.00     0.035 A 
HETATM    5 CL   LIG     1      17.171  37.487  25.705  1.00  0.00    -0.084 Cl
HETATM    6  C   LIG     1      17.057  36.774  23.066  1.00  0.00     0.050 A 
HETATM    7  C   LIG     1      17.315  36.957  21.702  1.00  0.00     0.069 A 
HETATM    8 CL   LIG     1      16.752  35.751  20.555  1.00  0.00    -0.081 Cl
ENDROOT
BRANCH   1   9
HETATM    9  O   LIG     1      18.252  38.234  19.879  1.00  0.00    -0.334 OA
BRANCH   9  10
HETATM   10  C   LIG     1      19.078  39.225  19.267  1.00  0.00     0.222 C 
HETATM   11  C   LIG     1      20.537  38.758  19.228  1.00  0.00     0.051 C 
BRANCH  10  12
HETATM   12  C   LIG     1      18.586  39.458  17.871  1.00  0.00     0.170 C 
HETATM   13  O   LIG     1      18.252  40.616  17.503  1.00  0.00    -0.648 OA
BRANCH  12  14
HETATM   14  O   LIG     1      18.489  38.393  16.980  1.00  0.00    -0.774 OA
HETATM   15  H   LIG     1      17.949  38.476  16.127  1.00  0.00     0.167 HD
ENDBRANCH  12  14
ENDBRANCH  10  12
ENDBRANCH   9  10
ENDBRANCH   1   9
TORSDOF 4
ENDMDL
MODEL 8
REMARK VINA RESULT:      -6.1      7.117      8.610
REMARK  4 active torsions:
REMARK  status: ('A' for Active; 'I' for Inactive)
REMARK    1  A    between atoms: C_2  and  C_3 
REMARK    2  A    between atoms: C_2  and  O_6 
REMARK    3  A    between atoms: C_3  and  O_4 
REMARK    4  A    between atoms: O_6  and  C_7 
ROOT
HETATM    1  C   LIG     1      14.661  32.163  16.991  1.00  0.00     0.091 A 
HETATM    2  C   LIG     1      13.398  31.564  17.180  1.00  0.00     0.040 A 
HETATM    3  C   LIG     1      12.906  30.647  16.246  1.00  0.00     0.026 A 
HETATM    4  C   LIG     1      13.661  30.321  15.117  1.00  0.00     0.035 A 
HETATM    5 CL   LIG     1      13.039  29.169  13.949  1.00  0.00    -0.084 Cl
HETATM    6  C   LIG     1      14.911  30.913  14.920  1.00  0.00     0.050 A 
HETATM    7  C   LIG     1      15.409  31.832  15.850  1.00  0.00     0.069 A 
HETATM    8 CL   LIG     1      16.984  32.561  15.576  1.00  0.00    -0.081 Cl
ENDROOT
BRANCH   1   9
HETATM    9  O   LIG     1      15.198  33.094  17.899  1.00  0.00    -0.334 OA
BRANCH   9  10
HETATM   10  C   LIG     1      15.118  33.021  19.323  1.00  0.00     0.222 C 
HETATM   11  C   LIG     1      15.862  31.785  19.840  1.00  0.00     0.051 C 
BRANCH  10  12
HETATM   12  C   LIG     1      15.736  34.259  19.898  1.00  0.00     0.170 C 
HETATM   13  O   LIG     1      16.206  35.145  19.135  1.00  0.00    -0.648 OA
BRANCH  12  14
HETATM   14  O   LIG     1      15.798  34.428  21.279  1.00  0.00    -0.774 OA
HETATM   15  H   LIG     1      15.734  35.351  21.693  1.00  0.00     0.167 HD
ENDBRANCH  12  14
ENDBRANCH  10  12
ENDBRANCH   9  10
ENDBRANCH   1   9
TORSDOF 4
ENDMDL
MODEL 9
REMARK VINA RESULT:      -5.9      7.768      8.953
REMARK  4 active torsions:
REMARK  status: ('A' for Active; 'I' for Inactive)
REMARK    1  A    between atoms: C_2  and  C_3 
REMARK    2  A    between atoms: C_2  and  O_6 
REMARK    3  A    between atoms: C_3  and  O_4 
REMARK    4  A    between atoms: O_6  and  C_7 
ROOT
HETATM    1  C   LIG     1      16.114  32.502  15.224  1.00  0.00     0.091 A 
HETATM    2  C   LIG     1      16.921  33.631  15.479  1.00  0.00     0.040 A 
HETATM    3  C   LIG     1      17.667  34.212  14.449  1.00  0.00     0.026 A 
HETATM    4  C   LIG     1      17.622  33.674  13.160  1.00  0.00     0.035 A 
HETATM    5 CL   LIG     1      18.560  34.406  11.871  1.00  0.00    -0.084 Cl
HETATM    6  C   LIG     1      16.830  32.553  12.900  1.00  0.00     0.050 A 
HETATM    7  C   LIG     1      16.081  31.967  13.927  1.00  0.00     0.069 A 
HETATM    8 CL   LIG     1      15.094  30.558  13.570  1.00  0.00    -0.081 Cl
ENDROOT
BRANCH   1   9
HETATM    9  O   LIG     1      15.348  31.880  16.226  1.00  0.00    -0.334 OA
BRANCH   9  10
HETATM   10  C   LIG     1      14.347  32.507  17.029  1.00  0.00     0.222 C 
HETATM   11  C   LIG     1      12.992  31.822  16.828  1.00  0.00     0.051 C 
BRANCH  10  12
HETATM   12  C   LIG     1      14.756  32.403  18.467  1.00  0.00     0.170 C 
HETATM   13  O   LIG     1      15.619  33.192  18.938  1.00  0.00    -0.648 OA
BRANCH  12  14
HETATM   14  O   LIG     1      14.189  31.428  19.283  1.00  0.00    -0.774 OA
HETATM   15  H   LIG     1      13.193  31.242  19.255  1.00  0.00     0.167 HD
ENDBRANCH  12  14
ENDBRANCH  10  12
ENDBRANCH   9  10
ENDBRANCH   1   9
TORSDOF 4
ENDMDL
MODEL 10
REMARK VINA RESULT:      -5.9      2.941      4.383
REMARK  4 active torsions:
REMARK  status: ('A' for Active; 'I' for Inactive)
REMARK    1  A    between atoms: C_2  and  C_3 
REMARK    2  A    between atoms: C_2  and  O_6 
REMARK    3  A    between atoms: C_3  and  O_4 
REMARK    4  A    between atoms: O_6  and  C_7 
ROOT
HETATM    1  C   LIG     1      17.344  36.056  21.381  1.00  0.00     0.091 A 
HETATM    2  C   LIG     1      18.039  36.062  20.154  1.00  0.00     0.040 A 
HETATM    3  C   LIG     1      18.714  37.211  19.731  1.00  0.00     0.026 A 
HETATM    4  C   LIG     1      18.702  38.363  20.520  1.00  0.00     0.035 A 
HETATM    5 CL   LIG     1      19.551  39.802  19.985  1.00  0.00    -0.084 Cl
HETATM    6  C   LIG     1      18.012  38.369  21.735  1.00  0.00     0.050 A 
HETATM    7  C   LIG     1      17.334  37.222  22.164  1.00  0.00     0.069 A 
HETATM    8 CL   LIG     1      16.475  37.258  23.697  1.00  0.00    -0.081 Cl
ENDROOT
BRANCH   1   9
HETATM    9  O   LIG     1      16.647  34.928  21.849  1.00  0.00    -0.334 OA
BRANCH   9  10
HETATM   10  C   LIG     1      15.359  34.494  21.411  1.00  0.00     0.222 C 
HETATM   11  C   LIG     1      14.441  35.697  21.172  1.00  0.00     0.051 C 
BRANCH  10  12
HETATM   12  C   LIG     1      15.525  33.725  20.135  1.00  0.00     0.170 C 
HETATM   13  O   LIG     1      15.780  32.492  20.169  1.00  0.00    -0.648 OA
BRANCH  12  14
HETATM   14  O   LIG     1      15.404  34.376  18.910  1.00  0.00    -0.774 OA
HETATM   15  H   LIG     1      15.665  35.350  18.811  1.00  0.00     0.167 HD
ENDBRANCH  12  14
ENDBRANCH  10  12
ENDBRANCH   9  10
ENDBRANCH   1   9
TORSDOF 4
ENDMDL
MODEL 11
REMARK VINA RESULT:      -5.7      5.362      6.889
REMARK  4 active torsions:
REMARK  status: ('A' for Active; 'I' for Inactive)
REMARK    1  A    between atoms: C_2  and  C_3 
REMARK    2  A    between atoms: C_2  and  O_6 
REMARK    3  A    between atoms: C_3  and  O_4 
REMARK    4  A    between atoms: O_6  and  C_7 
ROOT
HETATM    1  C   LIG     1      15.281  33.129  18.725  1.00  0.00     0.091 A 
HETATM    2  C   LIG     1      15.248  33.633  17.408  1.00  0.00     0.040 A 
HETATM    3  C   LIG     1      14.627  32.905  16.390  1.00  0.00     0.026 A 
HETATM    4  C   LIG     1      14.037  31.669  16.669  1.00  0.00     0.035 A 
HETATM    5 CL   LIG     1      13.258  30.759  15.387  1.00  0.00    -0.084 Cl
HETATM    6  C   LIG     1      14.069  31.160  17.969  1.00  0.00     0.050 A 
HETATM    7  C   LIG     1      14.690  31.884  18.994  1.00  0.00     0.069 A 
HETATM    8 CL   LIG     1      14.715  31.218  20.619  1.00  0.00    -0.081 Cl
ENDROOT
BRANCH   1   9
HETATM    9  O   LIG     1      15.896  33.821  19.784  1.00  0.00    -0.334 OA
BRANCH   9  10
HETATM   10  C   LIG     1      15.692  35.193  20.121  1.00  0.00     0.222 C 
HETATM   11  C   LIG     1      14.682  35.320  21.266  1.00  0.00     0.051 C 
BRANCH  10  12
HETATM   12  C   LIG     1      17.006  35.781  20.541  1.00  0.00     0.170 C 
HETATM   13  O   LIG     1      17.831  36.172  19.672  1.00  0.00    -0.648 OA
BRANCH  12  14
HETATM   14  O   LIG     1      17.320  35.888  21.893  1.00  0.00    -0.774 OA
HETATM   15  H   LIG     1      16.628  36.201  22.564  1.00  0.00     0.167 HD
ENDBRANCH  12  14
ENDBRANCH  10  12
ENDBRANCH   9  10
ENDBRANCH   1   9
TORSDOF 4
ENDMDL
MODEL 12
REMARK VINA RESULT:      -5.6      8.967     10.934
REMARK  4 active torsions:
REMARK  status: ('A' for Active; 'I' for Inactive)
REMARK    1  A    between atoms: C_2  and  C_3 
REMARK    2  A    between atoms: C_2  and  O_6 
REMARK    3  A    between atoms: C_3  and  O_4 
REMARK    4  A    between atoms: O_6  and  C_7 
ROOT
HETATM    1  C   LIG     1      15.152  31.119  15.191  1.00  0.00     0.091 A 
HETATM    2  C   LIG     1      15.670  30.181  14.274  1.00  0.00     0.040 A 
HETATM    3  C   LIG     1      14.871  29.132  13.811  1.00  0.00     0.026 A 
HETATM    4  C   LIG     1      13.554  29.002  14.258  1.00  0.00     0.035 A 
HETATM    5 CL   LIG     1      12.555  27.683  13.674  1.00  0.00    -0.084 Cl
HETATM    6  C   LIG     1      13.034  29.923  15.170  1.00  0.00     0.050 A 
HETATM    7  C   LIG     1      13.829  30.977  15.638  1.00  0.00     0.069 A 
HETATM    8 CL   LIG     1      13.147  32.120  16.784  1.00  0.00    -0.081 Cl
ENDROOT
BRANCH   1   9
HETATM    9  O   LIG     1      15.916  32.191  15.688  1.00  0.00    -0.334 OA
BRANCH   9  10
HETATM   10  C   LIG     1      16.885  32.942  14.957  1.00  0.00     0.222 C 
HETATM   11  C   LIG     1      16.642  32.807  13.450  1.00  0.00     0.051 C 
BRANCH  10  12
HETATM   12  C   LIG     1      16.773  34.382  15.359  1.00  0.00     0.170 C 
HETATM   13  O   LIG     1      17.368  35.272  14.696  1.00  0.00    -0.648 OA
BRANCH  12  14
HETATM   14  O   LIG     1      16.016  34.736  16.473  1.00  0.00    -0.774 OA
HETATM   15  H   LIG     1      16.370  34.587  17.411  1.00  0.00     0.167 HD
ENDBRANCH  12  14
ENDBRANCH  10  12
ENDBRANCH   9  10
ENDBRANCH   1   9
TORSDOF 4
ENDMDL
MODEL 13
REMARK VINA RESULT:      -5.6     10.172     11.811
REMARK  4 active torsions:
REMARK  status: ('A' for Active; 'I' for Inactive)
REMARK    1  A    between atoms: C_2  and  C_3 
REMARK    2  A    between atoms: C_2  and  O_6 
REMARK    3  A    between atoms: C_3  and  O_4 
REMARK    4  A    between atoms: O_6  and  C_7 
ROOT
HETATM    1  C   LIG     1      14.903  30.807  14.715  1.00  0.00     0.091 A 
HETATM    2  C   LIG     1      15.695  31.199  13.616  1.00  0.00     0.040 A 
HETATM    3  C   LIG     1      16.469  32.361  13.684  1.00  0.00     0.026 A 
HETATM    4  C   LIG     1      16.461  33.144  14.840  1.00  0.00     0.035 A 
HETATM    5 CL   LIG     1      17.434  34.601  14.920  1.00  0.00    -0.084 Cl
HETATM    6  C   LIG     1      15.675  32.766  15.932  1.00  0.00     0.050 A 
HETATM    7  C   LIG     1      14.898  31.604  15.870  1.00  0.00     0.069 A 
HETATM    8 CL   LIG     1      13.920  31.153  17.259  1.00  0.00    -0.081 Cl
ENDROOT
BRANCH   1   9
HETATM    9  O   LIG     1      14.105  29.649  14.695  1.00  0.00    -0.334 OA
BRANCH   9  10
HETATM   10  C   LIG     1      14.027  28.700  13.631  1.00  0.00     0.222 C 
HETATM   11  C   LIG     1      15.126  27.643  13.773  1.00  0.00     0.051 C 
BRANCH  10  12
HETATM   12  C   LIG     1      12.682  28.039  13.680  1.00  0.00     0.170 C 
HETATM   13  O   LIG     1      12.590  26.811  13.946  1.00  0.00    -0.648 OA
BRANCH  12  14
HETATM   14  O   LIG     1      11.532  28.781  13.424  1.00  0.00    -0.774 OA
HETATM   15  H   LIG     1      11.359  29.655  13.908  1.00  0.00     0.167 HD
ENDBRANCH  12  14
ENDBRANCH  10  12
ENDBRANCH   9  10
ENDBRANCH   1   9
TORSDOF 4
ENDMDL
MODEL 14
REMARK VINA RESULT:      -5.5      9.674     11.261
REMARK  4 active torsions:
REMARK  status: ('A' for Active; 'I' for Inactive)
REMARK    1  A    between atoms: C_2  and  C_3 
REMARK    2  A    between atoms: C_2  and  O_6 
REMARK    3  A    between atoms: C_3  and  O_4 
REMARK    4  A    between atoms: O_6  and  C_7 
ROOT
HETATM    1  C   LIG     1      16.540  32.229  13.703  1.00  0.00     0.091 A 
HETATM    2  C   LIG     1      15.753  31.093  13.421  1.00  0.00     0.040 A 
HETATM    3  C   LIG     1      14.796  30.652  14.340  1.00  0.00     0.026 A 
HETATM    4  C   LIG     1      14.615  31.332  15.547  1.00  0.00     0.035 A 
HETATM    5 CL   LIG     1      13.413  30.775  16.696  1.00  0.00    -0.084 Cl
HETATM    6  C   LIG     1      15.394  32.455  15.837  1.00  0.00     0.050 A 
HETATM    7  C   LIG     1      16.355  32.901  14.922  1.00  0.00     0.069 A 
HETATM    8 CL   LIG     1      17.319  34.317  15.314  1.00  0.00    -0.081 Cl
ENDROOT
BRANCH   1   9
HETATM    9  O   LIG     1      17.518  32.710  12.814  1.00  0.00    -0.334 OA
BRANCH   9  10
HETATM   10  C   LIG     1      18.215  33.951  12.924  1.00  0.00     0.222 C 
HETATM   11  C   LIG     1      19.728  33.726  12.831  1.00  0.00     0.051 C 
BRANCH  10  12
HETATM   12  C   LIG     1      17.770  34.848  11.808  1.00  0.00     0.170 C 
HETATM   13  O   LIG     1      16.906  35.740  12.020  1.00  0.00    -0.648 OA
BRANCH  12  14
HETATM   14  O   LIG     1      18.305  34.690  10.533  1.00  0.00    -0.774 OA
HETATM   15  H   LIG     1      17.784  34.975   9.711  1.00  0.00     0.167 HD
ENDBRANCH  12  14
ENDBRANCH  10  12
ENDBRANCH   9  10
ENDBRANCH   1   9
TORSDOF 4
ENDMDL
MODEL 15
REMARK VINA RESULT:      -5.4      1.682      2.369
REMARK  4 active torsions:
REMARK  status: ('A' for Active; 'I' for Inactive)
REMARK    1  A    between atoms: C_2  and  C_3 
REMARK    2  A    between atoms: C_2  and  O_6 
REMARK    3  A    between atoms: C_3  and  O_4 
REMARK    4  A    between atoms: O_6  and  C_7 
ROOT
HETATM    1  C   LIG     1      18.315  38.172  21.474  1.00  0.00     0.091 A 
HETATM    2  C   LIG     1      18.653  39.467  21.025  1.00  0.00     0.040 A 
HETATM    3  C   LIG     1      18.860  39.710  19.665  1.00  0.00     0.026 A 
HETATM    4  C   LIG     1      18.737  38.671  18.739  1.00  0.00     0.035 A 
HETATM    5 CL   LIG     1      18.998  38.981  17.032  1.00  0.00    -0.084 Cl
HETATM    6  C   LIG     1      18.408  37.385  19.174  1.00  0.00     0.050 A 
HETATM    7  C   LIG     1      18.199  37.134  20.536  1.00  0.00     0.069 A 
HETATM    8 CL   LIG     1      17.786  35.507  21.053  1.00  0.00    -0.081 Cl
ENDROOT
BRANCH   1   9
HETATM    9  O   LIG     1      18.099  37.876  22.832  1.00  0.00    -0.334 OA
BRANCH   9  10
HETATM   10  C   LIG     1      16.959  37.211  23.376  1.00  0.00     0.222 C 
HETATM   11  C   LIG     1      16.901  37.401  24.895  1.00  0.00     0.051 C 
BRANCH  10  12
HETATM   12  C   LIG     1      15.726  37.788  22.748  1.00  0.00     0.170 C 
HETATM   13  O   LIG     1      14.883  37.031  22.197  1.00  0.00    -0.648 OA
BRANCH  12  14
HETATM   14  O   LIG     1      15.516  39.164  22.765  1.00  0.00    -0.774 OA
HETATM   15  H   LIG     1      15.590  39.690  23.628  1.00  0.00     0.167 HD
ENDBRANCH  12  14
ENDBRANCH  10  12
ENDBRANCH   9  10
ENDBRANCH   1   9
TORSDOF 4
ENDMDL
MODEL 16
REMARK VINA RESULT:      -5.4      8.632     10.305
REMARK  4 active torsions:
REMARK  status: ('A' for Active; 'I' for Inactive)
REMARK    1  A    between atoms: C_2  and  C_3 
REMARK    2  A    between atoms: C_2  and  O_6 
REMARK    3  A    between atoms: C_3  and  O_4 
REMARK    4  A    between atoms: O_6  and  C_7 
ROOT
HETATM    1  C   LIG     1      14.683  31.178  15.383  1.00  0.00     0.091 A 
HETATM    2  C   LIG     1      15.435  30.315  14.559  1.00  0.00     0.040 A 
HETATM    3  C   LIG     1      14.845  29.174  14.007  1.00  0.00     0.026 A 
HETATM    4  C   LIG     1      13.505  28.879  14.272  1.00  0.00     0.035 A 
HETATM    5 CL   LIG     1      12.769  27.447  13.577  1.00  0.00    -0.084 Cl
HETATM    6  C   LIG     1      12.754  29.725  15.091  1.00  0.00     0.050 A 
HETATM    7  C   LIG     1      13.339  30.869  15.647  1.00  0.00     0.069 A 
HETATM    8 CL   LIG     1      12.369  31.915  16.672  1.00  0.00    -0.081 Cl
ENDROOT
BRANCH   1   9
HETATM    9  O   LIG     1      15.232  32.336  15.964  1.00  0.00    -0.334 OA
BRANCH   9  10
HETATM   10  C   LIG     1      14.848  32.911  17.213  1.00  0.00     0.222 C 
HETATM   11  C   LIG     1      15.363  32.058  18.377  1.00  0.00     0.051 C 
BRANCH  10  12
HETATM   12  C   LIG     1      15.432  34.289  17.301  1.00  0.00     0.170 C 
HETATM   13  O   LIG     1      15.946  34.825  16.283  1.00  0.00    -0.648 OA
BRANCH  12  14
HETATM   14  O   LIG     1      15.413  34.976  18.512  1.00  0.00    -0.774 OA
HETATM   15  H   LIG     1      15.723  35.939  18.568  1.00  0.00     0.167 HD
ENDBRANCH  12  14
ENDBRANCH  10  12
ENDBRANCH   9  10
ENDBRANCH   1   9
TORSDOF 4
ENDMDL
MODEL 17
REMARK VINA RESULT:      -5.3      7.236      8.690
REMARK  4 active torsions:
REMARK  status: ('A' for Active; 'I' for Inactive)
REMARK    1  A    between atoms: C_2  and  C_3 
REMARK    2  A    between atoms: C_2  and  O_6 
REMARK    3  A    between atoms: C_3  and  O_4 
REMARK    4  A    between atoms: O_6  and  C_7 
ROOT
HETATM    1  C   LIG     1      14.944  32.364  16.714  1.00  0.00     0.091 A 
HETATM    2  C   LIG     1      16.142  32.438  15.971  1.00  0.00     0.040 A 
HETATM    3  C   LIG     1      16.327  31.624  14.850  1.00  0.00     0.026 A 
HETATM    4  C   LIG     1      15.328  30.729  14.458  1.00  0.00     0.035 A 
HETATM    5 CL   LIG     1      15.565  29.710  13.050  1.00  0.00    -0.084 Cl
HETATM    6  C   LIG     1      14.141  30.646  15.191  1.00  0.00     0.050 A 
HETATM    7  C   LIG     1      13.949  31.458  16.315  1.00  0.00     0.069 A 
HETATM    8 CL   LIG     1      12.447  31.331  17.216  1.00  0.00    -0.081 Cl
ENDROOT
BRANCH   1   9
HETATM    9  O   LIG     1      14.711  33.159  17.851  1.00  0.00    -0.334 OA
BRANCH   9  10
HETATM   10  C   LIG     1      15.456  33.123  19.068  1.00  0.00     0.222 C 
HETATM   11  C   LIG     1      15.613  34.534  19.643  1.00  0.00     0.051 C 
BRANCH  10  12
HETATM   12  C   LIG     1      14.724  32.257  20.049  1.00  0.00     0.170 C 
HETATM   13  O   LIG     1      14.663  31.011  19.870  1.00  0.00    -0.648 OA
BRANCH  12  14
HETATM   14  O   LIG     1      14.104  32.830  21.155  1.00  0.00    -0.774 OA
HETATM   15  H   LIG     1      14.317  33.780  21.437  1.00  0.00     0.167 HD
ENDBRANCH  12  14
ENDBRANCH  10  12
ENDBRANCH   9  10
ENDBRANCH   1   9
TORSDOF 4
ENDMDL
MODEL 18
REMARK VINA RESULT:      -5.2      9.213     11.034
REMARK  4 active torsions:
REMARK  status: ('A' for Active; 'I' for Inactive)
REMARK    1  A    between atoms: C_2  and  C_3 
REMARK    2  A    between atoms: C_2  and  O_6 
REMARK    3  A    between atoms: C_3  and  O_4 
REMARK    4  A    between atoms: O_6  and  C_7 
ROOT
HETATM    1  C   LIG     1      15.539  32.209  14.638  1.00  0.00     0.091 A 
HETATM    2  C   LIG     1      15.751  31.424  13.485  1.00  0.00     0.040 A 
HETATM    3  C   LIG     1      15.129  30.179  13.356  1.00  0.00     0.026 A 
HETATM    4  C   LIG     1      14.296  29.701  14.370  1.00  0.00     0.035 A 
HETATM    5 CL   LIG     1      13.519  28.137  14.203  1.00  0.00    -0.084 Cl
HETATM    6  C   LIG     1      14.085  30.469  15.518  1.00  0.00     0.050 A 
HETATM    7  C   LIG     1      14.704  31.717  15.653  1.00  0.00     0.069 A 
HETATM    8 CL   LIG     1      14.419  32.661  17.107  1.00  0.00    -0.081 Cl
ENDROOT
BRANCH   1   9
HETATM    9  O   LIG     1      16.143  33.467  14.816  1.00  0.00    -0.334 OA
BRANCH   9  10
HETATM   10  C   LIG     1      17.534  33.758  14.680  1.00  0.00     0.222 C 
HETATM   11  C   LIG     1      18.379  32.581  15.177  1.00  0.00     0.051 C 
BRANCH  10  12
HETATM   12  C   LIG     1      17.827  34.012  13.232  1.00  0.00     0.170 C 
HETATM   13  O   LIG     1      17.372  35.042  12.665  1.00  0.00    -0.648 OA
BRANCH  12  14
HETATM   14  O   LIG     1      18.597  33.105  12.508  1.00  0.00    -0.774 OA
HETATM   15  H   LIG     1      18.172  32.501  11.814  1.00  0.00     0.167 HD
ENDBRANCH  12  14
ENDBRANCH  10  12
ENDBRANCH   9  10
ENDBRANCH   1   9
TORSDOF 4
ENDMDL
MODEL 19
REMARK VINA RESULT:      -4.6      4.665      6.463
REMARK  4 active torsions:
REMARK  status: ('A' for Active; 'I' for Inactive)
REMARK    1  A    between atoms: C_2  and  C_3 
REMARK    2  A    between atoms: C_2  and  O_6 
REMARK    3  A    between atoms: C_3  and  O_4 
REMARK    4  A    between atoms: O_6  and  C_7 
ROOT
HETATM    1  C   LIG     1      16.140  34.734  20.154  1.00  0.00     0.091 A 
HETATM    2  C   LIG     1      17.092  35.744  19.904  1.00  0.00     0.040 A 
HETATM    3  C   LIG     1      17.289  36.773  20.829  1.00  0.00     0.026 A 
HETATM    4  C   LIG     1      16.541  36.811  22.008  1.00  0.00     0.035 A 
HETATM    5 CL   LIG     1      16.792  38.104  23.166  1.00  0.00    -0.084 Cl
HETATM    6  C   LIG     1      15.592  35.818  22.262  1.00  0.00     0.050 A 
HETATM    7  C   LIG     1      15.389  34.784  21.340  1.00  0.00     0.069 A 
HETATM    8 CL   LIG     1      14.189  33.549  21.687  1.00  0.00    -0.081 Cl
ENDROOT
BRANCH   1   9
HETATM    9  O   LIG     1      15.902  33.680  19.254  1.00  0.00    -0.334 OA
BRANCH   9  10
HETATM   10  C   LIG     1      14.884  33.642  18.254  1.00  0.00     0.222 C 
HETATM   11  C   LIG     1      15.391  34.263  16.949  1.00  0.00     0.051 C 
BRANCH  10  12
HETATM   12  C   LIG     1      14.502  32.212  18.017  1.00  0.00     0.170 C 
HETATM   13  O   LIG     1      14.454  31.756  16.844  1.00  0.00    -0.648 OA
BRANCH  12  14
HETATM   14  O   LIG     1      14.192  31.388  19.095  1.00  0.00    -0.774 OA
HETATM   15  H   LIG     1      13.790  31.770  19.943  1.00  0.00     0.167 HD
ENDBRANCH  12  14
ENDBRANCH  10  12
ENDBRANCH   9  10
ENDBRANCH   1   9
TORSDOF 4
ENDMDL
MODEL 20
REMARK VINA RESULT:      -4.6      8.443     10.248
REMARK  4 active torsions:
REMARK  status: ('A' for Active; 'I' for Inactive)
REMARK    1  A    between atoms: C_2  and  C_3 
REMARK    2  A    between atoms: C_2  and  O_6 
REMARK    3  A    between atoms: C_3  and  O_4 
REMARK    4  A    between atoms: O_6  and  C_7 
ROOT
HETATM    1  C   LIG     1      16.098  32.386  15.581  1.00  0.00     0.091 A 
HETATM    2  C   LIG     1      15.847  31.183  14.890  1.00  0.00     0.040 A 
HETATM    3  C   LIG     1      14.660  30.477  15.111  1.00  0.00     0.026 A 
HETATM    4  C   LIG     1      13.717  30.957  16.022  1.00  0.00     0.035 A 
HETATM    5 CL   LIG     1      12.230  30.068  16.296  1.00  0.00    -0.084 Cl
HETATM    6  C   LIG     1      13.960  32.145  16.716  1.00  0.00     0.050 A 
HETATM    7  C   LIG     1      15.146  32.857  16.499  1.00  0.00     0.069 A 
HETATM    8 CL   LIG     1      15.423  34.349  17.385  1.00  0.00    -0.081 Cl
ENDROOT
BRANCH   1   9
HETATM    9  O   LIG     1      17.277  33.132  15.396  1.00  0.00    -0.334 OA
BRANCH   9  10
HETATM   10  C   LIG     1      17.848  33.502  14.142  1.00  0.00     0.222 C 
HETATM   11  C   LIG     1      17.302  32.612  13.020  1.00  0.00     0.051 C 
BRANCH  10  12
HETATM   12  C   LIG     1      17.499  34.933  13.864  1.00  0.00     0.170 C 
HETATM   13  O   LIG     1      17.411  35.344  12.676  1.00  0.00    -0.648 OA
BRANCH  12  14
HETATM   14  O   LIG     1      17.281  35.814  14.920  1.00  0.00    -0.774 OA
HETATM   15  H   LIG     1      17.911  35.840  15.714  1.00  0.00     0.167 HD
ENDBRANCH  12  14
ENDBRANCH  10  12
ENDBRANCH   9  10
ENDBRANCH   1   9
TORSDOF 4
ENDMDL
