MODEL 1
REMARK VINA RESULT:      -5.8      0.000      0.000
REMARK  2 active torsions:
REMARK  status: ('A' for Active; 'I' for Inactive)
REMARK    1  A    between atoms: O_1  and  C_2 
REMARK    2  A    between atoms: C_3  and  O_4 
ROOT
HETATM    1  C   LIG     1      17.485  37.549  25.553  1.00  0.00     0.098 A 
HETATM    2  C   LIG     1      16.960  36.847  24.452  1.00  0.00     0.098 A 
HETATM    3  C   LIG     1      17.118  35.455  24.375  1.00  0.00     0.039 A 
HETATM    4  C   LIG     1      17.796  34.767  25.387  1.00  0.00     0.003 A 
HETATM    5  C   LIG     1      18.317  35.465  26.478  1.00  0.00     0.003 A 
HETATM    6  C   LIG     1      18.163  36.852  26.561  1.00  0.00     0.039 A 
ENDROOT
BRANCH   1   7
HETATM    7  O   LIG     1      17.345  38.931  25.660  1.00  0.00    -0.358 OA
HETATM    8  H   LIG     1      17.430  39.414  26.546  1.00  0.00     0.217 HD
ENDBRANCH   1   7
BRANCH   2   9
HETATM    9  O   LIG     1      16.283  37.533  23.444  1.00  0.00    -0.358 OA
HETATM   10  H   LIG     1      15.581  37.077  22.873  1.00  0.00     0.217 HD
ENDBRANCH   2   9
TORSDOF 2
ENDMDL
MODEL 2
REMARK VINA RESULT:      -5.8      0.013      2.222
REMARK  2 active torsions:
REMARK  status: ('A' for Active; 'I' for Inactive)
REMARK    1  A    between atoms: O_1  and  C_2 
REMARK    2  A    between atoms: C_3  and  O_4 
ROOT
HETATM    1  C   LIG     1      16.957  36.857  24.463  1.00  0.00     0.098 A 
HETATM    2  C   LIG     1      17.491  37.550  25.564  1.00  0.00     0.098 A 
HETATM    3  C   LIG     1      18.174  36.843  26.566  1.00  0.00     0.039 A 
HETATM    4  C   LIG     1      18.323  35.456  26.471  1.00  0.00     0.003 A 
HETATM    5  C   LIG     1      17.792  34.769  25.377  1.00  0.00     0.003 A 
HETATM    6  C   LIG     1      17.110  35.468  24.376  1.00  0.00     0.039 A 
ENDROOT
BRANCH   1   7
HETATM    7  O   LIG     1      16.273  37.529  23.451  1.00  0.00    -0.358 OA
HETATM    8  H   LIG     1      15.507  37.102  22.944  1.00  0.00     0.217 HD
ENDBRANCH   1   7
BRANCH   2   9
HETATM    9  O   LIG     1      17.343  38.933  25.659  1.00  0.00    -0.358 OA
HETATM   10  H   LIG     1      17.911  39.484  26.292  1.00  0.00     0.217 HD
ENDBRANCH   2   9
TORSDOF 2
ENDMDL
MODEL 3
REMARK VINA RESULT:      -5.5      1.449      2.529
REMARK  2 active torsions:
REMARK  status: ('A' for Active; 'I' for Inactive)
REMARK    1  A    between atoms: O_1  and  C_2 
REMARK    2  A    between atoms: C_3  and  O_4 
ROOT
HETATM    1  C   LIG     1      17.446  36.281  25.558  1.00  0.00     0.098 A 
HETATM    2  C   LIG     1      17.202  37.512  24.920  1.00  0.00     0.098 A 
HETATM    3  C   LIG     1      16.894  37.537  23.551  1.00  0.00     0.039 A 
HETATM    4  C   LIG     1      16.830  36.344  22.823  1.00  0.00     0.003 A 
HETATM    5  C   LIG     1      17.072  35.124  23.457  1.00  0.00     0.003 A 
HETATM    6  C   LIG     1      17.380  35.093  24.821  1.00  0.00     0.039 A 
ENDROOT
BRANCH   1   7
HETATM    7  O   LIG     1      17.754  36.222  26.916  1.00  0.00    -0.358 OA
HETATM    8  H   LIG     1      17.727  35.354  27.436  1.00  0.00     0.217 HD
ENDBRANCH   1   7
BRANCH   2   9
HETATM    9  O   LIG     1      17.266  38.700  25.646  1.00  0.00    -0.358 OA
HETATM   10  H   LIG     1      16.697  39.502  25.400  1.00  0.00     0.217 HD
ENDBRANCH   2   9
TORSDOF 2
ENDMDL
MODEL 4
REMARK VINA RESULT:      -5.5      1.444      2.509
REMARK  2 active torsions:
REMARK  status: ('A' for Active; 'I' for Inactive)
REMARK    1  A    between atoms: O_1  and  C_2 
REMARK    2  A    between atoms: C_3  and  O_4 
ROOT
HETATM    1  C   LIG     1      17.208  37.517  24.958  1.00  0.00     0.098 A 
HETATM    2  C   LIG     1      17.450  36.276  25.575  1.00  0.00     0.098 A 
HETATM    3  C   LIG     1      17.383  35.097  24.816  1.00  0.00     0.039 A 
HETATM    4  C   LIG     1      17.076  35.156  23.453  1.00  0.00     0.003 A 
HETATM    5  C   LIG     1      16.836  36.388  22.842  1.00  0.00     0.003 A 
HETATM    6  C   LIG     1      16.901  37.566  23.593  1.00  0.00     0.039 A 
ENDROOT
BRANCH   1   7
HETATM    7  O   LIG     1      17.267  38.706  25.684  1.00  0.00    -0.358 OA
HETATM    8  H   LIG     1      16.565  38.953  26.370  1.00  0.00     0.217 HD
ENDBRANCH   1   7
BRANCH   2   9
HETATM    9  O   LIG     1      17.756  36.218  26.934  1.00  0.00    -0.358 OA
HETATM   10  H   LIG     1      18.501  36.778  27.334  1.00  0.00     0.217 HD
ENDBRANCH   2   9
TORSDOF 2
ENDMDL
MODEL 5
REMARK VINA RESULT:      -5.1      4.250      5.597
REMARK  2 active torsions:
REMARK  status: ('A' for Active; 'I' for Inactive)
REMARK    1  A    between atoms: O_1  and  C_2 
REMARK    2  A    between atoms: C_3  and  O_4 
ROOT
HETATM    1  C   LIG     1      17.914  36.751  20.491  1.00  0.00     0.098 A 
HETATM    2  C   LIG     1      17.643  37.732  21.462  1.00  0.00     0.098 A 
HETATM    3  C   LIG     1      18.383  38.926  21.469  1.00  0.00     0.039 A 
HETATM    4  C   LIG     1      19.384  39.137  20.517  1.00  0.00     0.003 A 
HETATM    5  C   LIG     1      19.652  38.162  19.554  1.00  0.00     0.003 A 
HETATM    6  C   LIG     1      18.919  36.971  19.542  1.00  0.00     0.039 A 
ENDROOT
BRANCH   1   7
HETATM    7  O   LIG     1      17.198  35.555  20.456  1.00  0.00    -0.358 OA
HETATM    8  H   LIG     1      17.631  34.662  20.656  1.00  0.00     0.217 HD
ENDBRANCH   1   7
BRANCH   2   9
HETATM    9  O   LIG     1      16.645  37.521  22.411  1.00  0.00    -0.358 OA
HETATM   10  H   LIG     1      16.849  37.104  23.312  1.00  0.00     0.217 HD
ENDBRANCH   2   9
TORSDOF 2
ENDMDL
MODEL 6
REMARK VINA RESULT:      -5.1      4.275      5.247
REMARK  2 active torsions:
REMARK  status: ('A' for Active; 'I' for Inactive)
REMARK    1  A    between atoms: O_1  and  C_2 
REMARK    2  A    between atoms: C_3  and  O_4 
ROOT
HETATM    1  C   LIG     1      17.667  37.729  21.440  1.00  0.00     0.098 A 
HETATM    2  C   LIG     1      17.939  36.764  20.453  1.00  0.00     0.098 A 
HETATM    3  C   LIG     1      18.948  37.002  19.507  1.00  0.00     0.039 A 
HETATM    4  C   LIG     1      19.679  38.194  19.544  1.00  0.00     0.003 A 
HETATM    5  C   LIG     1      19.408  39.151  20.524  1.00  0.00     0.003 A 
HETATM    6  C   LIG     1      18.404  38.919  21.469  1.00  0.00     0.039 A 
ENDROOT
BRANCH   1   7
HETATM    7  O   LIG     1      16.672  37.523  22.395  1.00  0.00    -0.358 OA
HETATM    8  H   LIG     1      16.782  37.814  23.358  1.00  0.00     0.217 HD
ENDBRANCH   1   7
BRANCH   2   9
HETATM    9  O   LIG     1      17.211  35.576  20.416  1.00  0.00    -0.358 OA
HETATM   10  H   LIG     1      16.470  35.429  19.741  1.00  0.00     0.217 HD
ENDBRANCH   2   9
TORSDOF 2
ENDMDL
MODEL 7
REMARK VINA RESULT:      -5.0      3.623      4.546
REMARK  2 active torsions:
REMARK  status: ('A' for Active; 'I' for Inactive)
REMARK    1  A    between atoms: O_1  and  C_2 
REMARK    2  A    between atoms: C_3  and  O_4 
ROOT
HETATM    1  C   LIG     1      17.347  38.243  22.151  1.00  0.00     0.098 A 
HETATM    2  C   LIG     1      18.346  38.779  21.318  1.00  0.00     0.098 A 
HETATM    3  C   LIG     1      18.864  38.007  20.267  1.00  0.00     0.039 A 
HETATM    4  C   LIG     1      18.391  36.709  20.050  1.00  0.00     0.003 A 
HETATM    5  C   LIG     1      17.400  36.177  20.878  1.00  0.00     0.003 A 
HETATM    6  C   LIG     1      16.880  36.942  21.926  1.00  0.00     0.039 A 
ENDROOT
BRANCH   1   7
HETATM    7  O   LIG     1      16.811  38.983  23.204  1.00  0.00    -0.358 OA
HETATM    8  H   LIG     1      17.254  39.025  24.113  1.00  0.00     0.217 HD
ENDBRANCH   1   7
BRANCH   2   9
HETATM    9  O   LIG     1      18.816  40.073  21.535  1.00  0.00    -0.358 OA
HETATM   10  H   LIG     1      19.164  40.645  20.774  1.00  0.00     0.217 HD
ENDBRANCH   2   9
TORSDOF 2
ENDMDL
MODEL 8
REMARK VINA RESULT:      -5.0      4.542      5.205
REMARK  2 active torsions:
REMARK  status: ('A' for Active; 'I' for Inactive)
REMARK    1  A    between atoms: O_1  and  C_2 
REMARK    2  A    between atoms: C_3  and  O_4 
ROOT
HETATM    1  C   LIG     1      19.036  38.670  20.422  1.00  0.00     0.098 A 
HETATM    2  C   LIG     1      18.586  37.352  20.219  1.00  0.00     0.098 A 
HETATM    3  C   LIG     1      17.600  36.816  21.063  1.00  0.00     0.039 A 
HETATM    4  C   LIG     1      17.068  37.587  22.101  1.00  0.00     0.003 A 
HETATM    5  C   LIG     1      17.516  38.895  22.302  1.00  0.00     0.003 A 
HETATM    6  C   LIG     1      18.498  39.434  21.465  1.00  0.00     0.039 A 
ENDROOT
BRANCH   1   7
HETATM    7  O   LIG     1      20.013  39.232  19.602  1.00  0.00    -0.358 OA
HETATM    8  H   LIG     1      19.820  40.023  19.000  1.00  0.00     0.217 HD
ENDBRANCH   1   7
BRANCH   2   9
HETATM    9  O   LIG     1      19.116  36.584  19.184  1.00  0.00    -0.358 OA
HETATM   10  H   LIG     1      19.519  35.670  19.355  1.00  0.00     0.217 HD
ENDBRANCH   2   9
TORSDOF 2
ENDMDL
MODEL 9
REMARK VINA RESULT:      -5.0      4.547      5.535
REMARK  2 active torsions:
REMARK  status: ('A' for Active; 'I' for Inactive)
REMARK    1  A    between atoms: O_1  and  C_2 
REMARK    2  A    between atoms: C_3  and  O_4 
ROOT
HETATM    1  C   LIG     1      18.596  37.368  20.210  1.00  0.00     0.098 A 
HETATM    2  C   LIG     1      19.044  38.686  20.417  1.00  0.00     0.098 A 
HETATM    3  C   LIG     1      18.507  39.447  21.467  1.00  0.00     0.039 A 
HETATM    4  C   LIG     1      17.529  38.899  22.303  1.00  0.00     0.003 A 
HETATM    5  C   LIG     1      17.085  37.591  22.097  1.00  0.00     0.003 A 
HETATM    6  C   LIG     1      17.617  36.828  21.053  1.00  0.00     0.039 A 
ENDROOT
BRANCH   1   7
HETATM    7  O   LIG     1      19.110  36.586  19.177  1.00  0.00    -0.358 OA
HETATM    8  H   LIG     1      18.574  36.377  18.343  1.00  0.00     0.217 HD
ENDBRANCH   1   7
BRANCH   2   9
HETATM    9  O   LIG     1      20.019  39.232  19.583  1.00  0.00    -0.358 OA
HETATM   10  H   LIG     1      20.712  39.883  19.934  1.00  0.00     0.217 HD
ENDBRANCH   2   9
TORSDOF 2
ENDMDL
MODEL 10
REMARK VINA RESULT:      -5.0     10.212     11.603
REMARK  2 active torsions:
REMARK  status: ('A' for Active; 'I' for Inactive)
REMARK    1  A    between atoms: O_1  and  C_2 
REMARK    2  A    between atoms: C_3  and  O_4 
ROOT
HETATM    1  C   LIG     1      13.422  30.690  16.121  1.00  0.00     0.098 A 
HETATM    2  C   LIG     1      14.133  31.706  16.786  1.00  0.00     0.098 A 
HETATM    3  C   LIG     1      15.284  32.250  16.196  1.00  0.00     0.039 A 
HETATM    4  C   LIG     1      15.725  31.783  14.954  1.00  0.00     0.003 A 
HETATM    5  C   LIG     1      15.019  30.774  14.295  1.00  0.00     0.003 A 
HETATM    6  C   LIG     1      13.871  30.228  14.878  1.00  0.00     0.039 A 
ENDROOT
BRANCH   1   7
HETATM    7  O   LIG     1      12.275  30.129  16.680  1.00  0.00    -0.358 OA
HETATM    8  H   LIG     1      12.298  29.609  17.548  1.00  0.00     0.217 HD
ENDBRANCH   1   7
BRANCH   2   9
HETATM    9  O   LIG     1      13.693  32.172  18.024  1.00  0.00    -0.358 OA
HETATM   10  H   LIG     1      13.918  31.685  18.884  1.00  0.00     0.217 HD
ENDBRANCH   2   9
TORSDOF 2
ENDMDL
MODEL 11
REMARK VINA RESULT:      -5.0     10.268     11.447
REMARK  2 active torsions:
REMARK  status: ('A' for Active; 'I' for Inactive)
REMARK    1  A    between atoms: O_1  and  C_2 
REMARK    2  A    between atoms: C_3  and  O_4 
ROOT
HETATM    1  C   LIG     1      14.221  31.800  16.641  1.00  0.00     0.098 A 
HETATM    2  C   LIG     1      13.484  30.746  16.070  1.00  0.00     0.098 A 
HETATM    3  C   LIG     1      13.905  30.178  14.858  1.00  0.00     0.039 A 
HETATM    4  C   LIG     1      15.052  30.659  14.218  1.00  0.00     0.003 A 
HETATM    5  C   LIG     1      15.783  31.706  14.785  1.00  0.00     0.003 A 
HETATM    6  C   LIG     1      15.368  32.275  15.993  1.00  0.00     0.039 A 
ENDROOT
BRANCH   1   7
HETATM    7  O   LIG     1      13.830  32.385  17.844  1.00  0.00    -0.358 OA
HETATM    8  H   LIG     1      14.483  32.879  18.439  1.00  0.00     0.217 HD
ENDBRANCH   1   7
BRANCH   2   9
HETATM    9  O   LIG     1      12.341  30.266  16.708  1.00  0.00    -0.358 OA
HETATM   10  H   LIG     1      11.486  30.084  16.196  1.00  0.00     0.217 HD
ENDBRANCH   2   9
TORSDOF 2
ENDMDL
MODEL 12
REMARK VINA RESULT:      -5.0     10.408     11.366
REMARK  2 active torsions:
REMARK  status: ('A' for Active; 'I' for Inactive)
REMARK    1  A    between atoms: O_1  and  C_2 
REMARK    2  A    between atoms: C_3  and  O_4 
ROOT
HETATM    1  C   LIG     1      15.171  32.045  16.042  1.00  0.00     0.098 A 
HETATM    2  C   LIG     1      13.982  31.554  16.611  1.00  0.00     0.098 A 
HETATM    3  C   LIG     1      13.261  30.544  15.954  1.00  0.00     0.039 A 
HETATM    4  C   LIG     1      13.723  30.029  14.739  1.00  0.00     0.003 A 
HETATM    5  C   LIG     1      14.903  30.518  14.174  1.00  0.00     0.003 A 
HETATM    6  C   LIG     1      15.624  31.524  14.824  1.00  0.00     0.039 A 
ENDROOT
BRANCH   1   7
HETATM    7  O   LIG     1      15.910  33.047  16.668  1.00  0.00    -0.358 OA
HETATM    8  H   LIG     1      15.723  34.030  16.513  1.00  0.00     0.217 HD
ENDBRANCH   1   7
BRANCH   2   9
HETATM    9  O   LIG     1      13.522  32.067  17.823  1.00  0.00    -0.358 OA
HETATM   10  H   LIG     1      12.546  32.300  17.964  1.00  0.00     0.217 HD
ENDBRANCH   2   9
TORSDOF 2
ENDMDL
MODEL 13
REMARK VINA RESULT:      -4.9     10.183     11.245
REMARK  2 active torsions:
REMARK  status: ('A' for Active; 'I' for Inactive)
REMARK    1  A    between atoms: O_1  and  C_2 
REMARK    2  A    between atoms: C_3  and  O_4 
ROOT
HETATM    1  C   LIG     1      14.091  31.633  16.647  1.00  0.00     0.098 A 
HETATM    2  C   LIG     1      15.222  32.301  16.145  1.00  0.00     0.098 A 
HETATM    3  C   LIG     1      15.791  31.889  14.930  1.00  0.00     0.039 A 
HETATM    4  C   LIG     1      15.237  30.818  14.222  1.00  0.00     0.003 A 
HETATM    5  C   LIG     1      14.114  30.155  14.721  1.00  0.00     0.003 A 
HETATM    6  C   LIG     1      13.543  30.561  15.931  1.00  0.00     0.039 A 
ENDROOT
BRANCH   1   7
HETATM    7  O   LIG     1      13.501  32.017  17.851  1.00  0.00    -0.358 OA
HETATM    8  H   LIG     1      12.977  31.368  18.424  1.00  0.00     0.217 HD
ENDBRANCH   1   7
BRANCH   2   9
HETATM    9  O   LIG     1      15.775  33.369  16.851  1.00  0.00    -0.358 OA
HETATM   10  H   LIG     1      15.286  34.252  16.944  1.00  0.00     0.217 HD
ENDBRANCH   2   9
TORSDOF 2
ENDMDL
MODEL 14
REMARK VINA RESULT:      -4.9     11.371     12.601
REMARK  2 active torsions:
REMARK  status: ('A' for Active; 'I' for Inactive)
REMARK    1  A    between atoms: O_1  and  C_2 
REMARK    2  A    between atoms: C_3  and  O_4 
ROOT
HETATM    1  C   LIG     1      13.474  30.497  15.692  1.00  0.00     0.098 A 
HETATM    2  C   LIG     1      13.735  29.813  14.491  1.00  0.00     0.098 A 
HETATM    3  C   LIG     1      14.870  30.143  13.735  1.00  0.00     0.039 A 
HETATM    4  C   LIG     1      15.738  31.148  14.172  1.00  0.00     0.003 A 
HETATM    5  C   LIG     1      15.479  31.827  15.364  1.00  0.00     0.003 A 
HETATM    6  C   LIG     1      14.349  31.503  16.122  1.00  0.00     0.039 A 
ENDROOT
BRANCH   1   7
HETATM    7  O   LIG     1      12.356  30.194  16.467  1.00  0.00    -0.358 OA
HETATM    8  H   LIG     1      12.389  29.514  17.217  1.00  0.00     0.217 HD
ENDBRANCH   1   7
BRANCH   2   9
HETATM    9  O   LIG     1      12.870  28.811  14.056  1.00  0.00    -0.358 OA
HETATM   10  H   LIG     1      12.247  28.953  13.269  1.00  0.00     0.217 HD
ENDBRANCH   2   9
TORSDOF 2
ENDMDL
MODEL 15
REMARK VINA RESULT:      -4.8     11.622     12.487
REMARK  2 active torsions:
REMARK  status: ('A' for Active; 'I' for Inactive)
REMARK    1  A    between atoms: O_1  and  C_2 
REMARK    2  A    between atoms: C_3  and  O_4 
ROOT
HETATM    1  C   LIG     1      14.645  30.428  14.414  1.00  0.00     0.098 A 
HETATM    2  C   LIG     1      13.417  30.056  14.991  1.00  0.00     0.098 A 
HETATM    3  C   LIG     1      12.970  30.702  16.154  1.00  0.00     0.039 A 
HETATM    4  C   LIG     1      13.743  31.711  16.738  1.00  0.00     0.003 A 
HETATM    5  C   LIG     1      14.963  32.078  16.165  1.00  0.00     0.003 A 
HETATM    6  C   LIG     1      15.412  31.438  15.006  1.00  0.00     0.039 A 
ENDROOT
BRANCH   1   7
HETATM    7  O   LIG     1      15.117  29.806  13.259  1.00  0.00    -0.358 OA
HETATM    8  H   LIG     1      14.509  29.276  12.647  1.00  0.00     0.217 HD
ENDBRANCH   1   7
BRANCH   2   9
HETATM    9  O   LIG     1      12.646  29.051  14.408  1.00  0.00    -0.358 OA
HETATM   10  H   LIG     1      13.060  28.347  13.808  1.00  0.00     0.217 HD
ENDBRANCH   2   9
TORSDOF 2
ENDMDL
MODEL 16
REMARK VINA RESULT:      -4.8     12.072     12.981
REMARK  2 active torsions:
REMARK  status: ('A' for Active; 'I' for Inactive)
REMARK    1  A    between atoms: O_1  and  C_2 
REMARK    2  A    between atoms: C_3  and  O_4 
ROOT
HETATM    1  C   LIG     1      13.498  29.710  14.585  1.00  0.00     0.098 A 
HETATM    2  C   LIG     1      14.800  29.976  14.122  1.00  0.00     0.098 A 
HETATM    3  C   LIG     1      15.564  30.981  14.735  1.00  0.00     0.039 A 
HETATM    4  C   LIG     1      15.033  31.718  15.799  1.00  0.00     0.003 A 
HETATM    5  C   LIG     1      13.740  31.454  16.256  1.00  0.00     0.003 A 
HETATM    6  C   LIG     1      12.975  30.453  15.650  1.00  0.00     0.039 A 
ENDROOT
BRANCH   1   7
HETATM    7  O   LIG     1      12.713  28.718  13.999  1.00  0.00    -0.358 OA
HETATM    8  H   LIG     1      11.753  28.557  14.277  1.00  0.00     0.217 HD
ENDBRANCH   1   7
BRANCH   2   9
HETATM    9  O   LIG     1      15.329  29.242  13.062  1.00  0.00    -0.358 OA
HETATM   10  H   LIG     1      15.604  29.687  12.194  1.00  0.00     0.217 HD
ENDBRANCH   2   9
TORSDOF 2
ENDMDL
MODEL 17
REMARK VINA RESULT:      -4.8     10.696     11.967
REMARK  2 active torsions:
REMARK  status: ('A' for Active; 'I' for Inactive)
REMARK    1  A    between atoms: O_1  and  C_2 
REMARK    2  A    between atoms: C_3  and  O_4 
ROOT
HETATM    1  C   LIG     1      15.790  32.448  15.105  1.00  0.00     0.098 A 
HETATM    2  C   LIG     1      16.003  31.805  13.872  1.00  0.00     0.098 A 
HETATM    3  C   LIG     1      15.280  30.644  13.559  1.00  0.00     0.039 A 
HETATM    4  C   LIG     1      14.353  30.126  14.469  1.00  0.00     0.003 A 
HETATM    5  C   LIG     1      14.143  30.765  15.693  1.00  0.00     0.003 A 
HETATM    6  C   LIG     1      14.860  31.922  16.011  1.00  0.00     0.039 A 
ENDROOT
BRANCH   1   7
HETATM    7  O   LIG     1      16.492  33.603  15.447  1.00  0.00    -0.358 OA
HETATM    8  H   LIG     1      17.461  33.578  15.738  1.00  0.00     0.217 HD
ENDBRANCH   1   7
BRANCH   2   9
HETATM    9  O   LIG     1      16.927  32.321  12.964  1.00  0.00    -0.358 OA
HETATM   10  H   LIG     1      16.750  32.314  11.966  1.00  0.00     0.217 HD
ENDBRANCH   2   9
TORSDOF 2
ENDMDL
MODEL 18
REMARK VINA RESULT:      -4.8      3.520      3.928
REMARK  2 active torsions:
REMARK  status: ('A' for Active; 'I' for Inactive)
REMARK    1  A    between atoms: O_1  and  C_2 
REMARK    2  A    between atoms: C_3  and  O_4 
ROOT
HETATM    1  C   LIG     1      17.173  38.191  22.131  1.00  0.00     0.098 A 
HETATM    2  C   LIG     1      16.036  37.461  22.524  1.00  0.00     0.098 A 
HETATM    3  C   LIG     1      15.777  36.211  21.941  1.00  0.00     0.039 A 
HETATM    4  C   LIG     1      16.643  35.694  20.973  1.00  0.00     0.003 A 
HETATM    5  C   LIG     1      17.771  36.419  20.584  1.00  0.00     0.003 A 
HETATM    6  C   LIG     1      18.035  37.665  21.161  1.00  0.00     0.039 A 
ENDROOT
BRANCH   1   7
HETATM    7  O   LIG     1      17.460  39.435  22.691  1.00  0.00    -0.358 OA
HETATM    8  H   LIG     1      18.378  39.857  22.623  1.00  0.00     0.217 HD
ENDBRANCH   1   7
BRANCH   2   9
HETATM    9  O   LIG     1      15.173  37.977  23.489  1.00  0.00    -0.358 OA
HETATM   10  H   LIG     1      14.824  38.927  23.434  1.00  0.00     0.217 HD
ENDBRANCH   2   9
TORSDOF 2
ENDMDL
MODEL 19
REMARK VINA RESULT:      -4.6     10.279     11.589
REMARK  2 active torsions:
REMARK  status: ('A' for Active; 'I' for Inactive)
REMARK    1  A    between atoms: O_1  and  C_2 
REMARK    2  A    between atoms: C_3  and  O_4 
ROOT
HETATM    1  C   LIG     1      15.714  31.666  14.863  1.00  0.00     0.098 A 
HETATM    2  C   LIG     1      15.261  32.260  16.056  1.00  0.00     0.098 A 
HETATM    3  C   LIG     1      14.087  31.789  16.665  1.00  0.00     0.039 A 
HETATM    4  C   LIG     1      13.370  30.736  16.088  1.00  0.00     0.003 A 
HETATM    5  C   LIG     1      13.821  30.148  14.904  1.00  0.00     0.003 A 
HETATM    6  C   LIG     1      14.989  30.612  14.293  1.00  0.00     0.039 A 
ENDROOT
BRANCH   1   7
HETATM    7  O   LIG     1      16.876  32.109  14.234  1.00  0.00    -0.358 OA
HETATM    8  H   LIG     1      17.190  31.726  13.351  1.00  0.00     0.217 HD
ENDBRANCH   1   7
BRANCH   2   9
HETATM    9  O   LIG     1      15.976  33.309  16.630  1.00  0.00    -0.358 OA
HETATM   10  H   LIG     1      15.953  33.482  17.629  1.00  0.00     0.217 HD
ENDBRANCH   2   9
TORSDOF 2
ENDMDL
MODEL 20
REMARK VINA RESULT:      -4.5      3.141      4.396
REMARK  2 active torsions:
REMARK  status: ('A' for Active; 'I' for Inactive)
REMARK    1  A    between atoms: O_1  and  C_2 
REMARK    2  A    between atoms: C_3  and  O_4 
ROOT
HETATM    1  C   LIG     1      17.504  36.784  21.133  1.00  0.00     0.098 A 
HETATM    2  C   LIG     1      16.928  36.296  22.320  1.00  0.00     0.098 A 
HETATM    3  C   LIG     1      16.915  37.101  23.470  1.00  0.00     0.039 A 
HETATM    4  C   LIG     1      17.473  38.383  23.436  1.00  0.00     0.003 A 
HETATM    5  C   LIG     1      18.045  38.866  22.258  1.00  0.00     0.003 A 
HETATM    6  C   LIG     1      18.061  38.069  21.109  1.00  0.00     0.039 A 
ENDROOT
BRANCH   1   7
HETATM    7  O   LIG     1      17.532  36.010  19.974  1.00  0.00    -0.358 OA
HETATM    8  H   LIG     1      18.253  36.120  19.272  1.00  0.00     0.217 HD
ENDBRANCH   1   7
BRANCH   2   9
HETATM    9  O   LIG     1      16.371  35.018  22.354  1.00  0.00    -0.358 OA
HETATM   10  H   LIG     1      15.377  34.870  22.220  1.00  0.00     0.217 HD
ENDBRANCH   2   9
TORSDOF 2
ENDMDL
