REMARK  0 active torsions:
REMARK  status: ('A' for Active; 'I' for Inactive)
ROOT
HETATM    1  C   LIG     1       1.125   0.832  -0.030  1.00  0.00    -0.025 A 
HETATM    2  C   LIG     1       2.256   1.650  -0.179  1.00  0.00     0.012 A 
HETATM    3  C   LIG     1       3.537   1.116  -0.012  1.00  0.00     0.001 A 
HETATM    4  C   LIG     1       3.699  -0.235   0.305  1.00  0.00     0.001 A 
HETATM    5  C   LIG     1       2.582  -1.061   0.457  1.00  0.00     0.012 A 
HETATM    6  C   LIG     1       1.290  -0.538   0.292  1.00  0.00    -0.025 A 
HETATM    7  C   LIG     1       0.163  -1.360   0.442  1.00  0.00     0.024 A 
HETATM    8  C   LIG     1      -1.125  -0.832   0.276  1.00  0.00    -0.025 A 
HETATM    9  C   LIG     1      -1.290   0.538  -0.045  1.00  0.00    -0.025 A 
HETATM   10  C   LIG     1      -2.582   1.061  -0.210  1.00  0.00     0.012 A 
HETATM   11  C   LIG     1      -3.699   0.235  -0.059  1.00  0.00     0.001 A 
HETATM   12  C   LIG     1      -3.537  -1.116   0.258  1.00  0.00     0.001 A 
HETATM   13  C   LIG     1      -2.256  -1.650   0.425  1.00  0.00     0.012 A 
HETATM   14  C   LIG     1      -0.163   1.360  -0.196  1.00  0.00     0.024 A 
ENDROOT
TORSDOF 0
