REMARK  4 active torsions:
REMARK  status: ('A' for Active; 'I' for Inactive)
REMARK    1  A    between atoms: C_2  and  C_3 
REMARK    2  A    between atoms: C_2  and  O_10 
REMARK    3  A    between atoms: C_6  and  O_7 
REMARK    4  A    between atoms: O_10  and  C_11 
ROOT
HETATM    1  C   LIG     1       0.608  -0.245  -0.420  1.00  0.00     0.039 A 
HETATM    2  C   LIG     1       1.487  -0.417  -1.506  1.00  0.00     0.020 A 
HETATM    3  C   LIG     1       2.831  -0.048  -1.394  1.00  0.00     0.037 A 
HETATM    4  C   LIG     1       3.315   0.495  -0.201  1.00  0.00     0.065 A 
HETATM    5  C   LIG     1       2.448   0.670   0.884  1.00  0.00     0.037 A 
HETATM    6  C   LIG     1       1.103   0.303   0.776  1.00  0.00     0.020 A 
ENDROOT
BRANCH   1   7
HETATM    7  C   LIG     1      -0.816  -0.632  -0.532  1.00  0.00     0.293 C 
HETATM    8  O   LIG     1      -1.256  -1.123  -1.609  1.00  0.00    -0.259 OA
BRANCH   7   9
HETATM    9  O   LIG     1      -1.673  -0.459   0.563  1.00  0.00    -0.318 OA
BRANCH   9  10
HETATM   10  C   LIG     1      -3.067  -0.755   0.526  1.00  0.00     0.174 C 
HETATM   11  C   LIG     1      -3.827   0.329  -0.231  1.00  0.00     0.034 C 
ENDBRANCH   9  10
ENDBRANCH   7   9
ENDBRANCH   1   7
BRANCH   4  12
HETATM   12  O   LIG     1       4.657   0.858  -0.104  1.00  0.00    -0.361 OA
HETATM   13  H   LIG     1       5.038   1.255   0.747  1.00  0.00     0.217 HD
ENDBRANCH   4  12
TORSDOF 4
