MODEL 1
REMARK VINA RESULT:      -5.0      0.000      0.000
REMARK  0 active torsions:
REMARK  status: ('A' for Active; 'I' for Inactive)
ROOT
HETATM    1  O   LIG     1      19.113  36.709  19.282  1.00  0.00    -0.262 OA
HETATM    2  C   LIG     1      18.856  37.647  20.082  1.00  0.00     0.317 A 
HETATM    3  N   LIG     1      17.869  37.584  21.101  1.00  0.00    -0.271 N 
HETATM    4  C   LIG     1      17.947  38.862  21.734  1.00  0.00     0.330 A 
HETATM    5  O   LIG     1      17.218  39.197  22.703  1.00  0.00    -0.246 OA
HETATM    6  C   LIG     1      19.503  38.945  20.119  1.00  0.00     0.317 A 
HETATM    7  N   LIG     1      18.933  39.723  21.164  1.00  0.00    -0.271 N 
HETATM    8  O   LIG     1      20.423  39.342  19.358  1.00  0.00    -0.262 OA
HETATM    9  H   LIG     1      17.234  36.789  21.335  1.00  0.00     0.174 HD
HETATM   10  H   LIG     1      19.180  40.697  21.447  1.00  0.00     0.174 HD
ENDROOT
TORSDOF 0
ENDMDL
MODEL 2
REMARK VINA RESULT:      -5.0      0.039      2.030
REMARK  0 active torsions:
REMARK  status: ('A' for Active; 'I' for Inactive)
ROOT
HETATM    1  O   LIG     1      20.466  39.298  19.369  1.00  0.00    -0.262 OA
HETATM    2  C   LIG     1      19.529  38.914  20.116  1.00  0.00     0.317 A 
HETATM    3  N   LIG     1      18.951  39.701  21.148  1.00  0.00    -0.271 N 
HETATM    4  C   LIG     1      17.947  38.853  21.706  1.00  0.00     0.330 A 
HETATM    5  O   LIG     1      17.204  39.200  22.660  1.00  0.00    -0.246 OA
HETATM    6  C   LIG     1      18.870  37.621  20.073  1.00  0.00     0.317 A 
HETATM    7  N   LIG     1      17.865  37.574  21.077  1.00  0.00    -0.271 N 
HETATM    8  O   LIG     1      19.130  36.678  19.282  1.00  0.00    -0.262 OA
HETATM    9  H   LIG     1      19.201  40.674  21.431  1.00  0.00     0.174 HD
HETATM   10  H   LIG     1      17.219  36.785  21.302  1.00  0.00     0.174 HD
ENDROOT
TORSDOF 0
ENDMDL
MODEL 3
REMARK VINA RESULT:      -5.0      4.272      5.223
REMARK  0 active torsions:
REMARK  status: ('A' for Active; 'I' for Inactive)
ROOT
HETATM    1  O   LIG     1      17.403  34.741  24.843  1.00  0.00    -0.262 OA
HETATM    2  C   LIG     1      17.404  35.999  24.870  1.00  0.00     0.317 A 
HETATM    3  N   LIG     1      16.878  36.824  23.840  1.00  0.00    -0.271 N 
HETATM    4  C   LIG     1      17.102  38.152  24.315  1.00  0.00     0.330 A 
HETATM    5  O   LIG     1      16.767  39.179  23.671  1.00  0.00    -0.246 OA
HETATM    6  C   LIG     1      17.929  36.835  25.933  1.00  0.00     0.317 A 
HETATM    7  N   LIG     1      17.742  38.202  25.590  1.00  0.00    -0.271 N 
HETATM    8  O   LIG     1      18.469  36.437  26.998  1.00  0.00    -0.262 OA
HETATM    9  H   LIG     1      16.430  36.528  22.945  1.00  0.00     0.174 HD
HETATM   10  H   LIG     1      18.012  39.046  26.143  1.00  0.00     0.174 HD
ENDROOT
TORSDOF 0
ENDMDL
MODEL 4
REMARK VINA RESULT:      -5.0      4.249      5.515
REMARK  0 active torsions:
REMARK  status: ('A' for Active; 'I' for Inactive)
ROOT
HETATM    1  O   LIG     1      18.449  36.443  27.024  1.00  0.00    -0.262 OA
HETATM    2  C   LIG     1      17.920  36.824  25.948  1.00  0.00     0.317 A 
HETATM    3  N   LIG     1      17.751  38.184  25.575  1.00  0.00    -0.271 N 
HETATM    4  C   LIG     1      17.118  38.114  24.296  1.00  0.00     0.330 A 
HETATM    5  O   LIG     1      16.800  39.131  23.628  1.00  0.00    -0.246 OA
HETATM    6  C   LIG     1      17.392  35.970  24.900  1.00  0.00     0.317 A 
HETATM    7  N   LIG     1      16.882  36.779  23.849  1.00  0.00    -0.271 N 
HETATM    8  O   LIG     1      17.378  34.712  24.901  1.00  0.00    -0.262 OA
HETATM    9  H   LIG     1      18.027  39.037  26.110  1.00  0.00     0.174 HD
HETATM   10  H   LIG     1      16.436  36.467  22.957  1.00  0.00     0.174 HD
ENDROOT
TORSDOF 0
ENDMDL
MODEL 5
REMARK VINA RESULT:      -4.8      4.405      5.514
REMARK  0 active torsions:
REMARK  status: ('A' for Active; 'I' for Inactive)
ROOT
HETATM    1  O   LIG     1      16.953  38.825  24.878  1.00  0.00    -0.262 OA
HETATM    2  C   LIG     1      17.136  37.581  24.927  1.00  0.00     0.317 A 
HETATM    3  N   LIG     1      17.539  36.874  26.092  1.00  0.00    -0.271 N 
HETATM    4  C   LIG     1      17.611  35.514  25.661  1.00  0.00     0.330 A 
HETATM    5  O   LIG     1      17.939  34.567  26.421  1.00  0.00    -0.246 OA
HETATM    6  C   LIG     1      16.975  36.645  23.830  1.00  0.00     0.317 A 
HETATM    7  N   LIG     1      17.274  35.332  24.286  1.00  0.00    -0.271 N 
HETATM    8  O   LIG     1      16.627  36.927  22.654  1.00  0.00    -0.262 OA
HETATM    9  H   LIG     1      17.736  37.259  27.042  1.00  0.00     0.174 HD
HETATM   10  H   LIG     1      17.252  34.442  23.740  1.00  0.00     0.174 HD
ENDROOT
TORSDOF 0
ENDMDL
MODEL 6
REMARK VINA RESULT:      -4.8      1.142      3.319
REMARK  0 active torsions:
REMARK  status: ('A' for Active; 'I' for Inactive)
ROOT
HETATM    1  O   LIG     1      17.276  38.954  22.540  1.00  0.00    -0.262 OA
HETATM    2  C   LIG     1      18.041  38.720  21.568  1.00  0.00     0.317 A 
HETATM    3  N   LIG     1      18.977  39.650  21.043  1.00  0.00    -0.271 N 
HETATM    4  C   LIG     1      19.600  38.942  19.970  1.00  0.00     0.330 A 
HETATM    5  O   LIG     1      20.502  39.439  19.248  1.00  0.00    -0.246 OA
HETATM    6  C   LIG     1      18.116  37.484  20.811  1.00  0.00     0.317 A 
HETATM    7  N   LIG     1      19.102  37.615  19.796  1.00  0.00    -0.271 N 
HETATM    8  O   LIG     1      17.428  36.448  21.005  1.00  0.00    -0.262 OA
HETATM    9  H   LIG     1      19.167  40.624  21.366  1.00  0.00     0.174 HD
HETATM   10  H   LIG     1      19.393  36.905  19.088  1.00  0.00     0.174 HD
ENDROOT
TORSDOF 0
ENDMDL
MODEL 7
REMARK VINA RESULT:      -4.8      1.177      2.831
REMARK  0 active torsions:
REMARK  status: ('A' for Active; 'I' for Inactive)
ROOT
HETATM    1  O   LIG     1      17.283  36.603  21.174  1.00  0.00    -0.262 OA
HETATM    2  C   LIG     1      18.009  37.606  20.949  1.00  0.00     0.317 A 
HETATM    3  N   LIG     1      19.000  37.668  19.934  1.00  0.00    -0.271 N 
HETATM    4  C   LIG     1      19.546  38.981  20.066  1.00  0.00     0.330 A 
HETATM    5  O   LIG     1      20.466  39.422  19.330  1.00  0.00    -0.246 OA
HETATM    6  C   LIG     1      17.977  38.867  21.666  1.00  0.00     0.317 A 
HETATM    7  N   LIG     1      18.948  39.745  21.113  1.00  0.00    -0.271 N 
HETATM    8  O   LIG     1      17.219  39.160  22.627  1.00  0.00    -0.262 OA
HETATM    9  H   LIG     1      19.267  36.927  19.248  1.00  0.00     0.174 HD
HETATM   10  H   LIG     1      19.172  40.723  21.407  1.00  0.00     0.174 HD
ENDROOT
TORSDOF 0
ENDMDL
MODEL 8
REMARK VINA RESULT:      -4.8      4.418      5.299
REMARK  0 active torsions:
REMARK  status: ('A' for Active; 'I' for Inactive)
ROOT
HETATM    1  O   LIG     1      16.738  36.788  22.600  1.00  0.00    -0.262 OA
HETATM    2  C   LIG     1      17.011  36.505  23.795  1.00  0.00     0.317 A 
HETATM    3  N   LIG     1      17.258  35.189  24.271  1.00  0.00    -0.271 N 
HETATM    4  C   LIG     1      17.518  35.371  25.664  1.00  0.00     0.330 A 
HETATM    5  O   LIG     1      17.786  34.421  26.444  1.00  0.00    -0.246 OA
HETATM    6  C   LIG     1      17.125  37.443  24.896  1.00  0.00     0.317 A 
HETATM    7  N   LIG     1      17.447  36.733  26.085  1.00  0.00    -0.271 N 
HETATM    8  O   LIG     1      16.969  38.690  24.833  1.00  0.00    -0.262 OA
HETATM    9  H   LIG     1      17.252  34.297  23.729  1.00  0.00     0.174 HD
HETATM   10  H   LIG     1      17.595  37.120  27.044  1.00  0.00     0.174 HD
ENDROOT
TORSDOF 0
ENDMDL
MODEL 9
REMARK VINA RESULT:      -4.8      7.031      8.411
REMARK  0 active torsions:
REMARK  status: ('A' for Active; 'I' for Inactive)
ROOT
HETATM    1  O   LIG     1      14.524  31.418  19.765  1.00  0.00    -0.262 OA
HETATM    2  C   LIG     1      14.619  32.041  18.676  1.00  0.00     0.317 A 
HETATM    3  N   LIG     1      15.327  33.261  18.509  1.00  0.00    -0.271 N 
HETATM    4  C   LIG     1      15.152  33.573  17.126  1.00  0.00     0.330 A 
HETATM    5  O   LIG     1      15.641  34.598  16.584  1.00  0.00    -0.246 OA
HETATM    6  C   LIG     1      14.038  31.645  17.406  1.00  0.00     0.317 A 
HETATM    7  N   LIG     1      14.371  32.610  16.417  1.00  0.00    -0.271 N 
HETATM    8  O   LIG     1      13.346  30.616  17.191  1.00  0.00    -0.262 OA
HETATM    9  H   LIG     1      15.853  33.804  19.229  1.00  0.00     0.174 HD
HETATM   10  H   LIG     1      14.105  32.614  15.407  1.00  0.00     0.174 HD
ENDROOT
TORSDOF 0
ENDMDL
MODEL 10
REMARK VINA RESULT:      -4.6      4.399      5.490
REMARK  0 active torsions:
REMARK  status: ('A' for Active; 'I' for Inactive)
ROOT
HETATM    1  O   LIG     1      17.981  36.137  26.825  1.00  0.00    -0.262 OA
HETATM    2  C   LIG     1      17.589  36.206  25.631  1.00  0.00     0.317 A 
HETATM    3  N   LIG     1      17.473  35.091  24.759  1.00  0.00    -0.271 N 
HETATM    4  C   LIG     1      17.000  35.658  23.536  1.00  0.00     0.330 A 
HETATM    5  O   LIG     1      16.769  34.977  22.505  1.00  0.00    -0.246 OA
HETATM    6  C   LIG     1      17.189  37.410  24.926  1.00  0.00     0.317 A 
HETATM    7  N   LIG     1      16.813  37.073  23.598  1.00  0.00    -0.271 N 
HETATM    8  O   LIG     1      17.169  38.577  25.396  1.00  0.00    -0.262 OA
HETATM    9  H   LIG     1      17.684  34.089  24.964  1.00  0.00     0.174 HD
HETATM   10  H   LIG     1      16.479  37.712  22.842  1.00  0.00     0.174 HD
ENDROOT
TORSDOF 0
ENDMDL
MODEL 11
REMARK VINA RESULT:      -4.6      7.155      8.174
REMARK  0 active torsions:
REMARK  status: ('A' for Active; 'I' for Inactive)
ROOT
HETATM    1  O   LIG     1      15.639  33.646  19.404  1.00  0.00    -0.262 OA
HETATM    2  C   LIG     1      15.055  33.056  18.457  1.00  0.00     0.317 A 
HETATM    3  N   LIG     1      14.251  31.895  18.610  1.00  0.00    -0.271 N 
HETATM    4  C   LIG     1      13.815  31.602  17.282  1.00  0.00     0.330 A 
HETATM    5  O   LIG     1      13.069  30.629  17.001  1.00  0.00    -0.246 OA
HETATM    6  C   LIG     1      15.089  33.436  17.057  1.00  0.00     0.317 A 
HETATM    7  N   LIG     1      14.304  32.520  16.304  1.00  0.00    -0.271 N 
HETATM    8  O   LIG     1      15.706  34.416  16.565  1.00  0.00    -0.262 OA
HETATM    9  H   LIG     1      14.029  31.377  19.489  1.00  0.00     0.174 HD
HETATM   10  H   LIG     1      14.129  32.520  15.275  1.00  0.00     0.174 HD
ENDROOT
TORSDOF 0
ENDMDL
MODEL 12
REMARK VINA RESULT:      -4.6      3.699      4.702
REMARK  0 active torsions:
REMARK  status: ('A' for Active; 'I' for Inactive)
ROOT
HETATM    1  O   LIG     1      16.820  38.262  25.377  1.00  0.00    -0.262 OA
HETATM    2  C   LIG     1      16.758  37.601  24.308  1.00  0.00     0.317 A 
HETATM    3  N   LIG     1      17.195  36.256  24.169  1.00  0.00    -0.271 N 
HETATM    4  C   LIG     1      16.926  35.947  22.801  1.00  0.00     0.330 A 
HETATM    5  O   LIG     1      17.178  34.827  22.285  1.00  0.00    -0.246 OA
HETATM    6  C   LIG     1      16.240  38.070  23.036  1.00  0.00     0.317 A 
HETATM    7  N   LIG     1      16.342  37.028  22.075  1.00  0.00    -0.271 N 
HETATM    8  O   LIG     1      15.770  39.213  22.799  1.00  0.00    -0.262 OA
HETATM    9  H   LIG     1      17.615  35.637  24.898  1.00  0.00     0.174 HD
HETATM   10  H   LIG     1      16.056  37.051  21.070  1.00  0.00     0.174 HD
ENDROOT
TORSDOF 0
ENDMDL
MODEL 13
REMARK VINA RESULT:      -4.6      7.132      8.222
REMARK  0 active torsions:
REMARK  status: ('A' for Active; 'I' for Inactive)
ROOT
HETATM    1  O   LIG     1      15.773  34.355  16.474  1.00  0.00    -0.262 OA
HETATM    2  C   LIG     1      15.138  33.403  16.996  1.00  0.00     0.317 A 
HETATM    3  N   LIG     1      14.365  32.459  16.269  1.00  0.00    -0.271 N 
HETATM    4  C   LIG     1      13.847  31.589  17.276  1.00  0.00     0.330 A 
HETATM    5  O   LIG     1      13.102  30.608  17.023  1.00  0.00    -0.246 OA
HETATM    6  C   LIG     1      15.073  33.088  18.411  1.00  0.00     0.317 A 
HETATM    7  N   LIG     1      14.256  31.939  18.599  1.00  0.00    -0.271 N 
HETATM    8  O   LIG     1      15.640  33.716  19.342  1.00  0.00    -0.262 OA
HETATM    9  H   LIG     1      14.211  32.412  15.237  1.00  0.00     0.174 HD
HETATM   10  H   LIG     1      14.013  31.463  19.496  1.00  0.00     0.174 HD
ENDROOT
TORSDOF 0
ENDMDL
MODEL 14
REMARK VINA RESULT:      -4.6      7.462      8.566
REMARK  0 active torsions:
REMARK  status: ('A' for Active; 'I' for Inactive)
ROOT
HETATM    1  O   LIG     1      12.852  30.655  16.694  1.00  0.00    -0.262 OA
HETATM    2  C   LIG     1      13.794  31.396  17.077  1.00  0.00     0.317 A 
HETATM    3  N   LIG     1      13.951  31.872  18.407  1.00  0.00    -0.271 N 
HETATM    4  C   LIG     1      15.142  32.658  18.352  1.00  0.00     0.330 A 
HETATM    5  O   LIG     1      15.619  33.256  19.351  1.00  0.00    -0.246 OA
HETATM    6  C   LIG     1      14.881  31.899  16.257  1.00  0.00     0.317 A 
HETATM    7  N   LIG     1      15.741  32.699  17.057  1.00  0.00    -0.271 N 
HETATM    8  O   LIG     1      15.055  31.674  15.031  1.00  0.00    -0.262 OA
HETATM    9  H   LIG     1      13.338  31.689  19.232  1.00  0.00     0.174 HD
HETATM   10  H   LIG     1      16.608  33.202  16.763  1.00  0.00     0.174 HD
ENDROOT
TORSDOF 0
ENDMDL
MODEL 15
REMARK VINA RESULT:      -4.5      1.882      2.841
REMARK  0 active torsions:
REMARK  status: ('A' for Active; 'I' for Inactive)
ROOT
HETATM    1  O   LIG     1      18.679  39.273  20.659  1.00  0.00    -0.262 OA
HETATM    2  C   LIG     1      17.957  38.591  21.431  1.00  0.00     0.317 A 
HETATM    3  N   LIG     1      17.315  39.104  22.590  1.00  0.00    -0.271 N 
HETATM    4  C   LIG     1      16.624  37.975  23.128  1.00  0.00     0.330 A 
HETATM    5  O   LIG     1      15.926  38.029  24.173  1.00  0.00    -0.246 OA
HETATM    6  C   LIG     1      17.645  37.181  21.294  1.00  0.00     0.317 A 
HETATM    7  N   LIG     1      16.800  36.781  22.365  1.00  0.00    -0.271 N 
HETATM    8  O   LIG     1      18.047  36.414  20.382  1.00  0.00    -0.262 OA
HETATM    9  H   LIG     1      17.340  40.079  22.962  1.00  0.00     0.174 HD
HETATM   10  H   LIG     1      16.402  35.833  22.551  1.00  0.00     0.174 HD
ENDROOT
TORSDOF 0
ENDMDL
MODEL 16
REMARK VINA RESULT:      -4.4      1.880      2.023
REMARK  0 active torsions:
REMARK  status: ('A' for Active; 'I' for Inactive)
ROOT
HETATM    1  O   LIG     1      17.926  36.270  20.283  1.00  0.00    -0.262 OA
HETATM    2  C   LIG     1      17.544  37.057  21.188  1.00  0.00     0.317 A 
HETATM    3  N   LIG     1      16.616  36.716  22.209  1.00  0.00    -0.271 N 
HETATM    4  C   LIG     1      16.501  37.912  22.981  1.00  0.00     0.330 A 
HETATM    5  O   LIG     1      15.760  38.010  23.993  1.00  0.00    -0.246 OA
HETATM    6  C   LIG     1      17.965  38.435  21.362  1.00  0.00     0.317 A 
HETATM    7  N   LIG     1      17.309  38.985  22.497  1.00  0.00    -0.271 N 
HETATM    8  O   LIG     1      18.779  39.063  20.637  1.00  0.00    -0.262 OA
HETATM    9  H   LIG     1      16.132  35.804  22.360  1.00  0.00     0.174 HD
HETATM   10  H   LIG     1      17.399  39.951  22.885  1.00  0.00     0.174 HD
ENDROOT
TORSDOF 0
ENDMDL
MODEL 17
REMARK VINA RESULT:      -4.4      3.487      4.206
REMARK  0 active torsions:
REMARK  status: ('A' for Active; 'I' for Inactive)
ROOT
HETATM    1  O   LIG     1      17.146  34.882  23.648  1.00  0.00    -0.262 OA
HETATM    2  C   LIG     1      17.087  36.111  23.911  1.00  0.00     0.317 A 
HETATM    3  N   LIG     1      17.201  36.659  25.216  1.00  0.00    -0.271 N 
HETATM    4  C   LIG     1      17.074  38.067  25.010  1.00  0.00     0.330 A 
HETATM    5  O   LIG     1      17.123  38.907  25.946  1.00  0.00    -0.246 OA
HETATM    6  C   LIG     1      16.896  37.186  22.954  1.00  0.00     0.317 A 
HETATM    7  N   LIG     1      16.886  38.429  23.642  1.00  0.00    -0.271 N 
HETATM    8  O   LIG     1      16.758  37.061  21.710  1.00  0.00    -0.262 OA
HETATM    9  H   LIG     1      17.345  36.151  26.117  1.00  0.00     0.174 HD
HETATM   10  H   LIG     1      16.769  39.386  23.240  1.00  0.00     0.174 HD
ENDROOT
TORSDOF 0
ENDMDL
MODEL 18
REMARK VINA RESULT:      -4.4      2.137      3.520
REMARK  0 active torsions:
REMARK  status: ('A' for Active; 'I' for Inactive)
ROOT
HETATM    1  O   LIG     1      16.620  35.766  22.378  1.00  0.00    -0.262 OA
HETATM    2  C   LIG     1      17.003  36.958  22.248  1.00  0.00     0.317 A 
HETATM    3  N   LIG     1      17.834  37.422  21.194  1.00  0.00    -0.271 N 
HETATM    4  C   LIG     1      17.991  38.815  21.469  1.00  0.00     0.330 A 
HETATM    5  O   LIG     1      18.672  39.587  20.746  1.00  0.00    -0.246 OA
HETATM    6  C   LIG     1      16.679  38.065  23.128  1.00  0.00     0.317 A 
HETATM    7  N   LIG     1      17.301  39.247  22.641  1.00  0.00    -0.271 N 
HETATM    8  O   LIG     1      15.963  38.012  24.161  1.00  0.00    -0.262 OA
HETATM    9  H   LIG     1      18.236  36.874  20.402  1.00  0.00     0.174 HD
HETATM   10  H   LIG     1      17.261  40.208  23.049  1.00  0.00     0.174 HD
ENDROOT
TORSDOF 0
ENDMDL
MODEL 19
REMARK VINA RESULT:      -4.4      2.180      3.935
REMARK  0 active torsions:
REMARK  status: ('A' for Active; 'I' for Inactive)
ROOT
HETATM    1  O   LIG     1      16.028  38.035  24.264  1.00  0.00    -0.262 OA
HETATM    2  C   LIG     1      16.680  38.032  23.187  1.00  0.00     0.317 A 
HETATM    3  N   LIG     1      17.308  39.177  22.627  1.00  0.00    -0.271 N 
HETATM    4  C   LIG     1      17.911  38.686  21.429  1.00  0.00     0.330 A 
HETATM    5  O   LIG     1      18.572  39.412  20.643  1.00  0.00    -0.246 OA
HETATM    6  C   LIG     1      16.913  36.888  22.326  1.00  0.00     0.317 A 
HETATM    7  N   LIG     1      17.693  37.292  21.209  1.00  0.00    -0.271 N 
HETATM    8  O   LIG     1      16.500  35.714  22.518  1.00  0.00    -0.262 OA
HETATM    9  H   LIG     1      17.327  40.150  23.004  1.00  0.00     0.174 HD
HETATM   10  H   LIG     1      18.027  36.705  20.412  1.00  0.00     0.174 HD
ENDROOT
TORSDOF 0
ENDMDL
MODEL 20
REMARK VINA RESULT:      -4.4      7.297      8.256
REMARK  0 active torsions:
REMARK  status: ('A' for Active; 'I' for Inactive)
ROOT
HETATM    1  O   LIG     1      15.301  33.811  16.178  1.00  0.00    -0.262 OA
HETATM    2  C   LIG     1      14.964  33.062  17.132  1.00  0.00     0.317 A 
HETATM    3  N   LIG     1      15.343  33.269  18.486  1.00  0.00    -0.271 N 
HETATM    4  C   LIG     1      14.732  32.182  19.183  1.00  0.00     0.330 A 
HETATM    5  O   LIG     1      14.838  32.015  20.426  1.00  0.00    -0.246 OA
HETATM    6  C   LIG     1      14.143  31.870  17.040  1.00  0.00     0.317 A 
HETATM    7  N   LIG     1      13.990  31.305  18.336  1.00  0.00    -0.271 N 
HETATM    8  O   LIG     1      13.636  31.392  15.993  1.00  0.00    -0.262 OA
HETATM    9  H   LIG     1      15.930  34.037  18.880  1.00  0.00     0.174 HD
HETATM   10  H   LIG     1      13.459  30.447  18.604  1.00  0.00     0.174 HD
ENDROOT
TORSDOF 0
ENDMDL
