REMARK  1 active torsions:
REMARK  status: ('A' for Active; 'I' for Inactive)
REMARK    1  A    between atoms: C_8  and  O_9 
ROOT
HETATM    1 CL   LIG     1      -2.143  -2.004  -0.333  1.00  0.00    -0.081 Cl
HETATM    2  C   LIG     1      -0.812  -0.869  -0.151  1.00  0.00     0.068 A 
HETATM    3  C   LIG     1       0.496  -1.334  -0.331  1.00  0.00     0.050 A 
HETATM    4  C   LIG     1       1.581  -0.461  -0.194  1.00  0.00     0.035 A 
HETATM    5 CL   LIG     1       3.217  -1.051  -0.420  1.00  0.00    -0.084 Cl
HETATM    6  C   LIG     1       1.359   0.882   0.123  1.00  0.00     0.026 A 
HETATM    7  C   LIG     1       0.056   1.353   0.303  1.00  0.00     0.040 A 
HETATM    8  C   LIG     1      -1.036   0.486   0.169  1.00  0.00     0.087 A 
ENDROOT
BRANCH   8   9
HETATM    9  O   LIG     1      -2.322   0.994   0.357  1.00  0.00    -0.359 OA
HETATM   10  H   LIG     1      -3.153   0.423   0.274  1.00  0.00     0.217 HD
ENDBRANCH   8   9
TORSDOF 1
