MODEL 1
REMARK VINA RESULT:      -6.0      0.000      0.000
REMARK  1 active torsions:
REMARK  status: ('A' for Active; 'I' for Inactive)
REMARK    1  A    between atoms: C_8  and  O_9 
ROOT
HETATM    1 CL   LIG     1      17.985  35.412  26.522  1.00  0.00    -0.081 Cl
HETATM    2  C   LIG     1      17.448  36.099  24.994  1.00  0.00     0.068 A 
HETATM    3  C   LIG     1      17.194  35.235  23.922  1.00  0.00     0.050 A 
HETATM    4  C   LIG     1      16.766  35.744  22.691  1.00  0.00     0.035 A 
HETATM    5 CL   LIG     1      16.452  34.656  21.352  1.00  0.00    -0.084 Cl
HETATM    6  C   LIG     1      16.590  37.121  22.530  1.00  0.00     0.026 A 
HETATM    7  C   LIG     1      16.840  37.989  23.596  1.00  0.00     0.040 A 
HETATM    8  C   LIG     1      17.270  37.488  24.832  1.00  0.00     0.087 A 
ENDROOT
BRANCH   8   9
HETATM    9  O   LIG     1      17.510  38.386  25.872  1.00  0.00    -0.359 OA
HETATM   10  H   LIG     1      18.395  38.863  25.990  1.00  0.00     0.217 HD
ENDBRANCH   8   9
TORSDOF 1
ENDMDL
MODEL 2
REMARK VINA RESULT:      -5.9      1.378      3.256
REMARK  1 active torsions:
REMARK  status: ('A' for Active; 'I' for Inactive)
REMARK    1  A    between atoms: C_8  and  O_9 
ROOT
HETATM    1 CL   LIG     1      16.083  36.163  21.795  1.00  0.00    -0.081 Cl
HETATM    2  C   LIG     1      16.751  36.602  23.362  1.00  0.00     0.068 A 
HETATM    3  C   LIG     1      17.254  35.587  24.185  1.00  0.00     0.050 A 
HETATM    4  C   LIG     1      17.793  35.897  25.439  1.00  0.00     0.035 A 
HETATM    5 CL   LIG     1      18.420  34.620  26.464  1.00  0.00    -0.084 Cl
HETATM    6  C   LIG     1      17.831  37.225  25.872  1.00  0.00     0.026 A 
HETATM    7  C   LIG     1      17.332  38.243  25.055  1.00  0.00     0.040 A 
HETATM    8  C   LIG     1      16.789  37.942  23.799  1.00  0.00     0.087 A 
ENDROOT
BRANCH   8   9
HETATM    9  O   LIG     1      16.300  38.986  23.013  1.00  0.00    -0.359 OA
HETATM   10  H   LIG     1      15.385  38.964  22.582  1.00  0.00     0.217 HD
ENDBRANCH   8   9
TORSDOF 1
ENDMDL
MODEL 3
REMARK VINA RESULT:      -5.8      2.376      3.899
REMARK  1 active torsions:
REMARK  status: ('A' for Active; 'I' for Inactive)
REMARK    1  A    between atoms: C_8  and  O_9 
ROOT
HETATM    1 CL   LIG     1      16.858  39.082  22.523  1.00  0.00    -0.081 Cl
HETATM    2  C   LIG     1      17.052  37.516  23.300  1.00  0.00     0.068 A 
HETATM    3  C   LIG     1      17.484  37.476  24.631  1.00  0.00     0.050 A 
HETATM    4  C   LIG     1      17.651  36.249  25.283  1.00  0.00     0.035 A 
HETATM    5 CL   LIG     1      18.192  36.207  26.950  1.00  0.00    -0.084 Cl
HETATM    6  C   LIG     1      17.384  35.057  24.603  1.00  0.00     0.026 A 
HETATM    7  C   LIG     1      16.953  35.090  23.275  1.00  0.00     0.040 A 
HETATM    8  C   LIG     1      16.784  36.313  22.614  1.00  0.00     0.087 A 
ENDROOT
BRANCH   8   9
HETATM    9  O   LIG     1      16.352  36.305  21.287  1.00  0.00    -0.359 OA
HETATM   10  H   LIG     1      16.987  36.388  20.505  1.00  0.00     0.217 HD
ENDBRANCH   8   9
TORSDOF 1
ENDMDL
MODEL 4
REMARK VINA RESULT:      -5.6      2.600      3.505
REMARK  1 active torsions:
REMARK  status: ('A' for Active; 'I' for Inactive)
REMARK    1  A    between atoms: C_8  and  O_9 
ROOT
HETATM    1 CL   LIG     1      16.045  35.249  22.081  1.00  0.00    -0.081 Cl
HETATM    2  C   LIG     1      16.879  36.786  21.896  1.00  0.00     0.068 A 
HETATM    3  C   LIG     1      17.860  36.903  20.904  1.00  0.00     0.050 A 
HETATM    4  C   LIG     1      18.545  38.110  20.728  1.00  0.00     0.035 A 
HETATM    5 CL   LIG     1      19.774  38.248  19.484  1.00  0.00    -0.084 Cl
HETATM    6  C   LIG     1      18.249  39.205  21.544  1.00  0.00     0.026 A 
HETATM    7  C   LIG     1      17.271  39.096  22.535  1.00  0.00     0.040 A 
HETATM    8  C   LIG     1      16.580  37.891  22.720  1.00  0.00     0.087 A 
ENDROOT
BRANCH   8   9
HETATM    9  O   LIG     1      15.610  37.821  23.720  1.00  0.00    -0.359 OA
HETATM   10  H   LIG     1      15.536  37.038  24.356  1.00  0.00     0.217 HD
ENDBRANCH   8   9
TORSDOF 1
ENDMDL
MODEL 5
REMARK VINA RESULT:      -5.6      3.553      4.713
REMARK  1 active torsions:
REMARK  status: ('A' for Active; 'I' for Inactive)
REMARK    1  A    between atoms: C_8  and  O_9 
ROOT
HETATM    1 CL   LIG     1      19.205  39.353  20.080  1.00  0.00    -0.081 Cl
HETATM    2  C   LIG     1      18.312  38.100  20.932  1.00  0.00     0.068 A 
HETATM    3  C   LIG     1      17.875  38.356  22.237  1.00  0.00     0.050 A 
HETATM    4  C   LIG     1      17.162  37.383  22.947  1.00  0.00     0.035 A 
HETATM    5 CL   LIG     1      16.618  37.712  24.581  1.00  0.00    -0.084 Cl
HETATM    6  C   LIG     1      16.884  36.150  22.351  1.00  0.00     0.026 A 
HETATM    7  C   LIG     1      17.317  35.888  21.049  1.00  0.00     0.040 A 
HETATM    8  C   LIG     1      18.032  36.855  20.331  1.00  0.00     0.087 A 
ENDROOT
BRANCH   8   9
HETATM    9  O   LIG     1      18.448  36.555  19.033  1.00  0.00    -0.359 OA
HETATM   10  H   LIG     1      18.519  37.255  18.306  1.00  0.00     0.217 HD
ENDBRANCH   8   9
TORSDOF 1
ENDMDL
MODEL 6
REMARK VINA RESULT:      -5.6      3.011      4.011
REMARK  1 active torsions:
REMARK  status: ('A' for Active; 'I' for Inactive)
REMARK    1  A    between atoms: C_8  and  O_9 
ROOT
HETATM    1 CL   LIG     1      19.950  38.441  19.379  1.00  0.00    -0.081 Cl
HETATM    2  C   LIG     1      18.683  37.932  20.488  1.00  0.00     0.068 A 
HETATM    3  C   LIG     1      18.132  36.655  20.337  1.00  0.00     0.050 A 
HETATM    4  C   LIG     1      17.121  36.215  21.199  1.00  0.00     0.035 A 
HETATM    5 CL   LIG     1      16.435  34.613  21.003  1.00  0.00    -0.084 Cl
HETATM    6  C   LIG     1      16.660  37.054  22.218  1.00  0.00     0.026 A 
HETATM    7  C   LIG     1      17.207  38.330  22.375  1.00  0.00     0.040 A 
HETATM    8  C   LIG     1      18.218  38.779  21.516  1.00  0.00     0.087 A 
ENDROOT
BRANCH   8   9
HETATM    9  O   LIG     1      18.738  40.060  21.704  1.00  0.00    -0.359 OA
HETATM   10  H   LIG     1      19.541  40.405  21.195  1.00  0.00     0.217 HD
ENDBRANCH   8   9
TORSDOF 1
ENDMDL
MODEL 7
REMARK VINA RESULT:      -5.5      3.827      4.521
REMARK  1 active torsions:
REMARK  status: ('A' for Active; 'I' for Inactive)
REMARK    1  A    between atoms: C_8  and  O_9 
ROOT
HETATM    1 CL   LIG     1      16.819  39.247  23.079  1.00  0.00    -0.081 Cl
HETATM    2  C   LIG     1      17.588  38.322  21.797  1.00  0.00     0.068 A 
HETATM    3  C   LIG     1      18.619  38.921  21.063  1.00  0.00     0.050 A 
HETATM    4  C   LIG     1      19.254  38.217  20.034  1.00  0.00     0.035 A 
HETATM    5 CL   LIG     1      20.544  38.974  19.118  1.00  0.00    -0.084 Cl
HETATM    6  C   LIG     1      18.860  36.909  19.738  1.00  0.00     0.026 A 
HETATM    7  C   LIG     1      17.832  36.305  20.467  1.00  0.00     0.040 A 
HETATM    8  C   LIG     1      17.190  37.003  21.497  1.00  0.00     0.087 A 
ENDROOT
BRANCH   8   9
HETATM    9  O   LIG     1      16.167  36.366  22.202  1.00  0.00    -0.359 OA
HETATM   10  H   LIG     1      15.544  35.695  21.774  1.00  0.00     0.217 HD
ENDBRANCH   8   9
TORSDOF 1
ENDMDL
MODEL 8
REMARK VINA RESULT:      -5.3      1.870      2.469
REMARK  1 active torsions:
REMARK  status: ('A' for Active; 'I' for Inactive)
REMARK    1  A    between atoms: C_8  and  O_9 
ROOT
HETATM    1 CL   LIG     1      16.851  39.506  22.956  1.00  0.00    -0.081 Cl
HETATM    2  C   LIG     1      16.953  37.788  23.319  1.00  0.00     0.068 A 
HETATM    3  C   LIG     1      16.692  36.870  22.295  1.00  0.00     0.050 A 
HETATM    4  C   LIG     1      16.762  35.495  22.545  1.00  0.00     0.035 A 
HETATM    5 CL   LIG     1      16.433  34.350  21.258  1.00  0.00    -0.084 Cl
HETATM    6  C   LIG     1      17.096  35.035  23.822  1.00  0.00     0.026 A 
HETATM    7  C   LIG     1      17.359  35.946  24.848  1.00  0.00     0.040 A 
HETATM    8  C   LIG     1      17.289  37.325  24.607  1.00  0.00     0.087 A 
ENDROOT
BRANCH   8   9
HETATM    9  O   LIG     1      17.558  38.203  25.658  1.00  0.00    -0.359 OA
HETATM   10  H   LIG     1      18.487  38.550  25.856  1.00  0.00     0.217 HD
ENDBRANCH   8   9
TORSDOF 1
ENDMDL
MODEL 9
REMARK VINA RESULT:      -5.3      9.396     10.627
REMARK  1 active torsions:
REMARK  status: ('A' for Active; 'I' for Inactive)
REMARK    1  A    between atoms: C_8  and  O_9 
ROOT
HETATM    1 CL   LIG     1      13.484  29.160  14.182  1.00  0.00    -0.081 Cl
HETATM    2  C   LIG     1      14.099  30.499  15.142  1.00  0.00     0.068 A 
HETATM    3  C   LIG     1      15.260  31.154  14.714  1.00  0.00     0.050 A 
HETATM    4  C   LIG     1      15.781  32.223  15.451  1.00  0.00     0.035 A 
HETATM    5 CL   LIG     1      17.236  33.038  14.910  1.00  0.00    -0.084 Cl
HETATM    6  C   LIG     1      15.138  32.642  16.620  1.00  0.00     0.026 A 
HETATM    7  C   LIG     1      13.978  31.994  17.052  1.00  0.00     0.040 A 
HETATM    8  C   LIG     1      13.451  30.921  16.321  1.00  0.00     0.087 A 
ENDROOT
BRANCH   8   9
HETATM    9  O   LIG     1      12.292  30.299  16.785  1.00  0.00    -0.359 OA
HETATM   10  H   LIG     1      11.761  29.644  16.226  1.00  0.00     0.217 HD
ENDBRANCH   8   9
TORSDOF 1
ENDMDL
MODEL 10
REMARK VINA RESULT:      -5.3      2.952      4.224
REMARK  1 active torsions:
REMARK  status: ('A' for Active; 'I' for Inactive)
REMARK    1  A    between atoms: C_8  and  O_9 
ROOT
HETATM    1 CL   LIG     1      16.425  34.486  20.923  1.00  0.00    -0.081 Cl
HETATM    2  C   LIG     1      17.077  36.040  21.428  1.00  0.00     0.068 A 
HETATM    3  C   LIG     1      16.826  36.481  22.732  1.00  0.00     0.050 A 
HETATM    4  C   LIG     1      17.327  37.712  23.170  1.00  0.00     0.035 A 
HETATM    5 CL   LIG     1      17.009  38.258  24.806  1.00  0.00    -0.084 Cl
HETATM    6  C   LIG     1      18.083  38.505  22.302  1.00  0.00     0.026 A 
HETATM    7  C   LIG     1      18.337  38.071  20.999  1.00  0.00     0.040 A 
HETATM    8  C   LIG     1      17.838  36.840  20.552  1.00  0.00     0.087 A 
ENDROOT
BRANCH   8   9
HETATM    9  O   LIG     1      18.114  36.442  19.243  1.00  0.00    -0.359 OA
HETATM   10  H   LIG     1      18.900  36.798  18.717  1.00  0.00     0.217 HD
ENDBRANCH   8   9
TORSDOF 1
ENDMDL
MODEL 11
REMARK VINA RESULT:      -5.2      3.172      3.742
REMARK  1 active torsions:
REMARK  status: ('A' for Active; 'I' for Inactive)
REMARK    1  A    between atoms: C_8  and  O_9 
ROOT
HETATM    1 CL   LIG     1      16.969  39.420  23.168  1.00  0.00    -0.081 Cl
HETATM    2  C   LIG     1      17.457  38.272  21.928  1.00  0.00     0.068 A 
HETATM    3  C   LIG     1      16.839  37.016  21.896  1.00  0.00     0.050 A 
HETATM    4  C   LIG     1      17.201  36.076  20.925  1.00  0.00     0.035 A 
HETATM    5 CL   LIG     1      16.424  34.504  20.891  1.00  0.00    -0.084 Cl
HETATM    6  C   LIG     1      18.183  36.391  19.982  1.00  0.00     0.026 A 
HETATM    7  C   LIG     1      18.803  37.643  20.008  1.00  0.00     0.040 A 
HETATM    8  C   LIG     1      18.448  38.590  20.977  1.00  0.00     0.087 A 
ENDROOT
BRANCH   8   9
HETATM    9  O   LIG     1      19.090  39.829  20.971  1.00  0.00    -0.359 OA
HETATM   10  H   LIG     1      19.805  40.071  20.296  1.00  0.00     0.217 HD
ENDBRANCH   8   9
TORSDOF 1
ENDMDL
MODEL 12
REMARK VINA RESULT:      -5.1      8.713      9.844
REMARK  1 active torsions:
REMARK  status: ('A' for Active; 'I' for Inactive)
REMARK    1  A    between atoms: C_8  and  O_9 
ROOT
HETATM    1 CL   LIG     1      17.035  33.427  15.177  1.00  0.00    -0.081 Cl
HETATM    2  C   LIG     1      15.639  32.473  15.664  1.00  0.00     0.068 A 
HETATM    3  C   LIG     1      15.278  31.367  14.887  1.00  0.00     0.050 A 
HETATM    4  C   LIG     1      14.174  30.584  15.242  1.00  0.00     0.035 A 
HETATM    5 CL   LIG     1      13.727  29.199  14.263  1.00  0.00    -0.084 Cl
HETATM    6  C   LIG     1      13.427  30.908  16.379  1.00  0.00     0.026 A 
HETATM    7  C   LIG     1      13.783  32.011  17.159  1.00  0.00     0.040 A 
HETATM    8  C   LIG     1      14.886  32.800  16.811  1.00  0.00     0.087 A 
ENDROOT
BRANCH   8   9
HETATM    9  O   LIG     1      15.209  33.894  17.615  1.00  0.00    -0.359 OA
HETATM   10  H   LIG     1      15.816  33.820  18.421  1.00  0.00     0.217 HD
ENDBRANCH   8   9
TORSDOF 1
ENDMDL
MODEL 13
REMARK VINA RESULT:      -5.1      3.489      4.499
REMARK  1 active torsions:
REMARK  status: ('A' for Active; 'I' for Inactive)
REMARK    1  A    between atoms: C_8  and  O_9 
ROOT
HETATM    1 CL   LIG     1      19.366  36.617  19.316  1.00  0.00    -0.081 Cl
HETATM    2  C   LIG     1      18.594  37.636  20.524  1.00  0.00     0.068 A 
HETATM    3  C   LIG     1      17.504  37.124  21.237  1.00  0.00     0.050 A 
HETATM    4  C   LIG     1      16.864  37.905  22.206  1.00  0.00     0.035 A 
HETATM    5 CL   LIG     1      15.498  37.256  23.095  1.00  0.00    -0.084 Cl
HETATM    6  C   LIG     1      17.315  39.202  22.465  1.00  0.00     0.026 A 
HETATM    7  C   LIG     1      18.404  39.719  21.757  1.00  0.00     0.040 A 
HETATM    8  C   LIG     1      19.050  38.945  20.785  1.00  0.00     0.087 A 
ENDROOT
BRANCH   8   9
HETATM    9  O   LIG     1      20.132  39.497  20.099  1.00  0.00    -0.359 OA
HETATM   10  H   LIG     1      21.093  39.314  20.357  1.00  0.00     0.217 HD
ENDBRANCH   8   9
TORSDOF 1
ENDMDL
MODEL 14
REMARK VINA RESULT:      -5.0      9.501     11.009
REMARK  1 active torsions:
REMARK  status: ('A' for Active; 'I' for Inactive)
REMARK    1  A    between atoms: C_8  and  O_9 
ROOT
HETATM    1 CL   LIG     1      15.493  30.110  13.383  1.00  0.00    -0.081 Cl
HETATM    2  C   LIG     1      14.640  30.788  14.764  1.00  0.00     0.068 A 
HETATM    3  C   LIG     1      15.202  31.884  15.429  1.00  0.00     0.050 A 
HETATM    4  C   LIG     1      14.553  32.450  16.531  1.00  0.00     0.035 A 
HETATM    5 CL   LIG     1      15.264  33.823  17.360  1.00  0.00    -0.084 Cl
HETATM    6  C   LIG     1      13.337  31.921  16.971  1.00  0.00     0.026 A 
HETATM    7  C   LIG     1      12.769  30.828  16.312  1.00  0.00     0.040 A 
HETATM    8  C   LIG     1      13.412  30.254  15.208  1.00  0.00     0.087 A 
ENDROOT
BRANCH   8   9
HETATM    9  O   LIG     1      12.814  29.163  14.576  1.00  0.00    -0.359 OA
HETATM   10  H   LIG     1      12.454  28.366  15.085  1.00  0.00     0.217 HD
ENDBRANCH   8   9
TORSDOF 1
ENDMDL
MODEL 15
REMARK VINA RESULT:      -4.8      9.615     10.686
REMARK  1 active torsions:
REMARK  status: ('A' for Active; 'I' for Inactive)
REMARK    1  A    between atoms: C_8  and  O_9 
ROOT
HETATM    1 CL   LIG     1      17.546  34.331  14.886  1.00  0.00    -0.081 Cl
HETATM    2  C   LIG     1      16.439  32.965  14.897  1.00  0.00     0.068 A 
HETATM    3  C   LIG     1      15.631  32.765  16.023  1.00  0.00     0.050 A 
HETATM    4  C   LIG     1      14.738  31.689  16.070  1.00  0.00     0.035 A 
HETATM    5 CL   LIG     1      13.731  31.444  17.484  1.00  0.00    -0.084 Cl
HETATM    6  C   LIG     1      14.650  30.809  14.987  1.00  0.00     0.026 A 
HETATM    7  C   LIG     1      15.452  31.004  13.860  1.00  0.00     0.040 A 
HETATM    8  C   LIG     1      16.350  32.078  13.805  1.00  0.00     0.087 A 
ENDROOT
BRANCH   8   9
HETATM    9  O   LIG     1      17.134  32.238  12.662  1.00  0.00    -0.359 OA
HETATM   10  H   LIG     1      17.819  31.554  12.369  1.00  0.00     0.217 HD
ENDBRANCH   8   9
TORSDOF 1
ENDMDL
MODEL 16
REMARK VINA RESULT:      -4.7      8.825     10.088
REMARK  1 active torsions:
REMARK  status: ('A' for Active; 'I' for Inactive)
REMARK    1  A    between atoms: C_8  and  O_9 
ROOT
HETATM    1 CL   LIG     1      15.029  33.001  18.244  1.00  0.00    -0.081 Cl
HETATM    2  C   LIG     1      15.092  32.245  16.657  1.00  0.00     0.068 A 
HETATM    3  C   LIG     1      15.985  32.753  15.707  1.00  0.00     0.050 A 
HETATM    4  C   LIG     1      16.063  32.179  14.433  1.00  0.00     0.035 A 
HETATM    5 CL   LIG     1      17.184  32.821  13.247  1.00  0.00    -0.084 Cl
HETATM    6  C   LIG     1      15.247  31.092  14.108  1.00  0.00     0.026 A 
HETATM    7  C   LIG     1      14.354  30.579  15.052  1.00  0.00     0.040 A 
HETATM    8  C   LIG     1      14.268  31.149  16.329  1.00  0.00     0.087 A 
ENDROOT
BRANCH   8   9
HETATM    9  O   LIG     1      13.363  30.609  17.244  1.00  0.00    -0.359 OA
HETATM   10  H   LIG     1      12.363  30.611  17.090  1.00  0.00     0.217 HD
ENDBRANCH   8   9
TORSDOF 1
ENDMDL
MODEL 17
REMARK VINA RESULT:      -4.7     10.776     12.151
REMARK  1 active torsions:
REMARK  status: ('A' for Active; 'I' for Inactive)
REMARK    1  A    between atoms: C_8  and  O_9 
ROOT
HETATM    1 CL   LIG     1      15.538  28.160  13.002  1.00  0.00    -0.081 Cl
HETATM    2  C   LIG     1      14.791  29.348  14.062  1.00  0.00     0.068 A 
HETATM    3  C   LIG     1      15.573  30.404  14.544  1.00  0.00     0.050 A 
HETATM    4  C   LIG     1      15.015  31.368  15.390  1.00  0.00     0.035 A 
HETATM    5 CL   LIG     1      16.001  32.688  15.990  1.00  0.00    -0.084 Cl
HETATM    6  C   LIG     1      13.669  31.278  15.756  1.00  0.00     0.026 A 
HETATM    7  C   LIG     1      12.882  30.227  15.279  1.00  0.00     0.040 A 
HETATM    8  C   LIG     1      13.433  29.257  14.432  1.00  0.00     0.087 A 
ENDROOT
BRANCH   8   9
HETATM    9  O   LIG     1      12.615  28.222  13.977  1.00  0.00    -0.359 OA
HETATM   10  H   LIG     1      12.328  27.451  14.567  1.00  0.00     0.217 HD
ENDBRANCH   8   9
TORSDOF 1
ENDMDL
MODEL 18
REMARK VINA RESULT:      -4.5      9.290     10.862
REMARK  1 active torsions:
REMARK  status: ('A' for Active; 'I' for Inactive)
REMARK    1  A    between atoms: C_8  and  O_9 
ROOT
HETATM    1 CL   LIG     1      13.032  29.453  14.671  1.00  0.00    -0.081 Cl
HETATM    2  C   LIG     1      14.237  30.662  15.096  1.00  0.00     0.068 A 
HETATM    3  C   LIG     1      14.159  31.273  16.353  1.00  0.00     0.050 A 
HETATM    4  C   LIG     1      15.098  32.240  16.727  1.00  0.00     0.035 A 
HETATM    5 CL   LIG     1      14.994  33.003  18.303  1.00  0.00    -0.084 Cl
HETATM    6  C   LIG     1      16.121  32.597  15.843  1.00  0.00     0.026 A 
HETATM    7  C   LIG     1      16.205  31.990  14.588  1.00  0.00     0.040 A 
HETATM    8  C   LIG     1      15.268  31.022  14.204  1.00  0.00     0.087 A 
ENDROOT
BRANCH   8   9
HETATM    9  O   LIG     1      15.385  30.439  12.942  1.00  0.00    -0.359 OA
HETATM   10  H   LIG     1      15.987  29.646  12.760  1.00  0.00     0.217 HD
ENDBRANCH   8   9
TORSDOF 1
ENDMDL
MODEL 19
REMARK VINA RESULT:      -4.0     12.344     13.117
REMARK  1 active torsions:
REMARK  status: ('A' for Active; 'I' for Inactive)
REMARK    1  A    between atoms: C_8  and  O_9 
ROOT
HETATM    1 CL   LIG     1      22.739  35.107  13.217  1.00  0.00    -0.081 Cl
HETATM    2  C   LIG     1      21.303  34.820  12.243  1.00  0.00     0.068 A 
HETATM    3  C   LIG     1      20.228  34.133  12.819  1.00  0.00     0.050 A 
HETATM    4  C   LIG     1      19.069  33.885  12.076  1.00  0.00     0.035 A 
HETATM    5 CL   LIG     1      17.726  33.023  12.804  1.00  0.00    -0.084 Cl
HETATM    6  C   LIG     1      18.982  34.325  10.752  1.00  0.00     0.026 A 
HETATM    7  C   LIG     1      20.051  35.012  10.171  1.00  0.00     0.040 A 
HETATM    8  C   LIG     1      21.216  35.264  10.907  1.00  0.00     0.087 A 
ENDROOT
BRANCH   8   9
HETATM    9  O   LIG     1      22.262  35.952  10.292  1.00  0.00    -0.359 OA
HETATM   10  H   LIG     1      22.735  36.733  10.729  1.00  0.00     0.217 HD
ENDBRANCH   8   9
TORSDOF 1
ENDMDL
MODEL 20
REMARK VINA RESULT:      -4.0      3.804      4.950
REMARK  1 active torsions:
REMARK  status: ('A' for Active; 'I' for Inactive)
REMARK    1  A    between atoms: C_8  and  O_9 
ROOT
HETATM    1 CL   LIG     1      15.248  33.910  18.654  1.00  0.00    -0.081 Cl
HETATM    2  C   LIG     1      15.830  34.910  19.977  1.00  0.00     0.068 A 
HETATM    3  C   LIG     1      16.901  35.781  19.740  1.00  0.00     0.050 A 
HETATM    4  C   LIG     1      17.392  36.592  20.769  1.00  0.00     0.035 A 
HETATM    5 CL   LIG     1      18.734  37.680  20.464  1.00  0.00    -0.084 Cl
HETATM    6  C   LIG     1      16.812  36.535  22.039  1.00  0.00     0.026 A 
HETATM    7  C   LIG     1      15.743  35.670  22.282  1.00  0.00     0.040 A 
HETATM    8  C   LIG     1      15.245  34.853  21.259  1.00  0.00     0.087 A 
ENDROOT
BRANCH   8   9
HETATM    9  O   LIG     1      14.177  34.001  21.541  1.00  0.00    -0.359 OA
HETATM   10  H   LIG     1      13.288  34.336  21.889  1.00  0.00     0.217 HD
ENDBRANCH   8   9
TORSDOF 1
ENDMDL
