MODEL 1
REMARK VINA RESULT:      -6.5      0.000      0.000
REMARK  1 active torsions:
REMARK  status: ('A' for Active; 'I' for Inactive)
REMARK    1  A    between atoms: C_2  and  C_3 
ROOT
HETATM    1  C   LIG     1      16.849  37.664  22.287  1.00  0.00     0.004 A 
HETATM    2  C   LIG     1      17.620  38.792  21.928  1.00  0.00     0.054 A 
HETATM    3  C   LIG     1      18.512  38.665  20.868  1.00  0.00     0.105 A 
HETATM    4  O   LIG     1      19.363  39.617  20.341  1.00  0.00    -0.323 OA
HETATM    5  C   LIG     1      20.086  39.016  19.257  1.00  0.00     0.352 A 
HETATM    6  O   LIG     1      19.604  37.666  19.192  1.00  0.00    -0.323 OA
HETATM    7  C   LIG     1      18.656  37.503  20.183  1.00  0.00     0.105 A 
HETATM    8  C   LIG     1      17.919  36.365  20.499  1.00  0.00     0.040 A 
HETATM    9  C   LIG     1      17.004  36.450  21.566  1.00  0.00     0.017 A 
ENDROOT
BRANCH   1  10
HETATM   10  C   LIG     1      15.894  37.765  23.405  1.00  0.00     0.270 C 
HETATM   11  O   LIG     1      16.277  38.089  24.561  1.00  0.00    -0.301 OA
ENDBRANCH   1  10
TORSDOF 1
ENDMDL
MODEL 2
REMARK VINA RESULT:      -6.4      1.094      4.102
REMARK  1 active torsions:
REMARK  status: ('A' for Active; 'I' for Inactive)
REMARK    1  A    between atoms: C_2  and  C_3 
ROOT
HETATM    1  C   LIG     1      18.702  38.202  20.084  1.00  0.00     0.004 A 
HETATM    2  C   LIG     1      18.314  38.955  21.213  1.00  0.00     0.054 A 
HETATM    3  C   LIG     1      17.575  38.316  22.204  1.00  0.00     0.105 A 
HETATM    4  O   LIG     1      17.087  38.840  23.386  1.00  0.00    -0.323 OA
HETATM    5  C   LIG     1      16.388  37.796  24.078  1.00  0.00     0.352 A 
HETATM    6  O   LIG     1      16.499  36.645  23.228  1.00  0.00    -0.323 OA
HETATM    7  C   LIG     1      17.224  37.009  22.110  1.00  0.00     0.105 A 
HETATM    8  C   LIG     1      17.582  36.227  21.017  1.00  0.00     0.040 A 
HETATM    9  C   LIG     1      18.331  36.834  19.992  1.00  0.00     0.017 A 
ENDROOT
BRANCH   1  10
HETATM   10  C   LIG     1      19.486  38.849  19.016  1.00  0.00     0.270 C 
HETATM   11  O   LIG     1      20.555  39.462  19.274  1.00  0.00    -0.301 OA
ENDBRANCH   1  10
TORSDOF 1
ENDMDL
MODEL 3
REMARK VINA RESULT:      -6.4      1.721      4.466
REMARK  1 active torsions:
REMARK  status: ('A' for Active; 'I' for Inactive)
REMARK    1  A    between atoms: C_2  and  C_3 
ROOT
HETATM    1  C   LIG     1      19.118  38.226  20.264  1.00  0.00     0.004 A 
HETATM    2  C   LIG     1      18.609  36.963  19.890  1.00  0.00     0.054 A 
HETATM    3  C   LIG     1      17.577  36.421  20.650  1.00  0.00     0.105 A 
HETATM    4  O   LIG     1      16.925  35.215  20.480  1.00  0.00    -0.323 OA
HETATM    5  C   LIG     1      15.934  35.097  21.511  1.00  0.00     0.352 A 
HETATM    6  O   LIG     1      16.054  36.300  22.282  1.00  0.00    -0.323 OA
HETATM    7  C   LIG     1      17.057  37.068  21.723  1.00  0.00     0.105 A 
HETATM    8  C   LIG     1      17.525  38.313  22.131  1.00  0.00     0.040 A 
HETATM    9  C   LIG     1      18.569  38.898  21.390  1.00  0.00     0.017 A 
ENDROOT
BRANCH   1  10
HETATM   10  C   LIG     1      20.211  38.828  19.480  1.00  0.00     0.270 C 
HETATM   11  O   LIG     1      19.973  39.515  18.452  1.00  0.00    -0.301 OA
ENDBRANCH   1  10
TORSDOF 1
ENDMDL
MODEL 4
REMARK VINA RESULT:      -6.1      2.675      4.546
REMARK  1 active torsions:
REMARK  status: ('A' for Active; 'I' for Inactive)
REMARK    1  A    between atoms: C_2  and  C_3 
ROOT
HETATM    1  C   LIG     1      16.701  35.866  21.943  1.00  0.00     0.004 A 
HETATM    2  C   LIG     1      16.683  37.209  22.376  1.00  0.00     0.054 A 
HETATM    3  C   LIG     1      16.954  37.470  23.716  1.00  0.00     0.105 A 
HETATM    4  O   LIG     1      16.993  38.689  24.365  1.00  0.00    -0.323 OA
HETATM    5  C   LIG     1      17.315  38.448  25.743  1.00  0.00     0.352 A 
HETATM    6  O   LIG     1      17.456  37.024  25.849  1.00  0.00    -0.323 OA
HETATM    7  C   LIG     1      17.230  36.478  24.600  1.00  0.00     0.105 A 
HETATM    8  C   LIG     1      17.258  35.140  24.221  1.00  0.00     0.040 A 
HETATM    9  C   LIG     1      16.990  34.832  22.874  1.00  0.00     0.017 A 
ENDROOT
BRANCH   1  10
HETATM   10  C   LIG     1      16.418  35.556  20.530  1.00  0.00     0.270 C 
HETATM   11  O   LIG     1      17.225  35.881  19.619  1.00  0.00    -0.301 OA
ENDBRANCH   1  10
TORSDOF 1
ENDMDL
MODEL 5
REMARK VINA RESULT:      -6.1      2.921      5.139
REMARK  1 active torsions:
REMARK  status: ('A' for Active; 'I' for Inactive)
REMARK    1  A    between atoms: C_2  and  C_3 
ROOT
HETATM    1  C   LIG     1      16.527  36.024  22.200  1.00  0.00     0.004 A 
HETATM    2  C   LIG     1      16.967  35.113  23.185  1.00  0.00     0.054 A 
HETATM    3  C   LIG     1      17.327  35.619  24.431  1.00  0.00     0.105 A 
HETATM    4  O   LIG     1      17.782  34.932  25.539  1.00  0.00    -0.323 OA
HETATM    5  C   LIG     1      18.022  35.885  26.585  1.00  0.00     0.352 A 
HETATM    6  O   LIG     1      17.681  37.157  26.015  1.00  0.00    -0.323 OA
HETATM    7  C   LIG     1      17.267  36.945  24.714  1.00  0.00     0.105 A 
HETATM    8  C   LIG     1      16.842  37.880  23.776  1.00  0.00     0.040 A 
HETATM    9  C   LIG     1      16.467  37.411  22.503  1.00  0.00     0.017 A 
ENDROOT
BRANCH   1  10
HETATM   10  C   LIG     1      16.138  35.521  20.870  1.00  0.00     0.270 C 
HETATM   11  O   LIG     1      16.932  35.582  19.894  1.00  0.00    -0.301 OA
ENDBRANCH   1  10
TORSDOF 1
ENDMDL
MODEL 6
REMARK VINA RESULT:      -6.0      1.443      2.400
REMARK  1 active torsions:
REMARK  status: ('A' for Active; 'I' for Inactive)
REMARK    1  A    between atoms: C_2  and  C_3 
ROOT
HETATM    1  C   LIG     1      16.974  36.429  21.599  1.00  0.00     0.004 A 
HETATM    2  C   LIG     1      17.913  36.358  20.546  1.00  0.00     0.054 A 
HETATM    3  C   LIG     1      18.631  37.507  20.230  1.00  0.00     0.105 A 
HETATM    4  O   LIG     1      19.592  37.679  19.252  1.00  0.00    -0.323 OA
HETATM    5  C   LIG     1      20.045  39.040  19.310  1.00  0.00     0.352 A 
HETATM    6  O   LIG     1      19.290  39.639  20.373  1.00  0.00    -0.323 OA
HETATM    7  C   LIG     1      18.452  38.674  20.898  1.00  0.00     0.105 A 
HETATM    8  C   LIG     1      17.538  38.794  21.940  1.00  0.00     0.040 A 
HETATM    9  C   LIG     1      16.791  37.655  22.293  1.00  0.00     0.017 A 
ENDROOT
BRANCH   1  10
HETATM   10  C   LIG     1      16.198  35.229  21.959  1.00  0.00     0.270 C 
HETATM   11  O   LIG     1      15.063  35.013  21.457  1.00  0.00    -0.301 OA
ENDBRANCH   1  10
TORSDOF 1
ENDMDL
MODEL 7
REMARK VINA RESULT:      -5.9      1.218      2.186
REMARK  1 active torsions:
REMARK  status: ('A' for Active; 'I' for Inactive)
REMARK    1  A    between atoms: C_2  and  C_3 
ROOT
HETATM    1  C   LIG     1      17.328  37.779  23.173  1.00  0.00     0.004 A 
HETATM    2  C   LIG     1      17.218  36.798  22.164  1.00  0.00     0.054 A 
HETATM    3  C   LIG     1      17.822  37.050  20.936  1.00  0.00     0.105 A 
HETATM    4  O   LIG     1      17.849  36.250  19.810  1.00  0.00    -0.323 OA
HETATM    5  C   LIG     1      18.592  36.939  18.794  1.00  0.00     0.352 A 
HETATM    6  O   LIG     1      18.988  38.179  19.398  1.00  0.00    -0.323 OA
HETATM    7  C   LIG     1      18.501  38.199  20.690  1.00  0.00     0.105 A 
HETATM    8  C   LIG     1      18.635  39.196  21.652  1.00  0.00     0.040 A 
HETATM    9  C   LIG     1      18.040  38.980  22.909  1.00  0.00     0.017 A 
ENDROOT
BRANCH   1  10
HETATM   10  C   LIG     1      16.701  37.543  24.486  1.00  0.00     0.270 C 
HETATM   11  O   LIG     1      16.844  38.361  25.432  1.00  0.00    -0.301 OA
ENDBRANCH   1  10
TORSDOF 1
ENDMDL
MODEL 8
REMARK VINA RESULT:      -5.9      8.280      9.746
REMARK  1 active torsions:
REMARK  status: ('A' for Active; 'I' for Inactive)
REMARK    1  A    between atoms: C_2  and  C_3 
ROOT
HETATM    1  C   LIG     1      14.737  32.661  16.409  1.00  0.00     0.004 A 
HETATM    2  C   LIG     1      15.601  32.146  15.418  1.00  0.00     0.054 A 
HETATM    3  C   LIG     1      15.250  30.949  14.800  1.00  0.00     0.105 A 
HETATM    4  O   LIG     1      15.928  30.259  13.814  1.00  0.00    -0.323 OA
HETATM    5  C   LIG     1      15.173  29.080  13.498  1.00  0.00     0.352 A 
HETATM    6  O   LIG     1      14.026  29.131  14.358  1.00  0.00    -0.323 OA
HETATM    7  C   LIG     1      14.116  30.277  15.124  1.00  0.00     0.105 A 
HETATM    8  C   LIG     1      13.235  30.744  16.094  1.00  0.00     0.040 A 
HETATM    9  C   LIG     1      13.552  31.952  16.743  1.00  0.00     0.017 A 
ENDROOT
BRANCH   1  10
HETATM   10  C   LIG     1      15.079  33.926  17.082  1.00  0.00     0.270 C 
HETATM   11  O   LIG     1      15.846  34.765  16.540  1.00  0.00    -0.301 OA
ENDBRANCH   1  10
TORSDOF 1
ENDMDL
MODEL 9
REMARK VINA RESULT:      -5.8      8.135      9.115
REMARK  1 active torsions:
REMARK  status: ('A' for Active; 'I' for Inactive)
REMARK    1  A    between atoms: C_2  and  C_3 
ROOT
HETATM    1  C   LIG     1      14.269  31.103  15.635  1.00  0.00     0.004 A 
HETATM    2  C   LIG     1      15.032  32.227  16.021  1.00  0.00     0.054 A 
HETATM    3  C   LIG     1      16.035  32.665  15.162  1.00  0.00     0.105 A 
HETATM    4  O   LIG     1      16.901  33.729  15.323  1.00  0.00    -0.323 OA
HETATM    5  C   LIG     1      17.756  33.783  14.171  1.00  0.00     0.352 A 
HETATM    6  O   LIG     1      17.333  32.691  13.342  1.00  0.00    -0.323 OA
HETATM    7  C   LIG     1      16.292  32.047  13.982  1.00  0.00     0.105 A 
HETATM    8  C   LIG     1      15.569  30.936  13.558  1.00  0.00     0.040 A 
HETATM    9  C   LIG     1      14.544  30.461  14.398  1.00  0.00     0.017 A 
ENDROOT
BRANCH   1  10
HETATM   10  C   LIG     1      13.199  30.614  16.522  1.00  0.00     0.270 C 
HETATM   11  O   LIG     1      12.391  31.411  17.068  1.00  0.00    -0.301 OA
ENDBRANCH   1  10
TORSDOF 1
ENDMDL
MODEL 10
REMARK VINA RESULT:      -5.8      2.358      4.738
REMARK  1 active torsions:
REMARK  status: ('A' for Active; 'I' for Inactive)
REMARK    1  A    between atoms: C_2  and  C_3 
ROOT
HETATM    1  C   LIG     1      17.450  38.044  22.772  1.00  0.00     0.004 A 
HETATM    2  C   LIG     1      17.726  37.984  24.155  1.00  0.00     0.054 A 
HETATM    3  C   LIG     1      17.593  36.757  24.798  1.00  0.00     0.105 A 
HETATM    4  O   LIG     1      17.806  36.456  26.130  1.00  0.00    -0.323 OA
HETATM    5  C   LIG     1      17.540  35.058  26.316  1.00  0.00     0.352 A 
HETATM    6  O   LIG     1      17.162  34.574  25.019  1.00  0.00    -0.323 OA
HETATM    7  C   LIG     1      17.210  35.636  24.137  1.00  0.00     0.105 A 
HETATM    8  C   LIG     1      16.926  35.645  22.775  1.00  0.00     0.040 A 
HETATM    9  C   LIG     1      17.049  36.866  22.086  1.00  0.00     0.017 A 
ENDROOT
BRANCH   1  10
HETATM   10  C   LIG     1      17.582  39.328  22.061  1.00  0.00     0.270 C 
HETATM   11  O   LIG     1      18.605  39.590  21.375  1.00  0.00    -0.301 OA
ENDBRANCH   1  10
TORSDOF 1
ENDMDL
MODEL 11
REMARK VINA RESULT:      -5.7      8.610     10.118
REMARK  1 active torsions:
REMARK  status: ('A' for Active; 'I' for Inactive)
REMARK    1  A    between atoms: C_2  and  C_3 
ROOT
HETATM    1  C   LIG     1      14.012  30.163  14.724  1.00  0.00     0.004 A 
HETATM    2  C   LIG     1      15.132  30.590  13.978  1.00  0.00     0.054 A 
HETATM    3  C   LIG     1      15.891  31.643  14.480  1.00  0.00     0.105 A 
HETATM    4  O   LIG     1      17.017  32.228  13.935  1.00  0.00    -0.323 OA
HETATM    5  C   LIG     1      17.444  33.275  14.818  1.00  0.00     0.352 A 
HETATM    6  O   LIG     1      16.501  33.260  15.899  1.00  0.00    -0.323 OA
HETATM    7  C   LIG     1      15.584  32.257  15.651  1.00  0.00     0.105 A 
HETATM    8  C   LIG     1      14.490  31.872  16.420  1.00  0.00     0.040 A 
HETATM    9  C   LIG     1      13.696  30.811  15.949  1.00  0.00     0.017 A 
ENDROOT
BRANCH   1  10
HETATM   10  C   LIG     1      13.187  29.050  14.220  1.00  0.00     0.270 C 
HETATM   11  O   LIG     1      13.696  27.927  13.963  1.00  0.00    -0.301 OA
ENDBRANCH   1  10
TORSDOF 1
ENDMDL
MODEL 12
REMARK VINA RESULT:      -5.7      2.334      3.522
REMARK  1 active torsions:
REMARK  status: ('A' for Active; 'I' for Inactive)
REMARK    1  A    between atoms: C_2  and  C_3 
ROOT
HETATM    1  C   LIG     1      17.561  37.545  23.567  1.00  0.00     0.004 A 
HETATM    2  C   LIG     1      16.862  36.319  23.505  1.00  0.00     0.054 A 
HETATM    3  C   LIG     1      16.630  35.760  22.252  1.00  0.00     0.105 A 
HETATM    4  O   LIG     1      15.976  34.583  21.944  1.00  0.00    -0.323 OA
HETATM    5  C   LIG     1      15.990  34.429  20.517  1.00  0.00     0.352 A 
HETATM    6  O   LIG     1      16.686  35.583  20.024  1.00  0.00    -0.323 OA
HETATM    7  C   LIG     1      17.053  36.355  21.109  1.00  0.00     0.105 A 
HETATM    8  C   LIG     1      17.744  37.563  21.119  1.00  0.00     0.040 A 
HETATM    9  C   LIG     1      18.001  38.163  22.366  1.00  0.00     0.017 A 
ENDROOT
BRANCH   1  10
HETATM   10  C   LIG     1      17.824  38.164  24.879  1.00  0.00     0.270 C 
HETATM   11  O   LIG     1      16.880  38.572  25.606  1.00  0.00    -0.301 OA
ENDBRANCH   1  10
TORSDOF 1
ENDMDL
MODEL 13
REMARK VINA RESULT:      -5.6      3.002      4.150
REMARK  1 active torsions:
REMARK  status: ('A' for Active; 'I' for Inactive)
REMARK    1  A    between atoms: C_2  and  C_3 
ROOT
HETATM    1  C   LIG     1      17.510  35.946  25.064  1.00  0.00     0.004 A 
HETATM    2  C   LIG     1      17.224  34.945  24.111  1.00  0.00     0.054 A 
HETATM    3  C   LIG     1      16.909  35.344  22.815  1.00  0.00     0.105 A 
HETATM    4  O   LIG     1      16.597  34.556  21.724  1.00  0.00    -0.323 OA
HETATM    5  C   LIG     1      16.348  35.422  20.608  1.00  0.00     0.352 A 
HETATM    6  O   LIG     1      16.532  36.750  21.118  1.00  0.00    -0.323 OA
HETATM    7  C   LIG     1      16.871  36.651  22.454  1.00  0.00     0.105 A 
HETATM    8  C   LIG     1      17.143  37.673  23.358  1.00  0.00     0.040 A 
HETATM    9  C   LIG     1      17.467  37.314  24.679  1.00  0.00     0.017 A 
ENDROOT
BRANCH   1  10
HETATM   10  C   LIG     1      17.847  35.557  26.445  1.00  0.00     0.270 C 
HETATM   11  O   LIG     1      18.557  36.298  27.175  1.00  0.00    -0.301 OA
ENDBRANCH   1  10
TORSDOF 1
ENDMDL
MODEL 14
REMARK VINA RESULT:      -5.5      7.503      9.378
REMARK  1 active torsions:
REMARK  status: ('A' for Active; 'I' for Inactive)
REMARK    1  A    between atoms: C_2  and  C_3 
ROOT
HETATM    1  C   LIG     1      15.239  31.501  14.752  1.00  0.00     0.004 A 
HETATM    2  C   LIG     1      15.857  32.298  15.741  1.00  0.00     0.054 A 
HETATM    3  C   LIG     1      15.350  32.244  17.036  1.00  0.00     0.105 A 
HETATM    4  O   LIG     1      15.783  32.925  18.157  1.00  0.00    -0.323 OA
HETATM    5  C   LIG     1      14.947  32.541  19.259  1.00  0.00     0.352 A 
HETATM    6  O   LIG     1      14.011  31.604  18.708  1.00  0.00    -0.323 OA
HETATM    7  C   LIG     1      14.295  31.457  17.364  1.00  0.00     0.105 A 
HETATM    8  C   LIG     1      13.653  30.656  16.425  1.00  0.00     0.040 A 
HETATM    9  C   LIG     1      14.134  30.679  15.102  1.00  0.00     0.017 A 
ENDROOT
BRANCH   1  10
HETATM   10  C   LIG     1      15.752  31.534  13.370  1.00  0.00     0.270 C 
HETATM   11  O   LIG     1      16.859  32.070  13.100  1.00  0.00    -0.301 OA
ENDBRANCH   1  10
TORSDOF 1
ENDMDL
MODEL 15
REMARK VINA RESULT:      -5.5      8.628     10.191
REMARK  1 active torsions:
REMARK  status: ('A' for Active; 'I' for Inactive)
REMARK    1  A    between atoms: C_2  and  C_3 
ROOT
HETATM    1  C   LIG     1      14.176  29.978  14.567  1.00  0.00     0.004 A 
HETATM    2  C   LIG     1      13.746  30.666  15.722  1.00  0.00     0.054 A 
HETATM    3  C   LIG     1      14.411  31.837  16.074  1.00  0.00     0.105 A 
HETATM    4  O   LIG     1      14.173  32.673  17.147  1.00  0.00    -0.323 OA
HETATM    5  C   LIG     1      15.118  33.751  17.088  1.00  0.00     0.352 A 
HETATM    6  O   LIG     1      15.912  33.487  15.923  1.00  0.00    -0.323 OA
HETATM    7  C   LIG     1      15.447  32.322  15.344  1.00  0.00     0.105 A 
HETATM    8  C   LIG     1      15.908  31.679  14.200  1.00  0.00     0.040 A 
HETATM    9  C   LIG     1      15.262  30.491  13.808  1.00  0.00     0.017 A 
ENDROOT
BRANCH   1  10
HETATM   10  C   LIG     1      13.492  28.735  14.168  1.00  0.00     0.270 C 
HETATM   11  O   LIG     1      14.140  27.746  13.734  1.00  0.00    -0.301 OA
ENDBRANCH   1  10
TORSDOF 1
ENDMDL
MODEL 16
REMARK VINA RESULT:      -5.2      8.050      9.885
REMARK  1 active torsions:
REMARK  status: ('A' for Active; 'I' for Inactive)
REMARK    1  A    between atoms: C_2  and  C_3 
ROOT
HETATM    1  C   LIG     1      16.423  33.009  15.134  1.00  0.00     0.004 A 
HETATM    2  C   LIG     1      16.191  31.994  14.179  1.00  0.00     0.054 A 
HETATM    3  C   LIG     1      15.168  31.083  14.427  1.00  0.00     0.105 A 
HETATM    4  O   LIG     1      14.759  30.017  13.649  1.00  0.00    -0.323 OA
HETATM    5  C   LIG     1      13.668  29.371  14.321  1.00  0.00     0.352 A 
HETATM    6  O   LIG     1      13.475  30.123  15.527  1.00  0.00    -0.323 OA
HETATM    7  C   LIG     1      14.403  31.146  15.546  1.00  0.00     0.105 A 
HETATM    8  C   LIG     1      14.595  32.126  16.515  1.00  0.00     0.040 A 
HETATM    9  C   LIG     1      15.618  33.068  16.304  1.00  0.00     0.017 A 
ENDROOT
BRANCH   1  10
HETATM   10  C   LIG     1      17.498  33.990  14.902  1.00  0.00     0.270 C 
HETATM   11  O   LIG     1      17.251  35.223  14.837  1.00  0.00    -0.301 OA
ENDBRANCH   1  10
TORSDOF 1
ENDMDL
MODEL 17
REMARK VINA RESULT:      -5.2      7.905      9.573
REMARK  1 active torsions:
REMARK  status: ('A' for Active; 'I' for Inactive)
REMARK    1  A    between atoms: C_2  and  C_3 
ROOT
HETATM    1  C   LIG     1      16.556  32.670  14.017  1.00  0.00     0.004 A 
HETATM    2  C   LIG     1      16.327  33.097  15.344  1.00  0.00     0.054 A 
HETATM    3  C   LIG     1      15.415  32.381  16.114  1.00  0.00     0.105 A 
HETATM    4  O   LIG     1      15.030  32.605  17.422  1.00  0.00    -0.323 OA
HETATM    5  C   LIG     1      14.066  31.604  17.778  1.00  0.00     0.352 A 
HETATM    6  O   LIG     1      13.917  30.794  16.603  1.00  0.00    -0.323 OA
HETATM    7  C   LIG     1      14.752  31.302  15.627  1.00  0.00     0.105 A 
HETATM    8  C   LIG     1      14.944  30.845  14.326  1.00  0.00     0.040 A 
HETATM    9  C   LIG     1      15.858  31.540  13.514  1.00  0.00     0.017 A 
ENDROOT
BRANCH   1  10
HETATM   10  C   LIG     1      17.517  33.406  13.175  1.00  0.00     0.270 C 
HETATM   11  O   LIG     1      17.647  34.655  13.277  1.00  0.00    -0.301 OA
ENDBRANCH   1  10
TORSDOF 1
ENDMDL
MODEL 18
REMARK VINA RESULT:      -5.1      8.192      9.646
REMARK  1 active torsions:
REMARK  status: ('A' for Active; 'I' for Inactive)
REMARK    1  A    between atoms: C_2  and  C_3 
ROOT
HETATM    1  C   LIG     1      15.038  32.637  16.656  1.00  0.00     0.004 A 
HETATM    2  C   LIG     1      13.957  31.729  16.608  1.00  0.00     0.054 A 
HETATM    3  C   LIG     1      13.936  30.789  15.581  1.00  0.00     0.105 A 
HETATM    4  O   LIG     1      12.994  29.811  15.330  1.00  0.00    -0.323 OA
HETATM    5  C   LIG     1      13.406  29.088  14.161  1.00  0.00     0.352 A 
HETATM    6  O   LIG     1      14.635  29.707  13.754  1.00  0.00    -0.323 OA
HETATM    7  C   LIG     1      14.914  30.728  14.642  1.00  0.00     0.105 A 
HETATM    8  C   LIG     1      15.997  31.600  14.648  1.00  0.00     0.040 A 
HETATM    9  C   LIG     1      16.058  32.566  15.669  1.00  0.00     0.017 A 
ENDROOT
BRANCH   1  10
HETATM   10  C   LIG     1      15.090  33.644  17.731  1.00  0.00     0.270 C 
HETATM   11  O   LIG     1      15.721  34.724  17.581  1.00  0.00    -0.301 OA
ENDBRANCH   1  10
TORSDOF 1
ENDMDL
MODEL 19
REMARK VINA RESULT:      -5.1      2.266      3.000
REMARK  1 active torsions:
REMARK  status: ('A' for Active; 'I' for Inactive)
REMARK    1  A    between atoms: C_2  and  C_3 
ROOT
HETATM    1  C   LIG     1      16.050  35.709  21.334  1.00  0.00     0.004 A 
HETATM    2  C   LIG     1      16.057  36.804  22.226  1.00  0.00     0.054 A 
HETATM    3  C   LIG     1      17.062  37.757  22.085  1.00  0.00     0.105 A 
HETATM    4  O   LIG     1      17.273  38.901  22.831  1.00  0.00    -0.323 OA
HETATM    5  C   LIG     1      18.433  39.563  22.308  1.00  0.00     0.352 A 
HETATM    6  O   LIG     1      18.878  38.736  21.223  1.00  0.00    -0.323 OA
HETATM    7  C   LIG     1      18.018  37.659  21.128  1.00  0.00     0.105 A 
HETATM    8  C   LIG     1      18.053  36.599  20.227  1.00  0.00     0.040 A 
HETATM    9  C   LIG     1      17.054  35.612  20.334  1.00  0.00     0.017 A 
ENDROOT
BRANCH   1  10
HETATM   10  C   LIG     1      14.999  34.682  21.456  1.00  0.00     0.270 C 
HETATM   11  O   LIG     1      15.057  33.611  20.797  1.00  0.00    -0.301 OA
ENDBRANCH   1  10
TORSDOF 1
ENDMDL
