MODEL 1
REMARK VINA RESULT:      -7.8      0.000      0.000
REMARK  0 active torsions:
REMARK  status: ('A' for Active; 'I' for Inactive)
ROOT
HETATM    1  C   LIG     1      18.162  37.215  20.596  1.00  0.00    -0.025 A 
HETATM    2  C   LIG     1      18.338  37.048  19.214  1.00  0.00     0.012 A 
HETATM    3  C   LIG     1      18.766  38.120  18.425  1.00  0.00     0.001 A 
HETATM    4  C   LIG     1      19.018  39.364  19.008  1.00  0.00     0.001 A 
HETATM    5  C   LIG     1      18.846  39.545  20.383  1.00  0.00     0.012 A 
HETATM    6  C   LIG     1      18.418  38.477  21.187  1.00  0.00    -0.025 A 
HETATM    7  C   LIG     1      18.242  38.649  22.568  1.00  0.00     0.024 A 
HETATM    8  C   LIG     1      17.814  37.579  23.366  1.00  0.00    -0.025 A 
HETATM    9  C   LIG     1      17.557  36.317  22.775  1.00  0.00    -0.025 A 
HETATM   10  C   LIG     1      17.129  35.249  23.579  1.00  0.00     0.012 A 
HETATM   11  C   LIG     1      16.957  35.429  24.954  1.00  0.00     0.001 A 
HETATM   12  C   LIG     1      17.210  36.673  25.537  1.00  0.00     0.001 A 
HETATM   13  C   LIG     1      17.637  37.745  24.748  1.00  0.00     0.012 A 
HETATM   14  C   LIG     1      17.733  36.144  21.394  1.00  0.00     0.024 A 
ENDROOT
TORSDOF 0
ENDMDL
MODEL 2
REMARK VINA RESULT:      -7.8      0.014      4.864
REMARK  0 active torsions:
REMARK  status: ('A' for Active; 'I' for Inactive)
ROOT
HETATM    1  C   LIG     1      17.554  36.320  22.782  1.00  0.00    -0.025 A 
HETATM    2  C   LIG     1      17.128  35.255  23.592  1.00  0.00     0.012 A 
HETATM    3  C   LIG     1      16.961  35.440  24.967  1.00  0.00     0.001 A 
HETATM    4  C   LIG     1      17.218  36.686  25.544  1.00  0.00     0.001 A 
HETATM    5  C   LIG     1      17.644  37.755  24.751  1.00  0.00     0.012 A 
HETATM    6  C   LIG     1      17.815  37.583  23.369  1.00  0.00    -0.025 A 
HETATM    7  C   LIG     1      18.241  38.651  22.565  1.00  0.00     0.024 A 
HETATM    8  C   LIG     1      18.411  38.474  21.184  1.00  0.00    -0.025 A 
HETATM    9  C   LIG     1      18.151  37.210  20.598  1.00  0.00    -0.025 A 
HETATM   10  C   LIG     1      18.322  37.038  19.216  1.00  0.00     0.012 A 
HETATM   11  C   LIG     1      18.747  38.107  18.422  1.00  0.00     0.001 A 
HETATM   12  C   LIG     1      19.004  39.353  19.000  1.00  0.00     0.001 A 
HETATM   13  C   LIG     1      18.837  39.538  20.375  1.00  0.00     0.012 A 
HETATM   14  C   LIG     1      17.724  36.143  21.402  1.00  0.00     0.024 A 
ENDROOT
TORSDOF 0
ENDMDL
MODEL 3
REMARK VINA RESULT:      -7.8      0.044      2.123
REMARK  0 active torsions:
REMARK  status: ('A' for Active; 'I' for Inactive)
ROOT
HETATM    1  C   LIG     1      18.408  38.464  21.227  1.00  0.00    -0.025 A 
HETATM    2  C   LIG     1      18.832  39.537  20.427  1.00  0.00     0.012 A 
HETATM    3  C   LIG     1      18.998  39.364  19.049  1.00  0.00     0.001 A 
HETATM    4  C   LIG     1      18.744  38.123  18.461  1.00  0.00     0.001 A 
HETATM    5  C   LIG     1      18.322  37.046  19.246  1.00  0.00     0.012 A 
HETATM    6  C   LIG     1      18.151  37.205  20.630  1.00  0.00    -0.025 A 
HETATM    7  C   LIG     1      17.728  36.129  21.425  1.00  0.00     0.024 A 
HETATM    8  C   LIG     1      17.559  36.294  22.807  1.00  0.00    -0.025 A 
HETATM    9  C   LIG     1      17.817  37.553  23.404  1.00  0.00    -0.025 A 
HETATM   10  C   LIG     1      17.646  37.712  24.788  1.00  0.00     0.012 A 
HETATM   11  C   LIG     1      17.223  36.636  25.572  1.00  0.00     0.001 A 
HETATM   12  C   LIG     1      16.969  35.394  24.984  1.00  0.00     0.001 A 
HETATM   13  C   LIG     1      17.135  35.222  23.607  1.00  0.00     0.012 A 
HETATM   14  C   LIG     1      18.239  38.629  22.609  1.00  0.00     0.024 A 
ENDROOT
TORSDOF 0
ENDMDL
MODEL 4
REMARK VINA RESULT:      -7.8      0.027      5.307
REMARK  0 active torsions:
REMARK  status: ('A' for Active; 'I' for Inactive)
ROOT
HETATM    1  C   LIG     1      17.817  37.560  23.388  1.00  0.00    -0.025 A 
HETATM    2  C   LIG     1      17.645  37.720  24.772  1.00  0.00     0.012 A 
HETATM    3  C   LIG     1      17.219  36.644  25.557  1.00  0.00     0.001 A 
HETATM    4  C   LIG     1      16.961  35.404  24.968  1.00  0.00     0.001 A 
HETATM    5  C   LIG     1      17.128  35.230  23.591  1.00  0.00     0.012 A 
HETATM    6  C   LIG     1      17.555  36.302  22.791  1.00  0.00    -0.025 A 
HETATM    7  C   LIG     1      17.725  36.136  21.409  1.00  0.00     0.024 A 
HETATM    8  C   LIG     1      18.152  37.210  20.615  1.00  0.00    -0.025 A 
HETATM    9  C   LIG     1      18.413  38.468  21.211  1.00  0.00    -0.025 A 
HETATM   10  C   LIG     1      18.840  39.540  20.411  1.00  0.00     0.012 A 
HETATM   11  C   LIG     1      19.008  39.366  19.035  1.00  0.00     0.001 A 
HETATM   12  C   LIG     1      18.750  38.126  18.446  1.00  0.00     0.001 A 
HETATM   13  C   LIG     1      18.324  37.050  19.231  1.00  0.00     0.012 A 
HETATM   14  C   LIG     1      18.244  38.634  22.594  1.00  0.00     0.024 A 
ENDROOT
TORSDOF 0
ENDMDL
MODEL 5
REMARK VINA RESULT:      -6.5      9.084     11.142
REMARK  0 active torsions:
REMARK  status: ('A' for Active; 'I' for Inactive)
ROOT
HETATM    1  C   LIG     1      15.281  31.607  15.357  1.00  0.00    -0.025 A 
HETATM    2  C   LIG     1      16.045  32.726  15.723  1.00  0.00     0.012 A 
HETATM    3  C   LIG     1      15.507  33.700  16.568  1.00  0.00     0.001 A 
HETATM    4  C   LIG     1      14.203  33.566  17.054  1.00  0.00     0.001 A 
HETATM    5  C   LIG     1      13.431  32.457  16.698  1.00  0.00     0.012 A 
HETATM    6  C   LIG     1      13.959  31.472  15.850  1.00  0.00    -0.025 A 
HETATM    7  C   LIG     1      13.191  30.355  15.488  1.00  0.00     0.024 A 
HETATM    8  C   LIG     1      13.724  29.374  14.641  1.00  0.00    -0.025 A 
HETATM    9  C   LIG     1      15.045  29.509  14.148  1.00  0.00    -0.025 A 
HETATM   10  C   LIG     1      15.574  28.524  13.300  1.00  0.00     0.012 A 
HETATM   11  C   LIG     1      14.801  27.414  12.944  1.00  0.00     0.001 A 
HETATM   12  C   LIG     1      13.498  27.280  13.430  1.00  0.00     0.001 A 
HETATM   13  C   LIG     1      12.959  28.254  14.275  1.00  0.00     0.012 A 
HETATM   14  C   LIG     1      15.814  30.625  14.510  1.00  0.00     0.024 A 
ENDROOT
TORSDOF 0
ENDMDL
MODEL 6
REMARK VINA RESULT:      -6.5      9.097     11.044
REMARK  0 active torsions:
REMARK  status: ('A' for Active; 'I' for Inactive)
ROOT
HETATM    1  C   LIG     1      15.041  29.507  14.127  1.00  0.00    -0.025 A 
HETATM    2  C   LIG     1      15.568  28.528  13.270  1.00  0.00     0.012 A 
HETATM    3  C   LIG     1      14.798  27.416  12.916  1.00  0.00     0.001 A 
HETATM    4  C   LIG     1      13.501  27.272  13.414  1.00  0.00     0.001 A 
HETATM    5  C   LIG     1      12.964  28.239  14.269  1.00  0.00     0.012 A 
HETATM    6  C   LIG     1      13.726  29.361  14.633  1.00  0.00    -0.025 A 
HETATM    7  C   LIG     1      13.195  30.336  15.490  1.00  0.00     0.024 A 
HETATM    8  C   LIG     1      13.961  31.454  15.849  1.00  0.00    -0.025 A 
HETATM    9  C   LIG     1      15.276  31.600  15.345  1.00  0.00    -0.025 A 
HETATM   10  C   LIG     1      16.038  32.722  15.708  1.00  0.00     0.012 A 
HETATM   11  C   LIG     1      15.502  33.689  16.562  1.00  0.00     0.001 A 
HETATM   12  C   LIG     1      14.204  33.545  17.061  1.00  0.00     0.001 A 
HETATM   13  C   LIG     1      13.435  32.433  16.707  1.00  0.00     0.012 A 
HETATM   14  C   LIG     1      15.807  30.625  14.487  1.00  0.00     0.024 A 
ENDROOT
TORSDOF 0
ENDMDL
MODEL 7
REMARK VINA RESULT:      -6.4      2.055      3.531
REMARK  0 active torsions:
REMARK  status: ('A' for Active; 'I' for Inactive)
ROOT
HETATM    1  C   LIG     1      16.983  36.308  21.987  1.00  0.00    -0.025 A 
HETATM    2  C   LIG     1      16.768  36.675  20.650  1.00  0.00     0.012 A 
HETATM    3  C   LIG     1      16.211  35.762  19.750  1.00  0.00     0.001 A 
HETATM    4  C   LIG     1      15.866  34.477  20.177  1.00  0.00     0.001 A 
HETATM    5  C   LIG     1      16.076  34.097  21.506  1.00  0.00     0.012 A 
HETATM    6  C   LIG     1      16.634  35.004  22.419  1.00  0.00    -0.025 A 
HETATM    7  C   LIG     1      16.847  34.631  23.755  1.00  0.00     0.024 A 
HETATM    8  C   LIG     1      17.405  35.542  24.663  1.00  0.00    -0.025 A 
HETATM    9  C   LIG     1      17.756  36.845  24.231  1.00  0.00    -0.025 A 
HETATM   10  C   LIG     1      18.314  37.752  25.145  1.00  0.00     0.012 A 
HETATM   11  C   LIG     1      18.523  37.372  26.474  1.00  0.00     0.001 A 
HETATM   12  C   LIG     1      18.178  36.087  26.900  1.00  0.00     0.001 A 
HETATM   13  C   LIG     1      17.621  35.174  26.001  1.00  0.00     0.012 A 
HETATM   14  C   LIG     1      17.542  37.218  22.896  1.00  0.00     0.024 A 
ENDROOT
TORSDOF 0
ENDMDL
MODEL 8
REMARK VINA RESULT:      -6.4      2.068      3.027
REMARK  0 active torsions:
REMARK  status: ('A' for Active; 'I' for Inactive)
ROOT
HETATM    1  C   LIG     1      16.643  35.005  22.426  1.00  0.00    -0.025 A 
HETATM    2  C   LIG     1      16.099  34.091  21.510  1.00  0.00     0.012 A 
HETATM    3  C   LIG     1      15.874  34.474  20.184  1.00  0.00     0.001 A 
HETATM    4  C   LIG     1      16.188  35.769  19.764  1.00  0.00     0.001 A 
HETATM    5  C   LIG     1      16.729  36.690  20.665  1.00  0.00     0.012 A 
HETATM    6  C   LIG     1      16.960  36.319  21.999  1.00  0.00    -0.025 A 
HETATM    7  C   LIG     1      17.503  37.236  22.911  1.00  0.00     0.024 A 
HETATM    8  C   LIG     1      17.732  36.860  24.242  1.00  0.00    -0.025 A 
HETATM    9  C   LIG     1      17.414  35.547  24.669  1.00  0.00    -0.025 A 
HETATM   10  C   LIG     1      17.645  35.176  26.003  1.00  0.00     0.012 A 
HETATM   11  C   LIG     1      18.187  36.096  26.904  1.00  0.00     0.001 A 
HETATM   12  C   LIG     1      18.501  37.391  26.484  1.00  0.00     0.001 A 
HETATM   13  C   LIG     1      18.276  37.774  25.158  1.00  0.00     0.012 A 
HETATM   14  C   LIG     1      16.872  34.629  23.757  1.00  0.00     0.024 A 
ENDROOT
TORSDOF 0
ENDMDL
MODEL 9
REMARK VINA RESULT:      -6.4      2.095      5.304
REMARK  0 active torsions:
REMARK  status: ('A' for Active; 'I' for Inactive)
ROOT
HETATM    1  C   LIG     1      17.707  36.859  24.209  1.00  0.00    -0.025 A 
HETATM    2  C   LIG     1      18.248  37.786  25.114  1.00  0.00     0.012 A 
HETATM    3  C   LIG     1      18.489  37.415  26.440  1.00  0.00     0.001 A 
HETATM    4  C   LIG     1      18.192  36.120  26.873  1.00  0.00     0.001 A 
HETATM    5  C   LIG     1      17.653  35.187  25.983  1.00  0.00     0.012 A 
HETATM    6  C   LIG     1      17.406  35.546  24.648  1.00  0.00    -0.025 A 
HETATM    7  C   LIG     1      16.865  34.616  23.748  1.00  0.00     0.024 A 
HETATM    8  C   LIG     1      16.621  34.979  22.416  1.00  0.00    -0.025 A 
HETATM    9  C   LIG     1      16.921  36.292  21.977  1.00  0.00    -0.025 A 
HETATM   10  C   LIG     1      16.674  36.651  20.643  1.00  0.00     0.012 A 
HETATM   11  C   LIG     1      16.136  35.718  19.753  1.00  0.00     0.001 A 
HETATM   12  C   LIG     1      15.839  34.423  20.185  1.00  0.00     0.001 A 
HETATM   13  C   LIG     1      16.080  34.053  21.511  1.00  0.00     0.012 A 
HETATM   14  C   LIG     1      17.463  37.223  22.877  1.00  0.00     0.024 A 
ENDROOT
TORSDOF 0
ENDMDL
MODEL 10
REMARK VINA RESULT:      -6.4      2.059      4.992
REMARK  0 active torsions:
REMARK  status: ('A' for Active; 'I' for Inactive)
ROOT
HETATM    1  C   LIG     1      17.408  35.539  24.667  1.00  0.00    -0.025 A 
HETATM    2  C   LIG     1      17.630  35.167  26.002  1.00  0.00     0.012 A 
HETATM    3  C   LIG     1      18.184  36.080  26.904  1.00  0.00     0.001 A 
HETATM    4  C   LIG     1      18.520  37.369  26.481  1.00  0.00     0.001 A 
HETATM    5  C   LIG     1      18.304  37.753  25.155  1.00  0.00     0.012 A 
HETATM    6  C   LIG     1      17.749  36.846  24.239  1.00  0.00    -0.025 A 
HETATM    7  C   LIG     1      17.529  37.223  22.906  1.00  0.00     0.024 A 
HETATM    8  C   LIG     1      16.975  36.313  21.995  1.00  0.00    -0.025 A 
HETATM    9  C   LIG     1      16.634  35.006  22.422  1.00  0.00    -0.025 A 
HETATM   10  C   LIG     1      16.079  34.099  21.506  1.00  0.00     0.012 A 
HETATM   11  C   LIG     1      15.863  34.484  20.180  1.00  0.00     0.001 A 
HETATM   12  C   LIG     1      16.199  35.772  19.758  1.00  0.00     0.001 A 
HETATM   13  C   LIG     1      16.753  36.686  20.660  1.00  0.00     0.012 A 
HETATM   14  C   LIG     1      16.854  34.629  23.756  1.00  0.00     0.024 A 
ENDROOT
TORSDOF 0
ENDMDL
MODEL 11
REMARK VINA RESULT:      -6.0      2.088      4.539
REMARK  0 active torsions:
REMARK  status: ('A' for Active; 'I' for Inactive)
ROOT
HETATM    1  C   LIG     1      16.571  35.374  20.164  1.00  0.00    -0.025 A 
HETATM    2  C   LIG     1      16.071  34.264  19.465  1.00  0.00     0.012 A 
HETATM    3  C   LIG     1      15.112  33.435  20.055  1.00  0.00     0.001 A 
HETATM    4  C   LIG     1      14.647  33.706  21.344  1.00  0.00     0.001 A 
HETATM    5  C   LIG     1      15.136  34.807  22.052  1.00  0.00     0.012 A 
HETATM    6  C   LIG     1      16.099  35.648  21.472  1.00  0.00    -0.025 A 
HETATM    7  C   LIG     1      16.595  36.756  22.175  1.00  0.00     0.024 A 
HETATM    8  C   LIG     1      17.556  37.593  21.590  1.00  0.00    -0.025 A 
HETATM    9  C   LIG     1      18.029  37.318  20.283  1.00  0.00    -0.025 A 
HETATM   10  C   LIG     1      18.991  38.159  19.703  1.00  0.00     0.012 A 
HETATM   11  C   LIG     1      19.480  39.261  20.410  1.00  0.00     0.001 A 
HETATM   12  C   LIG     1      19.015  39.532  21.699  1.00  0.00     0.001 A 
HETATM   13  C   LIG     1      18.056  38.703  22.289  1.00  0.00     0.012 A 
HETATM   14  C   LIG     1      17.532  36.211  19.579  1.00  0.00     0.024 A 
ENDROOT
TORSDOF 0
ENDMDL
MODEL 12
REMARK VINA RESULT:      -6.0      2.121      4.751
REMARK  0 active torsions:
REMARK  status: ('A' for Active; 'I' for Inactive)
ROOT
HETATM    1  C   LIG     1      16.061  35.576  21.490  1.00  0.00    -0.025 A 
HETATM    2  C   LIG     1      15.113  34.700  22.042  1.00  0.00     0.012 A 
HETATM    3  C   LIG     1      14.644  33.613  21.300  1.00  0.00     0.001 A 
HETATM    4  C   LIG     1      15.116  33.391  20.004  1.00  0.00     0.001 A 
HETATM    5  C   LIG     1      16.059  34.255  19.441  1.00  0.00     0.012 A 
HETATM    6  C   LIG     1      16.539  35.351  20.175  1.00  0.00    -0.025 A 
HETATM    7  C   LIG     1      17.486  36.223  19.618  1.00  0.00     0.024 A 
HETATM    8  C   LIG     1      17.962  37.316  20.356  1.00  0.00    -0.025 A 
HETATM    9  C   LIG     1      17.484  37.542  21.670  1.00  0.00    -0.025 A 
HETATM   10  C   LIG     1      17.963  38.638  22.404  1.00  0.00     0.012 A 
HETATM   11  C   LIG     1      18.907  39.501  21.842  1.00  0.00     0.001 A 
HETATM   12  C   LIG     1      19.379  39.280  20.545  1.00  0.00     0.001 A 
HETATM   13  C   LIG     1      18.909  38.192  19.803  1.00  0.00     0.012 A 
HETATM   14  C   LIG     1      16.537  36.669  22.228  1.00  0.00     0.024 A 
ENDROOT
TORSDOF 0
ENDMDL
MODEL 13
REMARK VINA RESULT:      -6.0      2.106      3.660
REMARK  0 active torsions:
REMARK  status: ('A' for Active; 'I' for Inactive)
ROOT
HETATM    1  C   LIG     1      17.475  37.596  21.668  1.00  0.00    -0.025 A 
HETATM    2  C   LIG     1      17.949  38.717  22.367  1.00  0.00     0.012 A 
HETATM    3  C   LIG     1      18.918  39.546  21.794  1.00  0.00     0.001 A 
HETATM    4  C   LIG     1      19.420  39.262  20.521  1.00  0.00     0.001 A 
HETATM    5  C   LIG     1      18.958  38.149  19.814  1.00  0.00     0.012 A 
HETATM    6  C   LIG     1      17.985  37.309  20.378  1.00  0.00    -0.025 A 
HETATM    7  C   LIG     1      17.515  36.190  19.675  1.00  0.00     0.024 A 
HETATM    8  C   LIG     1      16.543  35.354  20.243  1.00  0.00    -0.025 A 
HETATM    9  C   LIG     1      16.033  35.641  21.533  1.00  0.00    -0.025 A 
HETATM   10  C   LIG     1      15.061  34.801  22.097  1.00  0.00     0.012 A 
HETATM   11  C   LIG     1      14.598  33.688  21.390  1.00  0.00     0.001 A 
HETATM   12  C   LIG     1      15.100  33.405  20.117  1.00  0.00     0.001 A 
HETATM   13  C   LIG     1      16.069  34.233  19.544  1.00  0.00     0.012 A 
HETATM   14  C   LIG     1      16.503  36.760  22.236  1.00  0.00     0.024 A 
ENDROOT
TORSDOF 0
ENDMDL
MODEL 14
REMARK VINA RESULT:      -6.0      7.909      9.209
REMARK  0 active torsions:
REMARK  status: ('A' for Active; 'I' for Inactive)
ROOT
HETATM    1  C   LIG     1      16.603  32.335  13.724  1.00  0.00    -0.025 A 
HETATM    2  C   LIG     1      17.443  32.423  12.603  1.00  0.00     0.012 A 
HETATM    3  C   LIG     1      18.424  33.416  12.535  1.00  0.00     0.001 A 
HETATM    4  C   LIG     1      18.573  34.328  13.583  1.00  0.00     0.001 A 
HETATM    5  C   LIG     1      17.743  34.253  14.705  1.00  0.00     0.012 A 
HETATM    6  C   LIG     1      16.754  33.261  14.786  1.00  0.00    -0.025 A 
HETATM    7  C   LIG     1      15.917  33.178  15.908  1.00  0.00     0.024 A 
HETATM    8  C   LIG     1      14.931  32.184  15.984  1.00  0.00    -0.025 A 
HETATM    9  C   LIG     1      14.779  31.259  14.921  1.00  0.00    -0.025 A 
HETATM   10  C   LIG     1      13.790  30.267  15.002  1.00  0.00     0.012 A 
HETATM   11  C   LIG     1      12.960  30.191  16.124  1.00  0.00     0.001 A 
HETATM   12  C   LIG     1      13.110  31.103  17.172  1.00  0.00     0.001 A 
HETATM   13  C   LIG     1      14.091  32.097  17.105  1.00  0.00     0.012 A 
HETATM   14  C   LIG     1      15.617  31.341  13.799  1.00  0.00     0.024 A 
ENDROOT
TORSDOF 0
ENDMDL
MODEL 15
REMARK VINA RESULT:      -6.0      2.440      4.591
REMARK  0 active torsions:
REMARK  status: ('A' for Active; 'I' for Inactive)
ROOT
HETATM    1  C   LIG     1      17.241  37.029  21.509  1.00  0.00    -0.025 A 
HETATM    2  C   LIG     1      17.913  38.255  21.636  1.00  0.00     0.012 A 
HETATM    3  C   LIG     1      18.189  38.778  22.903  1.00  0.00     0.001 A 
HETATM    4  C   LIG     1      17.798  38.083  24.050  1.00  0.00     0.001 A 
HETATM    5  C   LIG     1      17.127  36.862  23.939  1.00  0.00     0.012 A 
HETATM    6  C   LIG     1      16.844  36.325  22.673  1.00  0.00    -0.025 A 
HETATM    7  C   LIG     1      16.172  35.100  22.552  1.00  0.00     0.024 A 
HETATM    8  C   LIG     1      15.891  34.569  21.285  1.00  0.00    -0.025 A 
HETATM    9  C   LIG     1      16.288  35.273  20.121  1.00  0.00    -0.025 A 
HETATM   10  C   LIG     1      16.004  34.737  18.856  1.00  0.00     0.012 A 
HETATM   11  C   LIG     1      15.334  33.515  18.744  1.00  0.00     0.001 A 
HETATM   12  C   LIG     1      14.943  32.821  19.892  1.00  0.00     0.001 A 
HETATM   13  C   LIG     1      15.219  33.343  21.158  1.00  0.00     0.012 A 
HETATM   14  C   LIG     1      16.960  36.498  20.242  1.00  0.00     0.024 A 
ENDROOT
TORSDOF 0
ENDMDL
MODEL 16
REMARK VINA RESULT:      -6.0      2.413      4.102
REMARK  0 active torsions:
REMARK  status: ('A' for Active; 'I' for Inactive)
ROOT
HETATM    1  C   LIG     1      15.901  34.610  21.323  1.00  0.00    -0.025 A 
HETATM    2  C   LIG     1      15.225  33.385  21.207  1.00  0.00     0.012 A 
HETATM    3  C   LIG     1      14.950  32.851  19.944  1.00  0.00     0.001 A 
HETATM    4  C   LIG     1      15.345  33.535  18.791  1.00  0.00     0.001 A 
HETATM    5  C   LIG     1      16.017  34.756  18.893  1.00  0.00     0.012 A 
HETATM    6  C   LIG     1      16.300  35.303  20.154  1.00  0.00    -0.025 A 
HETATM    7  C   LIG     1      16.976  36.527  20.265  1.00  0.00     0.024 A 
HETATM    8  C   LIG     1      17.256  37.069  21.527  1.00  0.00    -0.025 A 
HETATM    9  C   LIG     1      16.856  36.377  22.696  1.00  0.00    -0.025 A 
HETATM   10  C   LIG     1      17.139  36.924  23.958  1.00  0.00     0.012 A 
HETATM   11  C   LIG     1      17.812  38.144  24.059  1.00  0.00     0.001 A 
HETATM   12  C   LIG     1      18.207  38.828  22.906  1.00  0.00     0.001 A 
HETATM   13  C   LIG     1      17.931  38.294  21.644  1.00  0.00     0.012 A 
HETATM   14  C   LIG     1      16.181  35.152  22.586  1.00  0.00     0.024 A 
ENDROOT
TORSDOF 0
ENDMDL
MODEL 17
REMARK VINA RESULT:      -6.0      2.406      4.160
REMARK  0 active torsions:
REMARK  status: ('A' for Active; 'I' for Inactive)
ROOT
HETATM    1  C   LIG     1      16.299  35.317  20.182  1.00  0.00    -0.025 A 
HETATM    2  C   LIG     1      16.012  34.798  18.910  1.00  0.00     0.012 A 
HETATM    3  C   LIG     1      15.350  33.574  18.783  1.00  0.00     0.001 A 
HETATM    4  C   LIG     1      14.971  32.859  19.922  1.00  0.00     0.001 A 
HETATM    5  C   LIG     1      15.250  33.363  21.195  1.00  0.00     0.012 A 
HETATM    6  C   LIG     1      15.914  34.592  21.337  1.00  0.00    -0.025 A 
HETATM    7  C   LIG     1      16.199  35.106  22.611  1.00  0.00     0.024 A 
HETATM    8  C   LIG     1      16.862  36.333  22.746  1.00  0.00    -0.025 A 
HETATM    9  C   LIG     1      17.247  37.059  21.592  1.00  0.00    -0.025 A 
HETATM   10  C   LIG     1      17.911  38.287  21.734  1.00  0.00     0.012 A 
HETATM   11  C   LIG     1      18.190  38.792  23.006  1.00  0.00     0.001 A 
HETATM   12  C   LIG     1      17.811  38.077  24.145  1.00  0.00     0.001 A 
HETATM   13  C   LIG     1      17.149  36.852  24.018  1.00  0.00     0.012 A 
HETATM   14  C   LIG     1      16.962  36.545  20.318  1.00  0.00     0.024 A 
ENDROOT
TORSDOF 0
ENDMDL
MODEL 18
REMARK VINA RESULT:      -5.9      8.034     10.300
REMARK  0 active torsions:
REMARK  status: ('A' for Active; 'I' for Inactive)
ROOT
HETATM    1  C   LIG     1      14.831  31.147  14.698  1.00  0.00    -0.025 A 
HETATM    2  C   LIG     1      13.863  30.129  14.697  1.00  0.00     0.012 A 
HETATM    3  C   LIG     1      13.006  29.974  15.789  1.00  0.00     0.001 A 
HETATM    4  C   LIG     1      13.107  30.829  16.889  1.00  0.00     0.001 A 
HETATM    5  C   LIG     1      14.066  31.846  16.904  1.00  0.00     0.012 A 
HETATM    6  C   LIG     1      14.933  32.014  15.814  1.00  0.00    -0.025 A 
HETATM    7  C   LIG     1      15.898  33.032  15.820  1.00  0.00     0.024 A 
HETATM    8  C   LIG     1      16.762  33.195  14.728  1.00  0.00    -0.025 A 
HETATM    9  C   LIG     1      16.660  32.327  13.612  1.00  0.00    -0.025 A 
HETATM   10  C   LIG     1      17.528  32.495  12.522  1.00  0.00     0.012 A 
HETATM   11  C   LIG     1      18.486  33.512  12.536  1.00  0.00     0.001 A 
HETATM   12  C   LIG     1      18.587  34.368  13.636  1.00  0.00     0.001 A 
HETATM   13  C   LIG     1      17.729  34.212  14.729  1.00  0.00     0.012 A 
HETATM   14  C   LIG     1      15.695  31.309  13.606  1.00  0.00     0.024 A 
ENDROOT
TORSDOF 0
ENDMDL
MODEL 19
REMARK VINA RESULT:      -5.9      8.058     10.519
REMARK  0 active torsions:
REMARK  status: ('A' for Active; 'I' for Inactive)
ROOT
HETATM    1  C   LIG     1      14.901  31.940  15.805  1.00  0.00    -0.025 A 
HETATM    2  C   LIG     1      14.026  31.750  16.886  1.00  0.00     0.012 A 
HETATM    3  C   LIG     1      13.075  30.726  16.851  1.00  0.00     0.001 A 
HETATM    4  C   LIG     1      12.989  29.886  15.738  1.00  0.00     0.001 A 
HETATM    5  C   LIG     1      13.853  30.063  14.653  1.00  0.00     0.012 A 
HETATM    6  C   LIG     1      14.813  31.088  14.676  1.00  0.00    -0.025 A 
HETATM    7  C   LIG     1      15.684  31.273  13.592  1.00  0.00     0.024 A 
HETATM    8  C   LIG     1      16.640  32.297  13.620  1.00  0.00    -0.025 A 
HETATM    9  C   LIG     1      16.728  33.150  14.749  1.00  0.00    -0.025 A 
HETATM   10  C   LIG     1      17.687  34.174  14.771  1.00  0.00     0.012 A 
HETATM   11  C   LIG     1      18.551  34.352  13.687  1.00  0.00     0.001 A 
HETATM   12  C   LIG     1      18.465  33.511  12.575  1.00  0.00     0.001 A 
HETATM   13  C   LIG     1      17.515  32.487  12.539  1.00  0.00     0.012 A 
HETATM   14  C   LIG     1      15.857  32.964  15.833  1.00  0.00     0.024 A 
ENDROOT
TORSDOF 0
ENDMDL
MODEL 20
REMARK VINA RESULT:      -5.9     20.199     21.685
REMARK  0 active torsions:
REMARK  status: ('A' for Active; 'I' for Inactive)
ROOT
HETATM    1  C   LIG     1      12.956  18.106  12.218  1.00  0.00    -0.025 A 
HETATM    2  C   LIG     1      12.428  18.016  10.920  1.00  0.00     0.012 A 
HETATM    3  C   LIG     1      11.045  17.933  10.728  1.00  0.00     0.001 A 
HETATM    4  C   LIG     1      10.182  17.939  11.826  1.00  0.00     0.001 A 
HETATM    5  C   LIG     1      10.693  18.028  13.123  1.00  0.00     0.012 A 
HETATM    6  C   LIG     1      12.079  18.112  13.331  1.00  0.00    -0.025 A 
HETATM    7  C   LIG     1      12.602  18.202  14.630  1.00  0.00     0.024 A 
HETATM    8  C   LIG     1      13.986  18.286  14.831  1.00  0.00    -0.025 A 
HETATM    9  C   LIG     1      14.863  18.279  13.718  1.00  0.00    -0.025 A 
HETATM   10  C   LIG     1      16.249  18.363  13.926  1.00  0.00     0.012 A 
HETATM   11  C   LIG     1      16.760  18.453  15.223  1.00  0.00     0.001 A 
HETATM   12  C   LIG     1      15.897  18.459  16.321  1.00  0.00     0.001 A 
HETATM   13  C   LIG     1      14.515  18.377  16.129  1.00  0.00     0.012 A 
HETATM   14  C   LIG     1      14.340  18.190  12.419  1.00  0.00     0.024 A 
ENDROOT
TORSDOF 0
ENDMDL
