MODEL 1
REMARK VINA RESULT:      -6.0      0.000      0.000
REMARK  0 active torsions:
REMARK  status: ('A' for Active; 'I' for Inactive)
ROOT
HETATM    1 CL   LIG     1      16.460  39.113  22.456  1.00  0.00    -0.083 Cl
HETATM    2  C   LIG     1      16.939  37.844  23.575  1.00  0.00     0.055 A 
HETATM    3  C   LIG     1      16.856  36.486  23.217  1.00  0.00     0.057 A 
HETATM    4 CL   LIG     1      16.269  35.995  21.634  1.00  0.00    -0.082 Cl
HETATM    5  C   LIG     1      17.246  35.500  24.132  1.00  0.00     0.049 A 
HETATM    6  C   LIG     1      17.718  35.862  25.399  1.00  0.00     0.035 A 
HETATM    7 CL   LIG     1      18.204  34.623  26.541  1.00  0.00    -0.084 Cl
HETATM    8  C   LIG     1      17.800  37.212  25.754  1.00  0.00     0.025 A 
HETATM    9  C   LIG     1      17.412  38.200  24.844  1.00  0.00     0.027 A 
ENDROOT
TORSDOF 0
ENDMDL
MODEL 2
REMARK VINA RESULT:      -6.0      0.843      2.370
REMARK  0 active torsions:
REMARK  status: ('A' for Active; 'I' for Inactive)
ROOT
HETATM    1 CL   LIG     1      16.128  36.135  21.114  1.00  0.00    -0.083 Cl
HETATM    2  C   LIG     1      16.741  36.208  22.760  1.00  0.00     0.055 A 
HETATM    3  C   LIG     1      16.995  37.439  23.391  1.00  0.00     0.057 A 
HETATM    4 CL   LIG     1      16.712  38.964  22.562  1.00  0.00    -0.082 Cl
HETATM    5  C   LIG     1      17.483  37.461  24.704  1.00  0.00     0.049 A 
HETATM    6  C   LIG     1      17.718  36.263  25.388  1.00  0.00     0.035 A 
HETATM    7 CL   LIG     1      18.329  36.296  27.032  1.00  0.00    -0.084 Cl
HETATM    8  C   LIG     1      17.465  35.039  24.760  1.00  0.00     0.025 A 
HETATM    9  C   LIG     1      16.978  35.012  23.450  1.00  0.00     0.027 A 
ENDROOT
TORSDOF 0
ENDMDL
MODEL 3
REMARK VINA RESULT:      -5.8      1.666      3.510
REMARK  0 active torsions:
REMARK  status: ('A' for Active; 'I' for Inactive)
ROOT
HETATM    1 CL   LIG     1      17.450  37.994  25.961  1.00  0.00    -0.083 Cl
HETATM    2  C   LIG     1      17.182  37.227  24.402  1.00  0.00     0.055 A 
HETATM    3  C   LIG     1      17.167  35.826  24.270  1.00  0.00     0.057 A 
HETATM    4 CL   LIG     1      17.416  34.778  25.660  1.00  0.00    -0.082 Cl
HETATM    5  C   LIG     1      16.951  35.247  23.014  1.00  0.00     0.049 A 
HETATM    6  C   LIG     1      16.750  36.057  21.890  1.00  0.00     0.035 A 
HETATM    7 CL   LIG     1      16.480  35.327  20.319  1.00  0.00    -0.084 Cl
HETATM    8  C   LIG     1      16.765  37.449  22.021  1.00  0.00     0.025 A 
HETATM    9  C   LIG     1      16.980  38.032  23.274  1.00  0.00     0.027 A 
ENDROOT
TORSDOF 0
ENDMDL
MODEL 4
REMARK VINA RESULT:      -5.7      3.066      4.471
REMARK  0 active torsions:
REMARK  status: ('A' for Active; 'I' for Inactive)
ROOT
HETATM    1 CL   LIG     1      15.768  37.496  23.155  1.00  0.00    -0.083 Cl
HETATM    2  C   LIG     1      17.077  37.853  22.037  1.00  0.00     0.055 A 
HETATM    3  C   LIG     1      17.539  36.889  21.122  1.00  0.00     0.057 A 
HETATM    4 CL   LIG     1      16.829  35.281  21.056  1.00  0.00    -0.082 Cl
HETATM    5  C   LIG     1      18.583  37.206  20.246  1.00  0.00     0.049 A 
HETATM    6  C   LIG     1      19.167  38.478  20.276  1.00  0.00     0.035 A 
HETATM    7 CL   LIG     1      20.475  38.870  19.175  1.00  0.00    -0.084 Cl
HETATM    8  C   LIG     1      18.707  39.436  21.185  1.00  0.00     0.025 A 
HETATM    9  C   LIG     1      17.664  39.124  22.063  1.00  0.00     0.027 A 
ENDROOT
TORSDOF 0
ENDMDL
MODEL 5
REMARK VINA RESULT:      -5.6      3.255      5.159
REMARK  0 active torsions:
REMARK  status: ('A' for Active; 'I' for Inactive)
ROOT
HETATM    1 CL   LIG     1      15.997  36.245  22.278  1.00  0.00    -0.083 Cl
HETATM    2  C   LIG     1      17.291  37.044  21.397  1.00  0.00     0.055 A 
HETATM    3  C   LIG     1      17.684  38.359  21.709  1.00  0.00     0.057 A 
HETATM    4 CL   LIG     1      16.897  39.264  22.995  1.00  0.00    -0.082 Cl
HETATM    5  C   LIG     1      18.719  38.966  20.987  1.00  0.00     0.049 A 
HETATM    6  C   LIG     1      19.363  38.269  19.958  1.00  0.00     0.035 A 
HETATM    7 CL   LIG     1      20.659  39.035  19.057  1.00  0.00    -0.084 Cl
HETATM    8  C   LIG     1      18.972  36.963  19.649  1.00  0.00     0.025 A 
HETATM    9  C   LIG     1      17.940  36.352  20.366  1.00  0.00     0.027 A 
ENDROOT
TORSDOF 0
ENDMDL
MODEL 6
REMARK VINA RESULT:      -5.6      2.454      3.700
REMARK  0 active torsions:
REMARK  status: ('A' for Active; 'I' for Inactive)
ROOT
HETATM    1 CL   LIG     1      18.353  36.770  18.973  1.00  0.00    -0.083 Cl
HETATM    2  C   LIG     1      17.937  37.081  20.652  1.00  0.00     0.055 A 
HETATM    3  C   LIG     1      18.226  38.317  21.260  1.00  0.00     0.057 A 
HETATM    4 CL   LIG     1      19.017  39.609  20.366  1.00  0.00    -0.082 Cl
HETATM    5  C   LIG     1      17.881  38.532  22.599  1.00  0.00     0.049 A 
HETATM    6  C   LIG     1      17.250  37.522  23.335  1.00  0.00     0.035 A 
HETATM    7 CL   LIG     1      16.820  37.796  25.013  1.00  0.00    -0.084 Cl
HETATM    8  C   LIG     1      16.963  36.293  22.731  1.00  0.00     0.025 A 
HETATM    9  C   LIG     1      17.306  36.074  21.393  1.00  0.00     0.027 A 
ENDROOT
TORSDOF 0
ENDMDL
MODEL 7
REMARK VINA RESULT:      -5.5      3.202      3.736
REMARK  0 active torsions:
REMARK  status: ('A' for Active; 'I' for Inactive)
ROOT
HETATM    1 CL   LIG     1      19.023  39.437  21.391  1.00  0.00    -0.083 Cl
HETATM    2  C   LIG     1      17.911  38.075  21.416  1.00  0.00     0.055 A 
HETATM    3  C   LIG     1      18.098  36.965  20.572  1.00  0.00     0.057 A 
HETATM    4 CL   LIG     1      19.451  36.889  19.452  1.00  0.00    -0.082 Cl
HETATM    5  C   LIG     1      17.194  35.897  20.617  1.00  0.00     0.049 A 
HETATM    6  C   LIG     1      16.107  35.929  21.498  1.00  0.00     0.035 A 
HETATM    7 CL   LIG     1      14.978  34.588  21.551  1.00  0.00    -0.084 Cl
HETATM    8  C   LIG     1      15.923  37.033  22.338  1.00  0.00     0.025 A 
HETATM    9  C   LIG     1      16.822  38.102  22.297  1.00  0.00     0.027 A 
ENDROOT
TORSDOF 0
ENDMDL
MODEL 8
REMARK VINA RESULT:      -5.4      2.309      3.189
REMARK  0 active torsions:
REMARK  status: ('A' for Active; 'I' for Inactive)
ROOT
HETATM    1 CL   LIG     1      18.435  37.021  19.030  1.00  0.00    -0.083 Cl
HETATM    2  C   LIG     1      18.061  37.383  20.709  1.00  0.00     0.055 A 
HETATM    3  C   LIG     1      17.271  36.514  21.485  1.00  0.00     0.057 A 
HETATM    4 CL   LIG     1      16.621  35.026  20.809  1.00  0.00    -0.082 Cl
HETATM    5  C   LIG     1      16.992  36.832  22.819  1.00  0.00     0.049 A 
HETATM    6  C   LIG     1      17.497  38.009  23.384  1.00  0.00     0.035 A 
HETATM    7 CL   LIG     1      17.144  38.402  25.056  1.00  0.00    -0.084 Cl
HETATM    8  C   LIG     1      18.281  38.872  22.612  1.00  0.00     0.025 A 
HETATM    9  C   LIG     1      18.563  38.559  21.279  1.00  0.00     0.027 A 
ENDROOT
TORSDOF 0
ENDMDL
MODEL 9
REMARK VINA RESULT:      -5.3      1.688      3.307
REMARK  0 active torsions:
REMARK  status: ('A' for Active; 'I' for Inactive)
ROOT
HETATM    1 CL   LIG     1      17.457  38.292  25.632  1.00  0.00    -0.083 Cl
HETATM    2  C   LIG     1      17.142  37.201  24.290  1.00  0.00     0.055 A 
HETATM    3  C   LIG     1      16.818  37.690  23.011  1.00  0.00     0.057 A 
HETATM    4 CL   LIG     1      16.711  39.417  22.696  1.00  0.00    -0.082 Cl
HETATM    5  C   LIG     1      16.573  36.793  21.965  1.00  0.00     0.049 A 
HETATM    6  C   LIG     1      16.651  35.413  22.186  1.00  0.00     0.035 A 
HETATM    7 CL   LIG     1      16.344  34.294  20.871  1.00  0.00    -0.084 Cl
HETATM    8  C   LIG     1      16.974  34.928  23.457  1.00  0.00     0.025 A 
HETATM    9  C   LIG     1      17.219  35.819  24.506  1.00  0.00     0.027 A 
ENDROOT
TORSDOF 0
ENDMDL
MODEL 10
REMARK VINA RESULT:      -5.2      8.899     10.562
REMARK  0 active torsions:
REMARK  status: ('A' for Active; 'I' for Inactive)
ROOT
HETATM    1 CL   LIG     1      15.228  34.112  17.420  1.00  0.00    -0.083 Cl
HETATM    2  C   LIG     1      14.731  32.678  16.531  1.00  0.00     0.055 A 
HETATM    3  C   LIG     1      15.521  32.153  15.492  1.00  0.00     0.057 A 
HETATM    4 CL   LIG     1      17.042  32.908  15.033  1.00  0.00    -0.082 Cl
HETATM    5  C   LIG     1      15.097  31.010  14.804  1.00  0.00     0.049 A 
HETATM    6  C   LIG     1      13.891  30.388  15.148  1.00  0.00     0.035 A 
HETATM    7 CL   LIG     1      13.364  28.956  14.284  1.00  0.00    -0.084 Cl
HETATM    8  C   LIG     1      13.106  30.910  16.182  1.00  0.00     0.025 A 
HETATM    9  C   LIG     1      13.526  32.052  16.871  1.00  0.00     0.027 A 
ENDROOT
TORSDOF 0
ENDMDL
MODEL 11
REMARK VINA RESULT:      -5.0      1.274      3.462
REMARK  0 active torsions:
REMARK  status: ('A' for Active; 'I' for Inactive)
ROOT
HETATM    1 CL   LIG     1      17.031  34.914  25.602  1.00  0.00    -0.083 Cl
HETATM    2  C   LIG     1      17.358  36.269  24.530  1.00  0.00     0.055 A 
HETATM    3  C   LIG     1      17.025  36.215  23.164  1.00  0.00     0.057 A 
HETATM    4 CL   LIG     1      16.268  34.790  22.466  1.00  0.00    -0.082 Cl
HETATM    5  C   LIG     1      17.299  37.312  22.338  1.00  0.00     0.049 A 
HETATM    6  C   LIG     1      17.901  38.460  22.866  1.00  0.00     0.035 A 
HETATM    7 CL   LIG     1      18.242  39.830  21.827  1.00  0.00    -0.084 Cl
HETATM    8  C   LIG     1      18.231  38.512  24.225  1.00  0.00     0.025 A 
HETATM    9  C   LIG     1      17.960  37.420  25.054  1.00  0.00     0.027 A 
ENDROOT
TORSDOF 0
ENDMDL
MODEL 12
REMARK VINA RESULT:      -4.9      9.520     11.230
REMARK  0 active torsions:
REMARK  status: ('A' for Active; 'I' for Inactive)
ROOT
HETATM    1 CL   LIG     1      17.213  33.716  15.071  1.00  0.00    -0.083 Cl
HETATM    2  C   LIG     1      16.077  32.389  14.876  1.00  0.00     0.055 A 
HETATM    3  C   LIG     1      15.160  32.057  15.889  1.00  0.00     0.057 A 
HETATM    4 CL   LIG     1      15.107  32.956  17.400  1.00  0.00    -0.082 Cl
HETATM    5  C   LIG     1      14.269  30.993  15.701  1.00  0.00     0.049 A 
HETATM    6  C   LIG     1      14.288  30.261  14.509  1.00  0.00     0.035 A 
HETATM    7 CL   LIG     1      13.170  28.929  14.278  1.00  0.00    -0.084 Cl
HETATM    8  C   LIG     1      15.200  30.591  13.501  1.00  0.00     0.025 A 
HETATM    9  C   LIG     1      16.092  31.652  13.684  1.00  0.00     0.027 A 
ENDROOT
TORSDOF 0
ENDMDL
MODEL 13
REMARK VINA RESULT:      -4.8      9.817     11.403
REMARK  0 active torsions:
REMARK  status: ('A' for Active; 'I' for Inactive)
ROOT
HETATM    1 CL   LIG     1      13.376  29.279  14.407  1.00  0.00    -0.083 Cl
HETATM    2  C   LIG     1      14.541  30.590  14.523  1.00  0.00     0.055 A 
HETATM    3  C   LIG     1      14.678  31.343  15.704  1.00  0.00     0.057 A 
HETATM    4 CL   LIG     1      13.689  31.007  17.118  1.00  0.00    -0.082 Cl
HETATM    5  C   LIG     1      15.616  32.381  15.763  1.00  0.00     0.049 A 
HETATM    6  C   LIG     1      16.418  32.670  14.653  1.00  0.00     0.035 A 
HETATM    7 CL   LIG     1      17.591  33.971  14.732  1.00  0.00    -0.084 Cl
HETATM    8  C   LIG     1      16.281  31.921  13.479  1.00  0.00     0.025 A 
HETATM    9  C   LIG     1      15.346  30.884  13.415  1.00  0.00     0.027 A 
ENDROOT
TORSDOF 0
ENDMDL
MODEL 14
REMARK VINA RESULT:      -4.5      8.776     10.486
REMARK  0 active torsions:
REMARK  status: ('A' for Active; 'I' for Inactive)
ROOT
HETATM    1 CL   LIG     1      15.230  29.769  13.517  1.00  0.00    -0.083 Cl
HETATM    2  C   LIG     1      15.221  31.061  14.709  1.00  0.00     0.055 A 
HETATM    3  C   LIG     1      14.185  31.175  15.654  1.00  0.00     0.057 A 
HETATM    4 CL   LIG     1      12.851  30.029  15.687  1.00  0.00    -0.082 Cl
HETATM    5  C   LIG     1      14.208  32.217  16.590  1.00  0.00     0.049 A 
HETATM    6  C   LIG     1      15.258  33.143  16.587  1.00  0.00     0.035 A 
HETATM    7 CL   LIG     1      15.282  34.445  17.761  1.00  0.00    -0.084 Cl
HETATM    8  C   LIG     1      16.287  33.029  15.647  1.00  0.00     0.025 A 
HETATM    9  C   LIG     1      16.268  31.991  14.711  1.00  0.00     0.027 A 
ENDROOT
TORSDOF 0
ENDMDL
MODEL 15
REMARK VINA RESULT:      -4.5     10.492     11.979
REMARK  0 active torsions:
REMARK  status: ('A' for Active; 'I' for Inactive)
ROOT
HETATM    1 CL   LIG     1      12.772  32.191  16.785  1.00  0.00    -0.083 Cl
HETATM    2  C   LIG     1      13.564  31.049  15.709  1.00  0.00     0.055 A 
HETATM    3  C   LIG     1      14.916  31.200  15.350  1.00  0.00     0.057 A 
HETATM    4 CL   LIG     1      15.877  32.540  15.962  1.00  0.00    -0.082 Cl
HETATM    5  C   LIG     1      15.517  30.272  14.491  1.00  0.00     0.049 A 
HETATM    6  C   LIG     1      14.777  29.196  13.988  1.00  0.00     0.035 A 
HETATM    7 CL   LIG     1      15.533  28.036  12.912  1.00  0.00    -0.084 Cl
HETATM    8  C   LIG     1      13.433  29.046  14.345  1.00  0.00     0.025 A 
HETATM    9  C   LIG     1      12.829  29.970  15.203  1.00  0.00     0.027 A 
ENDROOT
TORSDOF 0
ENDMDL
MODEL 16
REMARK VINA RESULT:      -4.4     10.803     12.439
REMARK  0 active torsions:
REMARK  status: ('A' for Active; 'I' for Inactive)
ROOT
HETATM    1 CL   LIG     1      15.721  28.170  12.812  1.00  0.00    -0.083 Cl
HETATM    2  C   LIG     1      14.905  29.259  13.926  1.00  0.00     0.055 A 
HETATM    3  C   LIG     1      13.578  29.027  14.334  1.00  0.00     0.057 A 
HETATM    4 CL   LIG     1      12.675  27.637  13.748  1.00  0.00    -0.082 Cl
HETATM    5  C   LIG     1      12.958  29.914  15.222  1.00  0.00     0.049 A 
HETATM    6  C   LIG     1      13.653  31.029  15.705  1.00  0.00     0.035 A 
HETATM    7 CL   LIG     1      12.872  32.137  16.817  1.00  0.00    -0.084 Cl
HETATM    8  C   LIG     1      14.972  31.259  15.299  1.00  0.00     0.025 A 
HETATM    9  C   LIG     1      15.596  30.376  14.412  1.00  0.00     0.027 A 
ENDROOT
TORSDOF 0
ENDMDL
MODEL 17
REMARK VINA RESULT:      -4.3     16.731     17.230
REMARK  0 active torsions:
REMARK  status: ('A' for Active; 'I' for Inactive)
ROOT
HETATM    1 CL   LIG     1       3.286  42.107  31.527  1.00  0.00    -0.083 Cl
HETATM    2  C   LIG     1       3.730  41.349  33.050  1.00  0.00     0.055 A 
HETATM    3  C   LIG     1       4.170  42.115  34.146  1.00  0.00     0.057 A 
HETATM    4 CL   LIG     1       4.297  43.866  34.041  1.00  0.00    -0.082 Cl
HETATM    5  C   LIG     1       4.516  41.480  35.345  1.00  0.00     0.049 A 
HETATM    6  C   LIG     1       4.424  40.088  35.457  1.00  0.00     0.035 A 
HETATM    7 CL   LIG     1       4.859  39.297  36.960  1.00  0.00    -0.084 Cl
HETATM    8  C   LIG     1       3.987  39.327  34.367  1.00  0.00     0.025 A 
HETATM    9  C   LIG     1       3.640  39.956  33.168  1.00  0.00     0.027 A 
ENDROOT
TORSDOF 0
ENDMDL
MODEL 18
REMARK VINA RESULT:      -4.1      2.612      3.731
REMARK  0 active torsions:
REMARK  status: ('A' for Active; 'I' for Inactive)
ROOT
HETATM    1 CL   LIG     1      16.019  35.021  19.423  1.00  0.00    -0.083 Cl
HETATM    2  C   LIG     1      16.463  36.052  20.776  1.00  0.00     0.055 A 
HETATM    3  C   LIG     1      17.656  36.798  20.765  1.00  0.00     0.057 A 
HETATM    4 CL   LIG     1      18.759  36.732  19.397  1.00  0.00    -0.082 Cl
HETATM    5  C   LIG     1      17.980  37.610  21.859  1.00  0.00     0.049 A 
HETATM    6  C   LIG     1      17.120  37.682  22.961  1.00  0.00     0.035 A 
HETATM    7 CL   LIG     1      17.531  38.701  24.329  1.00  0.00    -0.084 Cl
HETATM    8  C   LIG     1      15.934  36.941  22.971  1.00  0.00     0.025 A 
HETATM    9  C   LIG     1      15.607  36.129  21.882  1.00  0.00     0.027 A 
ENDROOT
TORSDOF 0
ENDMDL
MODEL 19
REMARK VINA RESULT:      -4.1     16.653     17.100
REMARK  0 active torsions:
REMARK  status: ('A' for Active; 'I' for Inactive)
ROOT
HETATM    1 CL   LIG     1       4.054  45.293  32.733  1.00  0.00    -0.083 Cl
HETATM    2  C   LIG     1       4.005  43.601  33.206  1.00  0.00     0.055 A 
HETATM    3  C   LIG     1       3.694  42.591  32.277  1.00  0.00     0.057 A 
HETATM    4 CL   LIG     1       3.339  42.976  30.598  1.00  0.00    -0.082 Cl
HETATM    5  C   LIG     1       3.663  41.253  32.687  1.00  0.00     0.049 A 
HETATM    6  C   LIG     1       3.941  40.917  34.017  1.00  0.00     0.035 A 
HETATM    7 CL   LIG     1       3.901  39.239  34.525  1.00  0.00    -0.084 Cl
HETATM    8  C   LIG     1       4.251  41.921  34.940  1.00  0.00     0.025 A 
HETATM    9  C   LIG     1       4.283  43.259  34.536  1.00  0.00     0.027 A 
ENDROOT
TORSDOF 0
ENDMDL
MODEL 20
REMARK VINA RESULT:      -4.1     16.556     16.889
REMARK  0 active torsions:
REMARK  status: ('A' for Active; 'I' for Inactive)
ROOT
HETATM    1 CL   LIG     1       3.409  42.927  31.616  1.00  0.00    -0.083 Cl
HETATM    2  C   LIG     1       3.758  41.859  32.968  1.00  0.00     0.055 A 
HETATM    3  C   LIG     1       3.634  40.463  32.847  1.00  0.00     0.057 A 
HETATM    4 CL   LIG     1       3.124  39.721  31.337  1.00  0.00    -0.082 Cl
HETATM    5  C   LIG     1       3.920  39.641  33.944  1.00  0.00     0.049 A 
HETATM    6  C   LIG     1       4.329  40.203  35.159  1.00  0.00     0.035 A 
HETATM    7 CL   LIG     1       4.686  39.169  36.529  1.00  0.00    -0.084 Cl
HETATM    8  C   LIG     1       4.452  41.591  35.279  1.00  0.00     0.025 A 
HETATM    9  C   LIG     1       4.168  42.416  34.186  1.00  0.00     0.027 A 
ENDROOT
TORSDOF 0
ENDMDL
