REMARK  0 active torsions:
REMARK  status: ('A' for Active; 'I' for Inactive)
ROOT
HETATM    1  O   LIG     1      -2.222   1.043   0.021  1.00  0.00    -0.262 OA
HETATM    2  C   LIG     1      -1.078   0.518   0.010  1.00  0.00     0.317 A 
HETATM    3  N   LIG     1       0.140   1.249   0.012  1.00  0.00    -0.271 N 
HETATM    4  C   LIG     1       1.148   0.237  -0.003  1.00  0.00     0.330 A 
HETATM    5  O   LIG     1       2.380   0.492  -0.005  1.00  0.00    -0.246 OA
HETATM    6  C   LIG     1      -0.785  -0.903  -0.006  1.00  0.00     0.317 A 
HETATM    7  N   LIG     1       0.624  -1.091  -0.014  1.00  0.00    -0.271 N 
HETATM    8  O   LIG     1      -1.627  -1.838  -0.012  1.00  0.00    -0.262 OA
HETATM    9  H   LIG     1       0.269   2.285   0.023  1.00  0.00     0.174 HD
HETATM   10  H   LIG     1       1.152  -1.992  -0.026  1.00  0.00     0.174 HD
ENDROOT
TORSDOF 0
