REMARK  0 active torsions:
REMARK  status: ('A' for Active; 'I' for Inactive)
ROOT
HETATM    1 CL   LIG     1      -3.069   0.650   0.045  1.00  0.00    -0.083 Cl
HETATM    2  C   LIG     1      -1.347   0.296   0.020  1.00  0.00     0.055 A 
HETATM    3  C   LIG     1      -0.874  -1.029   0.011  1.00  0.00     0.057 A 
HETATM    4 CL   LIG     1      -1.984  -2.393   0.025  1.00  0.00    -0.082 Cl
HETATM    5  C   LIG     1       0.504  -1.276  -0.009  1.00  0.00     0.049 A 
HETATM    6  C   LIG     1       1.411  -0.210  -0.021  1.00  0.00     0.035 A 
HETATM    7 CL   LIG     1       3.136  -0.525  -0.046  1.00  0.00    -0.084 Cl
HETATM    8  C   LIG     1       0.940   1.107  -0.012  1.00  0.00     0.025 A 
HETATM    9  C   LIG     1      -0.435   1.359   0.008  1.00  0.00     0.027 A 
ENDROOT
TORSDOF 0
