MODEL 1
REMARK VINA RESULT:      -6.8      0.000      0.000
REMARK  0 active torsions:
REMARK  status: ('A' for Active; 'I' for Inactive)
ROOT
HETATM    1  C   LIG     1      17.127  36.159  24.199  1.00  0.00    -0.008 A 
HETATM    2  C   LIG     1      17.415  34.921  24.769  1.00  0.00     0.014 A 
HETATM    3  C   LIG     1      17.961  34.907  26.066  1.00  0.00     0.001 A 
HETATM    4  C   LIG     1      18.203  36.118  26.754  1.00  0.00     0.002 A 
HETATM    5  C   LIG     1      17.901  37.353  26.150  1.00  0.00     0.030 A 
HETATM    6  C   LIG     1      17.361  37.333  24.865  1.00  0.00     0.042 A 
HETATM    7  N   LIG     1      17.002  38.387  24.113  1.00  0.00    -0.365 N 
HETATM    8  C   LIG     1      16.534  37.871  22.953  1.00  0.00     0.089 A 
HETATM    9  C   LIG     1      16.596  36.481  22.970  1.00  0.00     0.030 A 
HETATM   10  H   LIG     1      17.070  39.398  24.367  1.00  0.00     0.165 HD
ENDROOT
TORSDOF 0
ENDMDL
MODEL 2
REMARK VINA RESULT:      -6.4      1.096      3.031
REMARK  0 active torsions:
REMARK  status: ('A' for Active; 'I' for Inactive)
ROOT
HETATM    1  C   LIG     1      17.484  35.655  24.812  1.00  0.00    -0.008 A 
HETATM    2  C   LIG     1      17.044  35.055  23.633  1.00  0.00     0.014 A 
HETATM    3  C   LIG     1      16.709  35.895  22.556  1.00  0.00     0.001 A 
HETATM    4  C   LIG     1      16.819  37.299  22.680  1.00  0.00     0.002 A 
HETATM    5  C   LIG     1      17.266  37.874  23.884  1.00  0.00     0.030 A 
HETATM    6  C   LIG     1      17.591  37.015  24.934  1.00  0.00     0.042 A 
HETATM    7  N   LIG     1      18.035  37.350  26.157  1.00  0.00    -0.365 N 
HETATM    8  C   LIG     1      18.210  36.183  26.819  1.00  0.00     0.089 A 
HETATM    9  C   LIG     1      17.877  35.102  26.010  1.00  0.00     0.030 A 
HETATM   10  H   LIG     1      18.208  38.312  26.525  1.00  0.00     0.165 HD
ENDROOT
TORSDOF 0
ENDMDL
MODEL 3
REMARK VINA RESULT:      -6.3      3.152      4.997
REMARK  0 active torsions:
REMARK  status: ('A' for Active; 'I' for Inactive)
ROOT
HETATM    1  C   LIG     1      17.886  38.627  21.550  1.00  0.00    -0.008 A 
HETATM    2  C   LIG     1      18.848  39.362  20.860  1.00  0.00     0.014 A 
HETATM    3  C   LIG     1      19.543  38.719  19.819  1.00  0.00     0.001 A 
HETATM    4  C   LIG     1      19.263  37.372  19.497  1.00  0.00     0.002 A 
HETATM    5  C   LIG     1      18.287  36.656  20.214  1.00  0.00     0.030 A 
HETATM    6  C   LIG     1      17.615  37.321  21.239  1.00  0.00     0.042 A 
HETATM    7  N   LIG     1      16.654  36.830  22.040  1.00  0.00    -0.365 N 
HETATM    8  C   LIG     1      16.314  37.842  22.871  1.00  0.00     0.089 A 
HETATM    9  C   LIG     1      17.062  38.982  22.595  1.00  0.00     0.030 A 
HETATM   10  H   LIG     1      16.252  35.866  22.028  1.00  0.00     0.165 HD
ENDROOT
TORSDOF 0
ENDMDL
MODEL 4
REMARK VINA RESULT:      -6.3      3.420      4.480
REMARK  0 active torsions:
REMARK  status: ('A' for Active; 'I' for Inactive)
ROOT
HETATM    1  C   LIG     1      18.467  37.443  20.433  1.00  0.00    -0.008 A 
HETATM    2  C   LIG     1      17.635  36.368  20.739  1.00  0.00     0.014 A 
HETATM    3  C   LIG     1      16.708  36.533  21.784  1.00  0.00     0.001 A 
HETATM    4  C   LIG     1      16.635  37.755  22.491  1.00  0.00     0.002 A 
HETATM    5  C   LIG     1      17.491  38.822  22.159  1.00  0.00     0.030 A 
HETATM    6  C   LIG     1      18.398  38.628  21.118  1.00  0.00     0.042 A 
HETATM    7  N   LIG     1      19.297  39.506  20.642  1.00  0.00    -0.365 N 
HETATM    8  C   LIG     1      19.944  38.867  19.641  1.00  0.00     0.089 A 
HETATM    9  C   LIG     1      19.453  37.575  19.480  1.00  0.00     0.030 A 
HETATM   10  H   LIG     1      19.465  40.482  20.975  1.00  0.00     0.165 HD
ENDROOT
TORSDOF 0
ENDMDL
MODEL 5
REMARK VINA RESULT:      -5.6      9.344     11.024
REMARK  0 active torsions:
REMARK  status: ('A' for Active; 'I' for Inactive)
ROOT
HETATM    1  C   LIG     1      15.047  31.783  15.731  1.00  0.00    -0.008 A 
HETATM    2  C   LIG     1      15.374  31.068  14.581  1.00  0.00     0.014 A 
HETATM    3  C   LIG     1      14.475  30.078  14.146  1.00  0.00     0.001 A 
HETATM    4  C   LIG     1      13.282  29.828  14.862  1.00  0.00     0.002 A 
HETATM    5  C   LIG     1      12.980  30.567  16.022  1.00  0.00     0.030 A 
HETATM    6  C   LIG     1      13.891  31.542  16.427  1.00  0.00     0.042 A 
HETATM    7  N   LIG     1      13.799  32.354  17.493  1.00  0.00    -0.365 N 
HETATM    8  C   LIG     1      14.914  33.120  17.472  1.00  0.00     0.089 A 
HETATM    9  C   LIG     1      15.718  32.792  16.385  1.00  0.00     0.030 A 
HETATM   10  H   LIG     1      13.028  32.389  18.197  1.00  0.00     0.165 HD
ENDROOT
TORSDOF 0
ENDMDL
MODEL 6
REMARK VINA RESULT:      -5.6      9.405     11.079
REMARK  0 active torsions:
REMARK  status: ('A' for Active; 'I' for Inactive)
ROOT
HETATM    1  C   LIG     1      14.227  31.400  16.159  1.00  0.00    -0.008 A 
HETATM    2  C   LIG     1      13.554  30.355  15.528  1.00  0.00     0.014 A 
HETATM    3  C   LIG     1      14.064  29.892  14.302  1.00  0.00     0.001 A 
HETATM    4  C   LIG     1      15.222  30.478  13.741  1.00  0.00     0.002 A 
HETATM    5  C   LIG     1      15.878  31.533  14.402  1.00  0.00     0.030 A 
HETATM    6  C   LIG     1      15.348  31.969  15.616  1.00  0.00     0.042 A 
HETATM    7  N   LIG     1      15.814  32.951  16.406  1.00  0.00    -0.365 N 
HETATM    8  C   LIG     1      14.973  33.004  17.464  1.00  0.00     0.089 A 
HETATM    9  C   LIG     1      13.968  32.049  17.346  1.00  0.00     0.030 A 
HETATM   10  H   LIG     1      16.652  33.552  16.239  1.00  0.00     0.165 HD
ENDROOT
TORSDOF 0
ENDMDL
MODEL 7
REMARK VINA RESULT:      -5.4      9.959     11.462
REMARK  0 active torsions:
REMARK  status: ('A' for Active; 'I' for Inactive)
ROOT
HETATM    1  C   LIG     1      14.718  30.865  14.977  1.00  0.00    -0.008 A 
HETATM    2  C   LIG     1      15.736  31.793  15.187  1.00  0.00     0.014 A 
HETATM    3  C   LIG     1      15.578  32.713  16.240  1.00  0.00     0.001 A 
HETATM    4  C   LIG     1      14.419  32.684  17.049  1.00  0.00     0.002 A 
HETATM    5  C   LIG     1      13.408  31.735  16.810  1.00  0.00     0.030 A 
HETATM    6  C   LIG     1      13.594  30.837  15.760  1.00  0.00     0.042 A 
HETATM    7  N   LIG     1      12.763  29.858  15.364  1.00  0.00    -0.365 N 
HETATM    8  C   LIG     1      13.370  29.259  14.314  1.00  0.00     0.089 A 
HETATM    9  C   LIG     1      14.595  29.861  14.043  1.00  0.00     0.030 A 
HETATM   10  H   LIG     1      11.837  29.609  15.778  1.00  0.00     0.165 HD
ENDROOT
TORSDOF 0
ENDMDL
MODEL 8
REMARK VINA RESULT:      -5.4      9.657     11.101
REMARK  0 active torsions:
REMARK  status: ('A' for Active; 'I' for Inactive)
ROOT
HETATM    1  C   LIG     1      14.355  30.791  15.415  1.00  0.00    -0.008 A 
HETATM    2  C   LIG     1      13.623  30.864  16.599  1.00  0.00     0.014 A 
HETATM    3  C   LIG     1      13.910  31.918  17.484  1.00  0.00     0.001 A 
HETATM    4  C   LIG     1      14.911  32.866  17.169  1.00  0.00     0.002 A 
HETATM    5  C   LIG     1      15.634  32.765  15.966  1.00  0.00     0.030 A 
HETATM    6  C   LIG     1      15.325  31.709  15.109  1.00  0.00     0.042 A 
HETATM    7  N   LIG     1      15.886  31.429  13.921  1.00  0.00    -0.365 N 
HETATM    8  C   LIG     1      15.261  30.317  13.469  1.00  0.00     0.089 A 
HETATM    9  C   LIG     1      14.297  29.890  14.376  1.00  0.00     0.030 A 
HETATM   10  H   LIG     1      16.649  31.958  13.442  1.00  0.00     0.165 HD
ENDROOT
TORSDOF 0
ENDMDL
MODEL 9
REMARK VINA RESULT:      -5.4      9.960     10.978
REMARK  0 active torsions:
REMARK  status: ('A' for Active; 'I' for Inactive)
ROOT
HETATM    1  C   LIG     1      15.309  31.471  14.873  1.00  0.00    -0.008 A 
HETATM    2  C   LIG     1      14.500  30.433  14.415  1.00  0.00     0.014 A 
HETATM    3  C   LIG     1      13.379  30.084  15.191  1.00  0.00     0.001 A 
HETATM    4  C   LIG     1      13.097  30.773  16.392  1.00  0.00     0.002 A 
HETATM    5  C   LIG     1      13.934  31.817  16.828  1.00  0.00     0.030 A 
HETATM    6  C   LIG     1      15.036  32.140  16.037  1.00  0.00     0.042 A 
HETATM    7  N   LIG     1      15.955  33.093  16.264  1.00  0.00    -0.365 N 
HETATM    8  C   LIG     1      16.822  33.026  15.228  1.00  0.00     0.089 A 
HETATM    9  C   LIG     1      16.451  32.024  14.337  1.00  0.00     0.030 A 
HETATM   10  H   LIG     1      15.995  33.752  17.074  1.00  0.00     0.165 HD
ENDROOT
TORSDOF 0
ENDMDL
MODEL 10
REMARK VINA RESULT:      -5.2      1.628      3.311
REMARK  0 active torsions:
REMARK  status: ('A' for Active; 'I' for Inactive)
ROOT
HETATM    1  C   LIG     1      17.225  36.240  22.932  1.00  0.00    -0.008 A 
HETATM    2  C   LIG     1      17.234  36.773  21.644  1.00  0.00     0.014 A 
HETATM    3  C   LIG     1      17.450  38.157  21.509  1.00  0.00     0.001 A 
HETATM    4  C   LIG     1      17.649  38.966  22.651  1.00  0.00     0.002 A 
HETATM    5  C   LIG     1      17.632  38.397  23.938  1.00  0.00     0.030 A 
HETATM    6  C   LIG     1      17.417  37.024  24.039  1.00  0.00     0.042 A 
HETATM    7  N   LIG     1      17.365  36.284  25.160  1.00  0.00    -0.365 N 
HETATM    8  C   LIG     1      17.135  35.014  24.755  1.00  0.00     0.089 A 
HETATM    9  C   LIG     1      17.043  34.947  23.368  1.00  0.00     0.030 A 
HETATM   10  H   LIG     1      17.476  36.618  26.144  1.00  0.00     0.165 HD
ENDROOT
TORSDOF 0
ENDMDL
MODEL 11
REMARK VINA RESULT:      -4.8     10.410     11.666
REMARK  0 active torsions:
REMARK  status: ('A' for Active; 'I' for Inactive)
ROOT
HETATM    1  C   LIG     1      14.552  31.686  15.903  1.00  0.00    -0.008 A 
HETATM    2  C   LIG     1      15.665  32.498  15.693  1.00  0.00     0.014 A 
HETATM    3  C   LIG     1      16.406  32.302  14.513  1.00  0.00     0.001 A 
HETATM    4  C   LIG     1      16.023  31.310  13.583  1.00  0.00     0.002 A 
HETATM    5  C   LIG     1      14.894  30.505  13.825  1.00  0.00     0.030 A 
HETATM    6  C   LIG     1      14.180  30.724  15.002  1.00  0.00     0.042 A 
HETATM    7  N   LIG     1      13.082  30.075  15.425  1.00  0.00    -0.365 N 
HETATM    8  C   LIG     1      12.755  30.636  16.612  1.00  0.00     0.089 A 
HETATM    9  C   LIG     1      13.651  31.647  16.944  1.00  0.00     0.030 A 
HETATM   10  H   LIG     1      12.581  29.297  14.940  1.00  0.00     0.165 HD
ENDROOT
TORSDOF 0
ENDMDL
MODEL 12
REMARK VINA RESULT:      -4.6      7.203      8.936
REMARK  0 active torsions:
REMARK  status: ('A' for Active; 'I' for Inactive)
ROOT
HETATM    1  C   LIG     1      14.526  31.828  18.439  1.00  0.00    -0.008 A 
HETATM    2  C   LIG     1      13.958  30.904  17.565  1.00  0.00     0.014 A 
HETATM    3  C   LIG     1      14.031  31.175  16.186  1.00  0.00     0.001 A 
HETATM    4  C   LIG     1      14.665  32.349  15.719  1.00  0.00     0.002 A 
HETATM    5  C   LIG     1      15.229  33.264  16.629  1.00  0.00     0.030 A 
HETATM    6  C   LIG     1      15.140  32.967  17.988  1.00  0.00     0.042 A 
HETATM    7  N   LIG     1      15.607  33.694  19.016  1.00  0.00    -0.365 N 
HETATM    8  C   LIG     1      15.284  33.005  20.135  1.00  0.00     0.089 A 
HETATM    9  C   LIG     1      14.608  31.833  19.814  1.00  0.00     0.030 A 
HETATM   10  H   LIG     1      16.116  34.606  18.966  1.00  0.00     0.165 HD
ENDROOT
TORSDOF 0
ENDMDL
MODEL 13
REMARK VINA RESULT:      -4.2      6.250      7.533
REMARK  0 active torsions:
REMARK  status: ('A' for Active; 'I' for Inactive)
ROOT
HETATM    1  C   LIG     1      15.081  32.595  18.096  1.00  0.00    -0.008 A 
HETATM    2  C   LIG     1      14.785  31.792  19.196  1.00  0.00     0.014 A 
HETATM    3  C   LIG     1      14.881  32.370  20.475  1.00  0.00     0.001 A 
HETATM    4  C   LIG     1      15.267  33.722  20.623  1.00  0.00     0.002 A 
HETATM    5  C   LIG     1      15.561  34.507  19.492  1.00  0.00     0.030 A 
HETATM    6  C   LIG     1      15.455  33.905  18.238  1.00  0.00     0.042 A 
HETATM    7  N   LIG     1      15.686  34.466  17.040  1.00  0.00    -0.365 N 
HETATM    8  C   LIG     1      15.455  33.496  16.126  1.00  0.00     0.089 A 
HETATM    9  C   LIG     1      15.073  32.312  16.749  1.00  0.00     0.030 A 
HETATM   10  H   LIG     1      15.985  35.449  16.849  1.00  0.00     0.165 HD
ENDROOT
TORSDOF 0
ENDMDL
MODEL 14
REMARK VINA RESULT:      -4.2     12.547     12.767
REMARK  0 active torsions:
REMARK  status: ('A' for Active; 'I' for Inactive)
ROOT
HETATM    1  C   LIG     1      28.209  39.031  19.150  1.00  0.00    -0.008 A 
HETATM    2  C   LIG     1      28.980  40.191  19.106  1.00  0.00     0.014 A 
HETATM    3  C   LIG     1      30.129  40.245  19.915  1.00  0.00     0.001 A 
HETATM    4  C   LIG     1      30.477  39.152  20.741  1.00  0.00     0.002 A 
HETATM    5  C   LIG     1      29.676  37.994  20.764  1.00  0.00     0.030 A 
HETATM    6  C   LIG     1      28.545  37.970  19.950  1.00  0.00     0.042 A 
HETATM    7  N   LIG     1      27.652  36.974  19.819  1.00  0.00    -0.365 N 
HETATM    8  C   LIG     1      26.738  37.412  18.923  1.00  0.00     0.089 A 
HETATM    9  C   LIG     1      27.053  38.693  18.482  1.00  0.00     0.030 A 
HETATM   10  H   LIG     1      27.659  36.051  20.308  1.00  0.00     0.165 HD
ENDROOT
TORSDOF 0
ENDMDL
