REMARK  7 active torsions:
REMARK  status: ('A' for Active; 'I' for Inactive)
REMARK    1  A    between atoms: O_1  and  C_2 
REMARK    2  A    between atoms: C_2  and  C_3 
REMARK    3  A    between atoms: C_3  and  N_4 
REMARK    4  A    between atoms: N_4  and  C_11 
REMARK    5  A    between atoms: N_4  and  C_5 
REMARK    6  A    between atoms: C_11  and  C_12 
REMARK    7  A    between atoms: C_12  and  O_13 
ROOT
HETATM    1  N   LIG     1      -0.742   0.178  -0.014  1.00  0.00    -0.377 N 
ENDROOT
BRANCH   1   2
HETATM    2  C   LIG     1      -1.402   1.216  -0.821  1.00  0.00     0.149 C 
BRANCH   2   3
HETATM    3  C   LIG     1      -0.835   2.601  -0.497  1.00  0.00     0.183 C 
BRANCH   3   4
HETATM    4  O   LIG     1      -0.987   2.891   0.867  1.00  0.00    -0.399 OA
HETATM    5  H   LIG     1      -1.948   3.094   1.008  1.00  0.00     0.209 HD
ENDBRANCH   3   4
ENDBRANCH   2   3
ENDBRANCH   1   2
BRANCH   1   6
HETATM    6  C   LIG     1      -1.499  -0.562   1.006  1.00  0.00     0.149 C 
BRANCH   6   7
HETATM    7  C   LIG     1      -1.678  -2.021   0.584  1.00  0.00     0.183 C 
BRANCH   7   8
HETATM    8  O   LIG     1      -2.463  -2.706   1.522  1.00  0.00    -0.399 OA
HETATM    9  H   LIG     1      -1.879  -2.882   2.305  1.00  0.00     0.209 HD
ENDBRANCH   7   8
ENDBRANCH   6   7
ENDBRANCH   1   6
BRANCH   1  10
HETATM   10  C   LIG     1       0.655  -0.112  -0.222  1.00  0.00     0.030 A 
HETATM   11  C   LIG     1       1.564  -0.035   0.847  1.00  0.00     0.029 A 
HETATM   12  C   LIG     1       2.918  -0.316   0.642  1.00  0.00     0.002 A 
HETATM   13  C   LIG     1       3.375  -0.676  -0.628  1.00  0.00     0.000 A 
HETATM   14  C   LIG     1       2.478  -0.755  -1.697  1.00  0.00     0.002 A 
HETATM   15  C   LIG     1       1.123  -0.474  -1.497  1.00  0.00     0.029 A 
ENDBRANCH   1  10
TORSDOF 7
