REMARK  0 active torsions:
REMARK  status: ('A' for Active; 'I' for Inactive)
ROOT
HETATM    1  C   LIG     1       0.284  -0.712  -0.113  1.00  0.00    -0.008 A 
HETATM    2  C   LIG     1      -0.938  -1.365  -0.262  1.00  0.00     0.014 A 
HETATM    3  C   LIG     1      -2.110  -0.593  -0.166  1.00  0.00     0.001 A 
HETATM    4  C   LIG     1      -2.034   0.798   0.074  1.00  0.00     0.002 A 
HETATM    5  C   LIG     1      -0.784   1.428   0.221  1.00  0.00     0.030 A 
HETATM    6  C   LIG     1       0.359   0.636   0.120  1.00  0.00     0.042 A 
HETATM    7  N   LIG     1       1.639   1.030   0.226  1.00  0.00    -0.365 N 
HETATM    8  C   LIG     1       2.385  -0.086   0.058  1.00  0.00     0.089 A 
HETATM    9  C   LIG     1       1.573  -1.195  -0.157  1.00  0.00     0.030 A 
HETATM   10  H   LIG     1       1.990   1.998   0.403  1.00  0.00     0.165 HD
ENDROOT
TORSDOF 0
