REMARK  1 active torsions:
REMARK  status: ('A' for Active; 'I' for Inactive)
REMARK    1  A    between atoms: C_2  and  C_3 
ROOT
HETATM    1  C   LIG     1       1.619  -0.168  -0.069  1.00  0.00     0.004 A 
HETATM    2  C   LIG     1       0.559  -1.036  -0.411  1.00  0.00     0.054 A 
HETATM    3  C   LIG     1      -0.744  -0.582  -0.230  1.00  0.00     0.105 A 
HETATM    4  O   LIG     1      -1.929  -1.243  -0.490  1.00  0.00    -0.323 OA
HETATM    5  C   LIG     1      -3.011  -0.367  -0.142  1.00  0.00     0.352 A 
HETATM    6  O   LIG     1      -2.382   0.832   0.333  1.00  0.00    -0.323 OA
HETATM    7  C   LIG     1      -1.014   0.654   0.260  1.00  0.00     0.105 A 
HETATM    8  C   LIG     1      -0.004   1.544   0.612  1.00  0.00     0.040 A 
HETATM    9  C   LIG     1       1.329   1.125   0.444  1.00  0.00     0.017 A 
ENDROOT
BRANCH   1  10
HETATM   10  C   LIG     1       3.011  -0.618  -0.249  1.00  0.00     0.270 C 
HETATM   11  O   LIG     1       3.980   0.130   0.047  1.00  0.00    -0.301 OA
ENDBRANCH   1  10
TORSDOF 1
