MODEL 1
REMARK VINA RESULT:      -6.7      0.000      0.000
REMARK  7 active torsions:
REMARK  status: ('A' for Active; 'I' for Inactive)
REMARK    1  A    between atoms: O_1  and  C_2 
REMARK    2  A    between atoms: C_2  and  C_3 
REMARK    3  A    between atoms: C_3  and  N_4 
REMARK    4  A    between atoms: N_4  and  C_11 
REMARK    5  A    between atoms: N_4  and  C_5 
REMARK    6  A    between atoms: C_11  and  C_12 
REMARK    7  A    between atoms: C_12  and  O_13 
ROOT
HETATM    1  N   LIG     1      16.834  36.999  22.812  1.00  0.00    -0.377 N 
ENDROOT
BRANCH   1   2
HETATM    2  C   LIG     1      16.418  36.010  21.806  1.00  0.00     0.149 C 
BRANCH   2   3
HETATM    3  C   LIG     1      14.909  36.089  21.556  1.00  0.00     0.183 C 
BRANCH   3   4
HETATM    4  O   LIG     1      14.345  34.805  21.525  1.00  0.00    -0.399 OA
HETATM    5  H   LIG     1      13.391  34.908  21.777  1.00  0.00     0.209 HD
ENDBRANCH   3   4
ENDBRANCH   2   3
ENDBRANCH   1   2
BRANCH   1   6
HETATM    6  C   LIG     1      16.790  38.435  22.503  1.00  0.00     0.149 C 
BRANCH   6   7
HETATM    7  C   LIG     1      17.877  38.796  21.489  1.00  0.00     0.183 C 
BRANCH   7   8
HETATM    8  O   LIG     1      19.014  39.285  22.147  1.00  0.00    -0.399 OA
HETATM    9  H   LIG     1      19.765  39.218  21.502  1.00  0.00     0.209 HD
ENDBRANCH   7   8
ENDBRANCH   6   7
ENDBRANCH   1   6
BRANCH   1  10
HETATM   10  C   LIG     1      17.291  36.557  24.106  1.00  0.00     0.030 A 
HETATM   11  C   LIG     1      17.851  37.472  25.013  1.00  0.00     0.029 A 
HETATM   12  C   LIG     1      18.294  37.041  26.267  1.00  0.00     0.002 A 
HETATM   13  C   LIG     1      18.181  35.695  26.626  1.00  0.00     0.000 A 
HETATM   14  C   LIG     1      17.625  34.778  25.729  1.00  0.00     0.002 A 
HETATM   15  C   LIG     1      17.182  35.205  24.474  1.00  0.00     0.029 A 
ENDBRANCH   1  10
TORSDOF 7
ENDMDL
MODEL 2
REMARK VINA RESULT:      -6.7      0.141      3.168
REMARK  7 active torsions:
REMARK  status: ('A' for Active; 'I' for Inactive)
REMARK    1  A    between atoms: O_1  and  C_2 
REMARK    2  A    between atoms: C_2  and  C_3 
REMARK    3  A    between atoms: C_3  and  N_4 
REMARK    4  A    between atoms: N_4  and  C_11 
REMARK    5  A    between atoms: N_4  and  C_5 
REMARK    6  A    between atoms: C_11  and  C_12 
REMARK    7  A    between atoms: C_12  and  O_13 
ROOT
HETATM    1  N   LIG     1      16.857  36.847  22.804  1.00  0.00    -0.377 N 
ENDROOT
BRANCH   1   2
HETATM    2  C   LIG     1      16.818  38.264  22.410  1.00  0.00     0.149 C 
BRANCH   2   3
HETATM    3  C   LIG     1      17.952  38.590  21.434  1.00  0.00     0.183 C 
BRANCH   3   4
HETATM    4  O   LIG     1      18.924  39.388  22.055  1.00  0.00    -0.399 OA
HETATM    5  H   LIG     1      18.471  40.230  22.323  1.00  0.00     0.209 HD
ENDBRANCH   3   4
ENDBRANCH   2   3
ENDBRANCH   1   2
BRANCH   1   6
HETATM    6  C   LIG     1      16.430  35.803  21.862  1.00  0.00     0.149 C 
BRANCH   6   7
HETATM    7  C   LIG     1      14.961  35.994  21.482  1.00  0.00     0.183 C 
BRANCH   7   8
HETATM    8  O   LIG     1      14.280  34.770  21.540  1.00  0.00    -0.399 OA
HETATM    9  H   LIG     1      14.114  34.494  20.601  1.00  0.00     0.209 HD
ENDBRANCH   7   8
ENDBRANCH   6   7
ENDBRANCH   1   6
BRANCH   1  10
HETATM   10  C   LIG     1      17.314  36.481  24.122  1.00  0.00     0.030 A 
HETATM   11  C   LIG     1      17.844  37.454  24.986  1.00  0.00     0.029 A 
HETATM   12  C   LIG     1      18.287  37.097  26.263  1.00  0.00     0.002 A 
HETATM   13  C   LIG     1      18.202  35.769  26.688  1.00  0.00     0.000 A 
HETATM   14  C   LIG     1      17.676  34.794  25.835  1.00  0.00     0.002 A 
HETATM   15  C   LIG     1      17.233  35.147  24.557  1.00  0.00     0.029 A 
ENDBRANCH   1  10
TORSDOF 7
ENDMDL
MODEL 3
REMARK VINA RESULT:      -6.7      1.883      5.005
REMARK  7 active torsions:
REMARK  status: ('A' for Active; 'I' for Inactive)
REMARK    1  A    between atoms: O_1  and  C_2 
REMARK    2  A    between atoms: C_2  and  C_3 
REMARK    3  A    between atoms: C_3  and  N_4 
REMARK    4  A    between atoms: N_4  and  C_11 
REMARK    5  A    between atoms: N_4  and  C_5 
REMARK    6  A    between atoms: C_11  and  C_12 
REMARK    7  A    between atoms: C_12  and  O_13 
ROOT
HETATM    1  N   LIG     1      16.755  36.998  22.214  1.00  0.00    -0.377 N 
ENDROOT
BRANCH   1   2
HETATM    2  C   LIG     1      16.254  37.842  23.311  1.00  0.00     0.149 C 
BRANCH   2   3
HETATM    3  C   LIG     1      16.938  37.481  24.632  1.00  0.00     0.183 C 
BRANCH   3   4
HETATM    4  O   LIG     1      17.254  38.639  25.358  1.00  0.00    -0.399 OA
HETATM    5  H   LIG     1      17.428  39.353  24.691  1.00  0.00     0.209 HD
ENDBRANCH   3   4
ENDBRANCH   2   3
ENDBRANCH   1   2
BRANCH   1   6
HETATM    6  C   LIG     1      16.250  35.628  22.042  1.00  0.00     0.149 C 
BRANCH   6   7
HETATM    7  C   LIG     1      14.911  35.643  21.303  1.00  0.00     0.183 C 
BRANCH   7   8
HETATM    8  O   LIG     1      14.182  34.481  21.595  1.00  0.00    -0.399 OA
HETATM    9  H   LIG     1      13.339  34.777  22.028  1.00  0.00     0.209 HD
ENDBRANCH   7   8
ENDBRANCH   6   7
ENDBRANCH   1   6
BRANCH   1  10
HETATM   10  C   LIG     1      17.749  37.516  21.308  1.00  0.00     0.030 A 
HETATM   11  C   LIG     1      18.179  38.850  21.410  1.00  0.00     0.029 A 
HETATM   12  C   LIG     1      19.143  39.349  20.529  1.00  0.00     0.002 A 
HETATM   13  C   LIG     1      19.684  38.524  19.541  1.00  0.00     0.000 A 
HETATM   14  C   LIG     1      19.262  37.196  19.431  1.00  0.00     0.002 A 
HETATM   15  C   LIG     1      18.298  36.692  20.310  1.00  0.00     0.029 A 
ENDBRANCH   1  10
TORSDOF 7
ENDMDL
MODEL 4
REMARK VINA RESULT:      -6.7      1.876      4.322
REMARK  7 active torsions:
REMARK  status: ('A' for Active; 'I' for Inactive)
REMARK    1  A    between atoms: O_1  and  C_2 
REMARK    2  A    between atoms: C_2  and  C_3 
REMARK    3  A    between atoms: C_3  and  N_4 
REMARK    4  A    between atoms: N_4  and  C_11 
REMARK    5  A    between atoms: N_4  and  C_5 
REMARK    6  A    between atoms: C_11  and  C_12 
REMARK    7  A    between atoms: C_12  and  O_13 
ROOT
HETATM    1  N   LIG     1      16.770  36.999  22.229  1.00  0.00    -0.377 N 
ENDROOT
BRANCH   1   2
HETATM    2  C   LIG     1      16.266  35.629  22.050  1.00  0.00     0.149 C 
BRANCH   2   3
HETATM    3  C   LIG     1      14.941  35.631  21.282  1.00  0.00     0.183 C 
BRANCH   3   4
HETATM    4  O   LIG     1      14.190  34.487  21.588  1.00  0.00    -0.399 OA
HETATM    5  H   LIG     1      13.955  34.552  22.550  1.00  0.00     0.209 HD
ENDBRANCH   3   4
ENDBRANCH   2   3
ENDBRANCH   1   2
BRANCH   1   6
HETATM    6  C   LIG     1      16.272  37.835  23.331  1.00  0.00     0.149 C 
BRANCH   6   7
HETATM    7  C   LIG     1      16.986  37.478  24.636  1.00  0.00     0.183 C 
BRANCH   7   8
HETATM    8  O   LIG     1      17.248  38.636  25.380  1.00  0.00    -0.399 OA
HETATM    9  H   LIG     1      17.548  39.327  24.733  1.00  0.00     0.209 HD
ENDBRANCH   7   8
ENDBRANCH   6   7
ENDBRANCH   1   6
BRANCH   1  10
HETATM   10  C   LIG     1      17.754  37.526  21.316  1.00  0.00     0.030 A 
HETATM   11  C   LIG     1      18.313  36.706  20.322  1.00  0.00     0.029 A 
HETATM   12  C   LIG     1      19.267  37.220  19.439  1.00  0.00     0.002 A 
HETATM   13  C   LIG     1      19.670  38.553  19.540  1.00  0.00     0.000 A 
HETATM   14  C   LIG     1      19.119  39.377  20.527  1.00  0.00     0.002 A 
HETATM   15  C   LIG     1      18.165  38.867  21.412  1.00  0.00     0.029 A 
ENDBRANCH   1  10
TORSDOF 7
ENDMDL
MODEL 5
REMARK VINA RESULT:      -5.9      1.547      2.117
REMARK  7 active torsions:
REMARK  status: ('A' for Active; 'I' for Inactive)
REMARK    1  A    between atoms: O_1  and  C_2 
REMARK    2  A    between atoms: C_2  and  C_3 
REMARK    3  A    between atoms: C_3  and  N_4 
REMARK    4  A    between atoms: N_4  and  C_11 
REMARK    5  A    between atoms: N_4  and  C_5 
REMARK    6  A    between atoms: C_11  and  C_12 
REMARK    7  A    between atoms: C_12  and  O_13 
ROOT
HETATM    1  N   LIG     1      16.913  36.065  22.853  1.00  0.00    -0.377 N 
ENDROOT
BRANCH   1   2
HETATM    2  C   LIG     1      16.738  34.797  22.128  1.00  0.00     0.149 C 
BRANCH   2   3
HETATM    3  C   LIG     1      15.663  34.932  21.046  1.00  0.00     0.183 C 
BRANCH   3   4
HETATM    4  O   LIG     1      15.979  34.138  19.933  1.00  0.00    -0.399 OA
HETATM    5  H   LIG     1      16.883  34.418  19.633  1.00  0.00     0.209 HD
ENDBRANCH   3   4
ENDBRANCH   2   3
ENDBRANCH   1   2
BRANCH   1   6
HETATM    6  C   LIG     1      16.617  37.345  22.192  1.00  0.00     0.149 C 
BRANCH   6   7
HETATM    7  C   LIG     1      15.308  37.930  22.724  1.00  0.00     0.183 C 
BRANCH   7   8
HETATM    8  O   LIG     1      15.313  39.326  22.597  1.00  0.00    -0.399 OA
HETATM    9  H   LIG     1      14.383  39.629  22.769  1.00  0.00     0.209 HD
ENDBRANCH   7   8
ENDBRANCH   6   7
ENDBRANCH   1   6
BRANCH   1  10
HETATM   10  C   LIG     1      17.381  36.053  24.216  1.00  0.00     0.030 A 
HETATM   11  C   LIG     1      17.368  34.862  24.962  1.00  0.00     0.029 A 
HETATM   12  C   LIG     1      17.822  34.854  26.284  1.00  0.00     0.002 A 
HETATM   13  C   LIG     1      18.292  36.031  26.872  1.00  0.00     0.000 A 
HETATM   14  C   LIG     1      18.309  37.220  26.137  1.00  0.00     0.002 A 
HETATM   15  C   LIG     1      17.855  37.234  24.815  1.00  0.00     0.029 A 
ENDBRANCH   1  10
TORSDOF 7
ENDMDL
MODEL 6
REMARK VINA RESULT:      -5.8      2.286      4.545
REMARK  7 active torsions:
REMARK  status: ('A' for Active; 'I' for Inactive)
REMARK    1  A    between atoms: O_1  and  C_2 
REMARK    2  A    between atoms: C_2  and  C_3 
REMARK    3  A    between atoms: C_3  and  N_4 
REMARK    4  A    between atoms: N_4  and  C_11 
REMARK    5  A    between atoms: N_4  and  C_5 
REMARK    6  A    between atoms: C_11  and  C_12 
REMARK    7  A    between atoms: C_12  and  O_13 
ROOT
HETATM    1  N   LIG     1      17.589  37.542  22.785  1.00  0.00    -0.377 N 
ENDROOT
BRANCH   1   2
HETATM    2  C   LIG     1      16.553  36.505  22.908  1.00  0.00     0.149 C 
BRANCH   2   3
HETATM    3  C   LIG     1      15.189  37.043  22.467  1.00  0.00     0.183 C 
BRANCH   3   4
HETATM    4  O   LIG     1      14.945  38.301  23.037  1.00  0.00    -0.399 OA
HETATM    5  H   LIG     1      14.031  38.567  22.757  1.00  0.00     0.209 HD
ENDBRANCH   3   4
ENDBRANCH   2   3
ENDBRANCH   1   2
BRANCH   1   6
HETATM    6  C   LIG     1      18.070  38.255  23.977  1.00  0.00     0.149 C 
BRANCH   6   7
HETATM    7  C   LIG     1      17.604  37.546  25.249  1.00  0.00     0.183 C 
BRANCH   7   8
HETATM    8  O   LIG     1      18.682  37.356  26.124  1.00  0.00    -0.399 OA
HETATM    9  H   LIG     1      19.116  38.242  26.234  1.00  0.00     0.209 HD
ENDBRANCH   7   8
ENDBRANCH   6   7
ENDBRANCH   1   6
BRANCH   1  10
HETATM   10  C   LIG     1      18.133  37.863  21.489  1.00  0.00     0.030 A 
HETATM   11  C   LIG     1      18.534  39.176  21.191  1.00  0.00     0.029 A 
HETATM   12  C   LIG     1      19.059  39.484  19.933  1.00  0.00     0.002 A 
HETATM   13  C   LIG     1      19.190  38.486  18.964  1.00  0.00     0.000 A 
HETATM   14  C   LIG     1      18.794  37.177  19.251  1.00  0.00     0.002 A 
HETATM   15  C   LIG     1      18.266  36.865  20.508  1.00  0.00     0.029 A 
ENDBRANCH   1  10
TORSDOF 7
ENDMDL
MODEL 7
REMARK VINA RESULT:      -5.4      1.433      2.158
REMARK  7 active torsions:
REMARK  status: ('A' for Active; 'I' for Inactive)
REMARK    1  A    between atoms: O_1  and  C_2 
REMARK    2  A    between atoms: C_2  and  C_3 
REMARK    3  A    between atoms: C_3  and  N_4 
REMARK    4  A    between atoms: N_4  and  C_11 
REMARK    5  A    between atoms: N_4  and  C_5 
REMARK    6  A    between atoms: C_11  and  C_12 
REMARK    7  A    between atoms: C_12  and  O_13 
ROOT
HETATM    1  N   LIG     1      16.950  36.346  22.731  1.00  0.00    -0.377 N 
ENDROOT
BRANCH   1   2
HETATM    2  C   LIG     1      15.954  37.364  22.365  1.00  0.00     0.149 C 
BRANCH   2   3
HETATM    3  C   LIG     1      14.536  36.789  22.434  1.00  0.00     0.183 C 
BRANCH   3   4
HETATM    4  O   LIG     1      14.293  35.942  21.343  1.00  0.00    -0.399 OA
HETATM    5  H   LIG     1      14.499  36.465  20.526  1.00  0.00     0.209 HD
ENDBRANCH   3   4
ENDBRANCH   2   3
ENDBRANCH   1   2
BRANCH   1   6
HETATM    6  C   LIG     1      17.517  35.458  21.705  1.00  0.00     0.149 C 
BRANCH   6   7
HETATM    7  C   LIG     1      17.527  36.155  20.344  1.00  0.00     0.183 C 
BRANCH   7   8
HETATM    8  O   LIG     1      18.844  36.432  19.949  1.00  0.00    -0.399 OA
HETATM    9  H   LIG     1      19.359  36.601  20.780  1.00  0.00     0.209 HD
ENDBRANCH   7   8
ENDBRANCH   6   7
ENDBRANCH   1   6
BRANCH   1  10
HETATM   10  C   LIG     1      17.370  36.215  24.104  1.00  0.00     0.030 A 
HETATM   11  C   LIG     1      17.350  34.960  24.738  1.00  0.00     0.029 A 
HETATM   12  C   LIG     1      17.757  34.836  26.069  1.00  0.00     0.002 A 
HETATM   13  C   LIG     1      18.188  35.961  26.778  1.00  0.00     0.000 A 
HETATM   14  C   LIG     1      18.211  37.212  26.157  1.00  0.00     0.002 A 
HETATM   15  C   LIG     1      17.804  37.341  24.825  1.00  0.00     0.029 A 
ENDBRANCH   1  10
TORSDOF 7
ENDMDL
MODEL 8
REMARK VINA RESULT:      -5.2      2.274      4.435
REMARK  7 active torsions:
REMARK  status: ('A' for Active; 'I' for Inactive)
REMARK    1  A    between atoms: O_1  and  C_2 
REMARK    2  A    between atoms: C_2  and  C_3 
REMARK    3  A    between atoms: C_3  and  N_4 
REMARK    4  A    between atoms: N_4  and  C_11 
REMARK    5  A    between atoms: N_4  and  C_5 
REMARK    6  A    between atoms: C_11  and  C_12 
REMARK    7  A    between atoms: C_12  and  O_13 
ROOT
HETATM    1  N   LIG     1      16.807  37.915  23.225  1.00  0.00    -0.377 N 
ENDROOT
BRANCH   1   2
HETATM    2  C   LIG     1      17.256  39.148  22.561  1.00  0.00     0.149 C 
BRANCH   2   3
HETATM    3  C   LIG     1      18.737  39.055  22.183  1.00  0.00     0.183 C 
BRANCH   3   4
HETATM    4  O   LIG     1      19.007  39.831  21.046  1.00  0.00    -0.399 OA
HETATM    5  H   LIG     1      18.746  39.284  20.261  1.00  0.00     0.209 HD
ENDBRANCH   3   4
ENDBRANCH   2   3
ENDBRANCH   1   2
BRANCH   1   6
HETATM    6  C   LIG     1      16.800  37.822  24.692  1.00  0.00     0.149 C 
BRANCH   6   7
HETATM    7  C   LIG     1      17.836  36.803  25.167  1.00  0.00     0.183 C 
BRANCH   7   8
HETATM    8  O   LIG     1      18.785  37.423  25.993  1.00  0.00    -0.399 OA
HETATM    9  H   LIG     1      18.316  38.167  26.452  1.00  0.00     0.209 HD
ENDBRANCH   7   8
ENDBRANCH   6   7
ENDBRANCH   1   6
BRANCH   1  10
HETATM   10  C   LIG     1      16.374  36.790  22.433  1.00  0.00     0.030 A 
HETATM   11  C   LIG     1      17.286  35.784  22.071  1.00  0.00     0.029 A 
HETATM   12  C   LIG     1      16.864  34.695  21.302  1.00  0.00     0.002 A 
HETATM   13  C   LIG     1      15.533  34.601  20.890  1.00  0.00     0.000 A 
HETATM   14  C   LIG     1      14.619  35.598  21.245  1.00  0.00     0.002 A 
HETATM   15  C   LIG     1      15.037  36.689  22.013  1.00  0.00     0.029 A 
ENDBRANCH   1  10
TORSDOF 7
ENDMDL
MODEL 9
REMARK VINA RESULT:      -5.1      7.839     10.494
REMARK  7 active torsions:
REMARK  status: ('A' for Active; 'I' for Inactive)
REMARK    1  A    between atoms: O_1  and  C_2 
REMARK    2  A    between atoms: C_2  and  C_3 
REMARK    3  A    between atoms: C_3  and  N_4 
REMARK    4  A    between atoms: N_4  and  C_11 
REMARK    5  A    between atoms: N_4  and  C_5 
REMARK    6  A    between atoms: C_11  and  C_12 
REMARK    7  A    between atoms: C_12  and  O_13 
ROOT
HETATM    1  N   LIG     1      15.519  32.258  15.986  1.00  0.00    -0.377 N 
ENDROOT
BRANCH   1   2
HETATM    2  C   LIG     1      16.916  32.557  15.635  1.00  0.00     0.149 C 
BRANCH   2   3
HETATM    3  C   LIG     1      16.999  33.790  14.731  1.00  0.00     0.183 C 
BRANCH   3   4
HETATM    4  O   LIG     1      17.112  34.959  15.497  1.00  0.00    -0.399 OA
HETATM    5  H   LIG     1      16.702  34.761  16.379  1.00  0.00     0.209 HD
ENDBRANCH   3   4
ENDBRANCH   2   3
ENDBRANCH   1   2
BRANCH   1   6
HETATM    6  C   LIG     1      14.814  33.072  16.987  1.00  0.00     0.149 C 
BRANCH   6   7
HETATM    7  C   LIG     1      15.164  32.601  18.399  1.00  0.00     0.183 C 
BRANCH   7   8
HETATM    8  O   LIG     1      14.080  31.916  18.966  1.00  0.00    -0.399 OA
HETATM    9  H   LIG     1      14.385  31.586  19.851  1.00  0.00     0.209 HD
ENDBRANCH   7   8
ENDBRANCH   6   7
ENDBRANCH   1   6
BRANCH   1  10
HETATM   10  C   LIG     1      14.839  31.159  15.347  1.00  0.00     0.030 A 
HETATM   11  C   LIG     1      15.513  30.350  14.417  1.00  0.00     0.029 A 
HETATM   12  C   LIG     1      14.851  29.285  13.799  1.00  0.00     0.002 A 
HETATM   13  C   LIG     1      13.514  29.019  14.103  1.00  0.00     0.000 A 
HETATM   14  C   LIG     1      12.835  29.819  15.027  1.00  0.00     0.002 A 
HETATM   15  C   LIG     1      13.493  30.885  15.647  1.00  0.00     0.029 A 
ENDBRANCH   1  10
TORSDOF 7
ENDMDL
MODEL 10
REMARK VINA RESULT:      -5.1      7.862     10.269
REMARK  7 active torsions:
REMARK  status: ('A' for Active; 'I' for Inactive)
REMARK    1  A    between atoms: O_1  and  C_2 
REMARK    2  A    between atoms: C_2  and  C_3 
REMARK    3  A    between atoms: C_3  and  N_4 
REMARK    4  A    between atoms: N_4  and  C_11 
REMARK    5  A    between atoms: N_4  and  C_5 
REMARK    6  A    between atoms: C_11  and  C_12 
REMARK    7  A    between atoms: C_12  and  O_13 
ROOT
HETATM    1  N   LIG     1      15.529  32.237  15.968  1.00  0.00    -0.377 N 
ENDROOT
BRANCH   1   2
HETATM    2  C   LIG     1      14.820  33.062  16.958  1.00  0.00     0.149 C 
BRANCH   2   3
HETATM    3  C   LIG     1      15.153  32.609  18.383  1.00  0.00     0.183 C 
BRANCH   3   4
HETATM    4  O   LIG     1      14.075  31.908  18.943  1.00  0.00    -0.399 OA
HETATM    5  H   LIG     1      14.068  31.012  18.519  1.00  0.00     0.209 HD
ENDBRANCH   3   4
ENDBRANCH   2   3
ENDBRANCH   1   2
BRANCH   1   6
HETATM    6  C   LIG     1      16.926  32.532  15.620  1.00  0.00     0.149 C 
BRANCH   6   7
HETATM    7  C   LIG     1      17.002  33.757  14.707  1.00  0.00     0.183 C 
BRANCH   7   8
HETATM    8  O   LIG     1      17.116  34.927  15.472  1.00  0.00    -0.399 OA
HETATM    9  H   LIG     1      18.078  35.026  15.696  1.00  0.00     0.209 HD
ENDBRANCH   7   8
ENDBRANCH   6   7
ENDBRANCH   1   6
BRANCH   1  10
HETATM   10  C   LIG     1      14.848  31.136  15.332  1.00  0.00     0.030 A 
HETATM   11  C   LIG     1      15.523  30.320  14.409  1.00  0.00     0.029 A 
HETATM   12  C   LIG     1      14.860  29.254  13.794  1.00  0.00     0.002 A 
HETATM   13  C   LIG     1      13.521  28.994  14.095  1.00  0.00     0.000 A 
HETATM   14  C   LIG     1      12.841  29.801  15.012  1.00  0.00     0.002 A 
HETATM   15  C   LIG     1      13.500  30.869  15.629  1.00  0.00     0.029 A 
ENDBRANCH   1  10
TORSDOF 7
ENDMDL
MODEL 11
REMARK VINA RESULT:      -4.8      7.782     10.086
REMARK  7 active torsions:
REMARK  status: ('A' for Active; 'I' for Inactive)
REMARK    1  A    between atoms: O_1  and  C_2 
REMARK    2  A    between atoms: C_2  and  C_3 
REMARK    3  A    between atoms: C_3  and  N_4 
REMARK    4  A    between atoms: N_4  and  C_11 
REMARK    5  A    between atoms: N_4  and  C_5 
REMARK    6  A    between atoms: C_11  and  C_12 
REMARK    7  A    between atoms: C_12  and  O_13 
ROOT
HETATM    1  N   LIG     1      14.968  32.064  16.003  1.00  0.00    -0.377 N 
ENDROOT
BRANCH   1   2
HETATM    2  C   LIG     1      14.445  30.707  15.780  1.00  0.00     0.149 C 
BRANCH   2   3
HETATM    3  C   LIG     1      12.919  30.725  15.650  1.00  0.00     0.183 C 
BRANCH   3   4
HETATM    4  O   LIG     1      12.318  30.210  16.808  1.00  0.00    -0.399 OA
HETATM    5  H   LIG     1      11.699  30.910  17.141  1.00  0.00     0.209 HD
ENDBRANCH   3   4
ENDBRANCH   2   3
ENDBRANCH   1   2
BRANCH   1   6
HETATM    6  C   LIG     1      14.506  32.858  17.150  1.00  0.00     0.149 C 
BRANCH   6   7
HETATM    7  C   LIG     1      15.024  32.258  18.458  1.00  0.00     0.183 C 
BRANCH   7   8
HETATM    8  O   LIG     1      14.017  31.509  19.083  1.00  0.00    -0.399 OA
HETATM    9  H   LIG     1      14.432  30.650  19.357  1.00  0.00     0.209 HD
ENDBRANCH   7   8
ENDBRANCH   6   7
ENDBRANCH   1   6
BRANCH   1  10
HETATM   10  C   LIG     1      15.935  32.619  15.089  1.00  0.00     0.030 A 
HETATM   11  C   LIG     1      16.079  32.088  13.796  1.00  0.00     0.029 A 
HETATM   12  C   LIG     1      17.018  32.628  12.913  1.00  0.00     0.002 A 
HETATM   13  C   LIG     1      17.820  33.700  13.311  1.00  0.00     0.000 A 
HETATM   14  C   LIG     1      17.685  34.234  14.596  1.00  0.00     0.002 A 
HETATM   15  C   LIG     1      16.747  33.697  15.483  1.00  0.00     0.029 A 
ENDBRANCH   1  10
TORSDOF 7
ENDMDL
MODEL 12
REMARK VINA RESULT:      -4.8      9.232     11.718
REMARK  7 active torsions:
REMARK  status: ('A' for Active; 'I' for Inactive)
REMARK    1  A    between atoms: O_1  and  C_2 
REMARK    2  A    between atoms: C_2  and  C_3 
REMARK    3  A    between atoms: C_3  and  N_4 
REMARK    4  A    between atoms: N_4  and  C_11 
REMARK    5  A    between atoms: N_4  and  C_5 
REMARK    6  A    between atoms: C_11  and  C_12 
REMARK    7  A    between atoms: C_12  and  O_13 
ROOT
HETATM    1  N   LIG     1      14.824  31.140  15.239  1.00  0.00    -0.377 N 
ENDROOT
BRANCH   1   2
HETATM    2  C   LIG     1      16.033  31.877  14.841  1.00  0.00     0.149 C 
BRANCH   2   3
HETATM    3  C   LIG     1      16.047  32.127  13.330  1.00  0.00     0.183 C 
BRANCH   3   4
HETATM    4  O   LIG     1      16.591  33.388  13.043  1.00  0.00    -0.399 OA
HETATM    5  H   LIG     1      17.573  33.264  12.979  1.00  0.00     0.209 HD
ENDBRANCH   3   4
ENDBRANCH   2   3
ENDBRANCH   1   2
BRANCH   1   6
HETATM    6  C   LIG     1      13.917  31.694  16.255  1.00  0.00     0.149 C 
BRANCH   6   7
HETATM    7  C   LIG     1      14.715  32.265  17.428  1.00  0.00     0.183 C 
BRANCH   7   8
HETATM    8  O   LIG     1      14.086  31.952  18.641  1.00  0.00    -0.399 OA
HETATM    9  H   LIG     1      13.287  31.409  18.414  1.00  0.00     0.209 HD
ENDBRANCH   7   8
ENDBRANCH   6   7
ENDBRANCH   1   6
BRANCH   1  10
HETATM   10  C   LIG     1      14.530  29.865  14.633  1.00  0.00     0.030 A 
HETATM   11  C   LIG     1      13.198  29.448  14.466  1.00  0.00     0.029 A 
HETATM   12  C   LIG     1      12.916  28.211  13.879  1.00  0.00     0.002 A 
HETATM   13  C   LIG     1      13.957  27.383  13.453  1.00  0.00     0.000 A 
HETATM   14  C   LIG     1      15.284  27.790  13.615  1.00  0.00     0.002 A 
HETATM   15  C   LIG     1      15.572  29.025  14.203  1.00  0.00     0.029 A 
ENDBRANCH   1  10
TORSDOF 7
ENDMDL
MODEL 13
REMARK VINA RESULT:      -4.7      8.240     10.632
REMARK  7 active torsions:
REMARK  status: ('A' for Active; 'I' for Inactive)
REMARK    1  A    between atoms: O_1  and  C_2 
REMARK    2  A    between atoms: C_2  and  C_3 
REMARK    3  A    between atoms: C_3  and  N_4 
REMARK    4  A    between atoms: N_4  and  C_11 
REMARK    5  A    between atoms: N_4  and  C_5 
REMARK    6  A    between atoms: C_11  and  C_12 
REMARK    7  A    between atoms: C_12  and  O_13 
ROOT
HETATM    1  N   LIG     1      15.846  32.055  15.857  1.00  0.00    -0.377 N 
ENDROOT
BRANCH   1   2
HETATM    2  C   LIG     1      15.485  32.735  17.110  1.00  0.00     0.149 C 
BRANCH   2   3
HETATM    3  C   LIG     1      15.233  34.226  16.868  1.00  0.00     0.183 C 
BRANCH   3   4
HETATM    4  O   LIG     1      13.858  34.503  16.881  1.00  0.00    -0.399 OA
HETATM    5  H   LIG     1      13.662  34.926  17.756  1.00  0.00     0.209 HD
ENDBRANCH   3   4
ENDBRANCH   2   3
ENDBRANCH   1   2
BRANCH   1   6
HETATM    6  C   LIG     1      17.087  32.407  15.152  1.00  0.00     0.149 C 
BRANCH   6   7
HETATM    7  C   LIG     1      16.771  33.133  13.844  1.00  0.00     0.183 C 
BRANCH   7   8
HETATM    8  O   LIG     1      17.427  32.511  12.772  1.00  0.00    -0.399 OA
HETATM    9  H   LIG     1      17.029  32.883  11.942  1.00  0.00     0.209 HD
ENDBRANCH   7   8
ENDBRANCH   6   7
ENDBRANCH   1   6
BRANCH   1  10
HETATM   10  C   LIG     1      14.976  31.041  15.314  1.00  0.00     0.030 A 
HETATM   11  C   LIG     1      13.627  30.980  15.702  1.00  0.00     0.029 A 
HETATM   12  C   LIG     1      12.786  29.995  15.175  1.00  0.00     0.002 A 
HETATM   13  C   LIG     1      13.283  29.065  14.259  1.00  0.00     0.000 A 
HETATM   14  C   LIG     1      14.624  29.119  13.868  1.00  0.00     0.002 A 
HETATM   15  C   LIG     1      15.469  30.101  14.392  1.00  0.00     0.029 A 
ENDBRANCH   1  10
TORSDOF 7
ENDMDL
MODEL 14
REMARK VINA RESULT:      -4.6      9.325     11.094
REMARK  7 active torsions:
REMARK  status: ('A' for Active; 'I' for Inactive)
REMARK    1  A    between atoms: O_1  and  C_2 
REMARK    2  A    between atoms: C_2  and  C_3 
REMARK    3  A    between atoms: C_3  and  N_4 
REMARK    4  A    between atoms: N_4  and  C_11 
REMARK    5  A    between atoms: N_4  and  C_5 
REMARK    6  A    between atoms: C_11  and  C_12 
REMARK    7  A    between atoms: C_12  and  O_13 
ROOT
HETATM    1  N   LIG     1      14.939  31.076  14.926  1.00  0.00    -0.377 N 
ENDROOT
BRANCH   1   2
HETATM    2  C   LIG     1      14.553  30.106  13.889  1.00  0.00     0.149 C 
BRANCH   2   3
HETATM    3  C   LIG     1      15.355  28.809  14.031  1.00  0.00     0.183 C 
BRANCH   3   4
HETATM    4  O   LIG     1      15.270  28.045  12.858  1.00  0.00    -0.399 OA
HETATM    5  H   LIG     1      16.135  27.567  12.768  1.00  0.00     0.209 HD
ENDBRANCH   3   4
ENDBRANCH   2   3
ENDBRANCH   1   2
BRANCH   1   6
HETATM    6  C   LIG     1      14.347  31.000  16.270  1.00  0.00     0.149 C 
BRANCH   6   7
HETATM    7  C   LIG     1      12.823  30.920  16.178  1.00  0.00     0.183 C 
BRANCH   7   8
HETATM    8  O   LIG     1      12.233  31.728  17.160  1.00  0.00    -0.399 OA
HETATM    9  H   LIG     1      11.401  31.267  17.443  1.00  0.00     0.209 HD
ENDBRANCH   7   8
ENDBRANCH   6   7
ENDBRANCH   1   6
BRANCH   1  10
HETATM   10  C   LIG     1      15.898  32.108  14.622  1.00  0.00     0.030 A 
HETATM   11  C   LIG     1      16.416  32.236  13.321  1.00  0.00     0.029 A 
HETATM   12  C   LIG     1      17.347  33.238  13.030  1.00  0.00     0.002 A 
HETATM   13  C   LIG     1      17.767  34.118  14.030  1.00  0.00     0.000 A 
HETATM   14  C   LIG     1      17.257  33.998  15.325  1.00  0.00     0.002 A 
HETATM   15  C   LIG     1      16.326  32.997  15.622  1.00  0.00     0.029 A 
ENDBRANCH   1  10
TORSDOF 7
ENDMDL
MODEL 15
REMARK VINA RESULT:      -4.2      6.608      8.376
REMARK  7 active torsions:
REMARK  status: ('A' for Active; 'I' for Inactive)
REMARK    1  A    between atoms: O_1  and  C_2 
REMARK    2  A    between atoms: C_2  and  C_3 
REMARK    3  A    between atoms: C_3  and  N_4 
REMARK    4  A    between atoms: N_4  and  C_11 
REMARK    5  A    between atoms: N_4  and  C_5 
REMARK    6  A    between atoms: C_11  and  C_12 
REMARK    7  A    between atoms: C_12  and  O_13 
ROOT
HETATM    1  N   LIG     1      14.967  32.134  16.258  1.00  0.00    -0.377 N 
ENDROOT
BRANCH   1   2
HETATM    2  C   LIG     1      13.978  31.055  16.109  1.00  0.00     0.149 C 
BRANCH   2   3
HETATM    3  C   LIG     1      14.322  30.161  14.914  1.00  0.00     0.183 C 
BRANCH   3   4
HETATM    4  O   LIG     1      13.175  29.506  14.440  1.00  0.00    -0.399 OA
HETATM    5  H   LIG     1      12.481  29.606  15.142  1.00  0.00     0.209 HD
ENDBRANCH   3   4
ENDBRANCH   2   3
ENDBRANCH   1   2
BRANCH   1   6
HETATM    6  C   LIG     1      15.774  32.564  15.107  1.00  0.00     0.149 C 
BRANCH   6   7
HETATM    7  C   LIG     1      17.246  32.213  15.326  1.00  0.00     0.183 C 
BRANCH   7   8
HETATM    8  O   LIG     1      18.051  32.888  14.397  1.00  0.00    -0.399 OA
HETATM    9  H   LIG     1      18.928  33.037  14.838  1.00  0.00     0.209 HD
ENDBRANCH   7   8
ENDBRANCH   6   7
ENDBRANCH   1   6
BRANCH   1  10
HETATM   10  C   LIG     1      15.148  32.769  17.539  1.00  0.00     0.030 A 
HETATM   11  C   LIG     1      15.304  34.163  17.626  1.00  0.00     0.029 A 
HETATM   12  C   LIG     1      15.480  34.776  18.870  1.00  0.00     0.002 A 
HETATM   13  C   LIG     1      15.502  34.005  20.035  1.00  0.00     0.000 A 
HETATM   14  C   LIG     1      15.348  32.618  19.958  1.00  0.00     0.002 A 
HETATM   15  C   LIG     1      15.172  32.000  18.716  1.00  0.00     0.029 A 
ENDBRANCH   1  10
TORSDOF 7
ENDMDL
MODEL 16
REMARK VINA RESULT:      -4.2     10.175     12.355
REMARK  7 active torsions:
REMARK  status: ('A' for Active; 'I' for Inactive)
REMARK    1  A    between atoms: O_1  and  C_2 
REMARK    2  A    between atoms: C_2  and  C_3 
REMARK    3  A    between atoms: C_3  and  N_4 
REMARK    4  A    between atoms: N_4  and  C_11 
REMARK    5  A    between atoms: N_4  and  C_5 
REMARK    6  A    between atoms: C_11  and  C_12 
REMARK    7  A    between atoms: C_12  and  O_13 
ROOT
HETATM    1  N   LIG     1      14.200  29.136  14.286  1.00  0.00    -0.377 N 
ENDROOT
BRANCH   1   2
HETATM    2  C   LIG     1      15.304  28.945  13.332  1.00  0.00     0.149 C 
BRANCH   2   3
HETATM    3  C   LIG     1      15.625  27.458  13.160  1.00  0.00     0.183 C 
BRANCH   3   4
HETATM    4  O   LIG     1      15.465  27.068  11.822  1.00  0.00    -0.399 OA
HETATM    5  H   LIG     1      15.216  27.886  11.317  1.00  0.00     0.209 HD
ENDBRANCH   3   4
ENDBRANCH   2   3
ENDBRANCH   1   2
BRANCH   1   6
HETATM    6  C   LIG     1      13.128  28.136  14.391  1.00  0.00     0.149 C 
BRANCH   6   7
HETATM    7  C   LIG     1      12.290  28.116  13.111  1.00  0.00     0.183 C 
BRANCH   7   8
HETATM    8  O   LIG     1      11.088  28.811  13.306  1.00  0.00    -0.399 OA
HETATM    9  H   LIG     1      10.720  28.500  14.174  1.00  0.00     0.209 HD
ENDBRANCH   7   8
ENDBRANCH   6   7
ENDBRANCH   1   6
BRANCH   1  10
HETATM   10  C   LIG     1      14.169  30.312  15.120  1.00  0.00     0.030 A 
HETATM   11  C   LIG     1      13.064  30.565  15.951  1.00  0.00     0.029 A 
HETATM   12  C   LIG     1      13.036  31.706  16.758  1.00  0.00     0.002 A 
HETATM   13  C   LIG     1      14.108  32.602  16.743  1.00  0.00     0.000 A 
HETATM   14  C   LIG     1      15.210  32.359  15.919  1.00  0.00     0.002 A 
HETATM   15  C   LIG     1      15.243  31.219  15.110  1.00  0.00     0.029 A 
ENDBRANCH   1  10
TORSDOF 7
ENDMDL
MODEL 17
REMARK VINA RESULT:      -4.0      9.592     11.864
REMARK  7 active torsions:
REMARK  status: ('A' for Active; 'I' for Inactive)
REMARK    1  A    between atoms: O_1  and  C_2 
REMARK    2  A    between atoms: C_2  and  C_3 
REMARK    3  A    between atoms: C_3  and  N_4 
REMARK    4  A    between atoms: N_4  and  C_11 
REMARK    5  A    between atoms: N_4  and  C_5 
REMARK    6  A    between atoms: C_11  and  C_12 
REMARK    7  A    between atoms: C_12  and  O_13 
ROOT
HETATM    1  N   LIG     1      17.748  33.316  13.429  1.00  0.00    -0.377 N 
ENDROOT
BRANCH   1   2
HETATM    2  C   LIG     1      17.842  33.515  14.884  1.00  0.00     0.149 C 
BRANCH   2   3
HETATM    3  C   LIG     1      17.215  34.851  15.293  1.00  0.00     0.183 C 
BRANCH   3   4
HETATM    4  O   LIG     1      16.137  34.644  16.166  1.00  0.00    -0.399 OA
HETATM    5  H   LIG     1      15.430  34.188  15.639  1.00  0.00     0.209 HD
ENDBRANCH   3   4
ENDBRANCH   2   3
ENDBRANCH   1   2
BRANCH   1   6
HETATM    6  C   LIG     1      16.592  32.617  12.849  1.00  0.00     0.149 C 
BRANCH   6   7
HETATM    7  C   LIG     1      15.912  31.744  13.904  1.00  0.00     0.183 C 
BRANCH   7   8
HETATM    8  O   LIG     1      15.807  30.422  13.449  1.00  0.00    -0.399 OA
HETATM    9  H   LIG     1      15.267  30.452  12.617  1.00  0.00     0.209 HD
ENDBRANCH   7   8
ENDBRANCH   6   7
ENDBRANCH   1   6
BRANCH   1  10
HETATM   10  C   LIG     1      18.796  33.807  12.569  1.00  0.00     0.030 A 
HETATM   11  C   LIG     1      20.144  33.675  12.944  1.00  0.00     0.029 A 
HETATM   12  C   LIG     1      21.158  34.152  12.108  1.00  0.00     0.002 A 
HETATM   13  C   LIG     1      20.836  34.762  10.893  1.00  0.00     0.000 A 
HETATM   14  C   LIG     1      19.498  34.898  10.512  1.00  0.00     0.002 A 
HETATM   15  C   LIG     1      18.480  34.423  11.345  1.00  0.00     0.029 A 
ENDBRANCH   1  10
TORSDOF 7
ENDMDL
MODEL 18
REMARK VINA RESULT:      -3.8      2.564      4.874
REMARK  7 active torsions:
REMARK  status: ('A' for Active; 'I' for Inactive)
REMARK    1  A    between atoms: O_1  and  C_2 
REMARK    2  A    between atoms: C_2  and  C_3 
REMARK    3  A    between atoms: C_3  and  N_4 
REMARK    4  A    between atoms: N_4  and  C_11 
REMARK    5  A    between atoms: N_4  and  C_5 
REMARK    6  A    between atoms: C_11  and  C_12 
REMARK    7  A    between atoms: C_12  and  O_13 
ROOT
HETATM    1  N   LIG     1      16.781  36.228  24.007  1.00  0.00    -0.377 N 
ENDROOT
BRANCH   1   2
HETATM    2  C   LIG     1      16.808  37.614  24.501  1.00  0.00     0.149 C 
BRANCH   2   3
HETATM    3  C   LIG     1      18.223  38.012  24.929  1.00  0.00     0.183 C 
BRANCH   3   4
HETATM    4  O   LIG     1      18.453  37.660  26.267  1.00  0.00    -0.399 OA
HETATM    5  H   LIG     1      17.873  36.878  26.458  1.00  0.00     0.209 HD
ENDBRANCH   3   4
ENDBRANCH   2   3
ENDBRANCH   1   2
BRANCH   1   6
HETATM    6  C   LIG     1      16.785  35.103  24.952  1.00  0.00     0.149 C 
BRANCH   6   7
HETATM    7  C   LIG     1      18.217  34.643  25.228  1.00  0.00     0.183 C 
BRANCH   7   8
HETATM    8  O   LIG     1      18.520  34.785  26.590  1.00  0.00    -0.399 OA
HETATM    9  H   LIG     1      17.885  35.456  26.952  1.00  0.00     0.209 HD
ENDBRANCH   7   8
ENDBRANCH   6   7
ENDBRANCH   1   6
BRANCH   1  10
HETATM   10  C   LIG     1      16.754  35.974  22.588  1.00  0.00     0.030 A 
HETATM   11  C   LIG     1      17.489  36.784  21.706  1.00  0.00     0.029 A 
HETATM   12  C   LIG     1      17.461  36.535  20.331  1.00  0.00     0.002 A 
HETATM   13  C   LIG     1      16.701  35.478  19.825  1.00  0.00     0.000 A 
HETATM   14  C   LIG     1      15.966  34.667  20.695  1.00  0.00     0.002 A 
HETATM   15  C   LIG     1      15.991  34.912  22.071  1.00  0.00     0.029 A 
ENDBRANCH   1  10
TORSDOF 7
ENDMDL
MODEL 19
REMARK VINA RESULT:      -3.7      9.869     11.243
REMARK  7 active torsions:
REMARK  status: ('A' for Active; 'I' for Inactive)
REMARK    1  A    between atoms: O_1  and  C_2 
REMARK    2  A    between atoms: C_2  and  C_3 
REMARK    3  A    between atoms: C_3  and  N_4 
REMARK    4  A    between atoms: N_4  and  C_11 
REMARK    5  A    between atoms: N_4  and  C_5 
REMARK    6  A    between atoms: C_11  and  C_12 
REMARK    7  A    between atoms: C_12  and  O_13 
ROOT
HETATM    1  N   LIG     1      17.732  33.697  12.869  1.00  0.00    -0.377 N 
ENDROOT
BRANCH   1   2
HETATM    2  C   LIG     1      17.492  35.141  12.723  1.00  0.00     0.149 C 
BRANCH   2   3
HETATM    3  C   LIG     1      17.119  35.488  11.279  1.00  0.00     0.183 C 
BRANCH   3   4
HETATM    4  O   LIG     1      15.727  35.455  11.106  1.00  0.00    -0.399 OA
HETATM    5  H   LIG     1      15.538  34.721  10.465  1.00  0.00     0.209 HD
ENDBRANCH   3   4
ENDBRANCH   2   3
ENDBRANCH   1   2
BRANCH   1   6
HETATM    6  C   LIG     1      18.841  33.053  12.150  1.00  0.00     0.149 C 
BRANCH   6   7
HETATM    7  C   LIG     1      20.169  33.722  12.507  1.00  0.00     0.183 C 
BRANCH   7   8
HETATM    8  O   LIG     1      21.187  33.265  11.659  1.00  0.00    -0.399 OA
HETATM    9  H   LIG     1      20.986  33.624  10.756  1.00  0.00     0.209 HD
ENDBRANCH   7   8
ENDBRANCH   6   7
ENDBRANCH   1   6
BRANCH   1  10
HETATM   10  C   LIG     1      16.874  32.909  13.719  1.00  0.00     0.030 A 
HETATM   11  C   LIG     1      16.751  33.215  15.085  1.00  0.00     0.029 A 
HETATM   12  C   LIG     1      15.919  32.449  15.906  1.00  0.00     0.002 A 
HETATM   13  C   LIG     1      15.203  31.374  15.373  1.00  0.00     0.000 A 
HETATM   14  C   LIG     1      15.320  31.063  14.015  1.00  0.00     0.002 A 
HETATM   15  C   LIG     1      16.152  31.826  13.190  1.00  0.00     0.029 A 
ENDBRANCH   1  10
TORSDOF 7
ENDMDL
