REMARK  4 active torsions:
REMARK  status: ('A' for Active; 'I' for Inactive)
REMARK    1  A    between atoms: C_2  and  C_3 
REMARK    2  A    between atoms: C_2  and  O_6 
REMARK    3  A    between atoms: C_3  and  O_4 
REMARK    4  A    between atoms: O_6  and  C_7 
ROOT
HETATM    1  C   LIG     1       0.673  -0.443  -0.137  1.00  0.00     0.091 A 
HETATM    2  C   LIG     1       1.372   0.608   0.493  1.00  0.00     0.040 A 
HETATM    3  C   LIG     1       2.742   0.776   0.272  1.00  0.00     0.026 A 
HETATM    4  C   LIG     1       3.430  -0.099  -0.572  1.00  0.00     0.035 A 
HETATM    5 CL   LIG     1       5.149   0.116  -0.846  1.00  0.00    -0.084 Cl
HETATM    6  C   LIG     1       2.747  -1.146  -1.196  1.00  0.00     0.050 A 
HETATM    7  C   LIG     1       1.375  -1.320  -0.979  1.00  0.00     0.069 A 
HETATM    8 CL   LIG     1       0.543  -2.645  -1.778  1.00  0.00    -0.081 Cl
ENDROOT
BRANCH   1   9
HETATM    9  O   LIG     1      -0.704  -0.656   0.055  1.00  0.00    -0.334 OA
BRANCH   9  10
HETATM   10  C   LIG     1      -1.601   0.216   0.743  1.00  0.00     0.222 C 
HETATM   11  C   LIG     1      -1.880   1.468  -0.095  1.00  0.00     0.051 C 
BRANCH  10  12
HETATM   12  C   LIG     1      -2.883  -0.520   0.992  1.00  0.00     0.170 C 
HETATM   13  O   LIG     1      -3.317  -0.655   2.167  1.00  0.00    -0.648 OA
BRANCH  12  14
HETATM   14  O   LIG     1      -3.592  -1.063  -0.076  1.00  0.00    -0.774 OA
HETATM   15  H   LIG     1      -4.459  -1.565   0.077  1.00  0.00     0.167 HD
ENDBRANCH  12  14
ENDBRANCH  10  12
ENDBRANCH   9  10
ENDBRANCH   1   9
TORSDOF 4
