MODEL 1
REMARK VINA RESULT:      -7.2      0.000      0.000
REMARK  7 active torsions:
REMARK  status: ('A' for Active; 'I' for Inactive)
REMARK    1  A    between atoms: C_2  and  C_7 
REMARK    2  A    between atoms: C_2  and  O_3 
REMARK    3  A    between atoms: O_3  and  C_4 
REMARK    4  A    between atoms: C_4  and  C_5 
REMARK    5  A    between atoms: C_9  and  O_10 
REMARK    6  A    between atoms: C_11  and  O_12 
REMARK    7  A    between atoms: C_13  and  O_14 
ROOT
HETATM    1  C   LIG     1      17.495  37.909  22.717  1.00  0.00     0.044 A 
HETATM    2  C   LIG     1      17.109  36.840  21.890  1.00  0.00     0.057 A 
HETATM    3  C   LIG     1      17.611  36.729  20.586  1.00  0.00     0.102 A 
HETATM    4  C   LIG     1      18.507  37.693  20.096  1.00  0.00     0.132 A 
HETATM    5  C   LIG     1      18.896  38.763  20.913  1.00  0.00     0.102 A 
HETATM    6  C   LIG     1      18.392  38.869  22.216  1.00  0.00     0.057 A 
ENDROOT
BRANCH   1   7
HETATM    7  C   LIG     1      16.961  38.020  24.092  1.00  0.00     0.293 C 
HETATM    8  O   LIG     1      15.716  37.968  24.294  1.00  0.00    -0.259 OA
BRANCH   7   9
HETATM    9  O   LIG     1      17.841  38.192  25.169  1.00  0.00    -0.318 OA
BRANCH   9  10
HETATM   10  C   LIG     1      18.741  37.181  25.620  1.00  0.00     0.178 C 
BRANCH  10  11
HETATM   11  C   LIG     1      18.043  36.245  26.612  1.00  0.00     0.022 C 
HETATM   12  C   LIG     1      17.730  34.896  25.972  1.00  0.00     0.007 C 
ENDBRANCH  10  11
ENDBRANCH   9  10
ENDBRANCH   7   9
ENDBRANCH   1   7
BRANCH   5  13
HETATM   13  O   LIG     1      19.785  39.717  20.420  1.00  0.00    -0.358 OA
HETATM   14  H   LIG     1      20.515  39.471  19.762  1.00  0.00     0.217 HD
ENDBRANCH   5  13
BRANCH   3  15
HETATM   15  O   LIG     1      17.221  35.664  19.776  1.00  0.00    -0.358 OA
HETATM   16  H   LIG     1      16.602  35.796  18.985  1.00  0.00     0.217 HD
ENDBRANCH   3  15
BRANCH   4  17
HETATM   17  O   LIG     1      19.019  37.603  18.801  1.00  0.00    -0.356 OA
HETATM   18  H   LIG     1      19.747  38.221  18.466  1.00  0.00     0.218 HD
ENDBRANCH   4  17
TORSDOF 7
ENDMDL
MODEL 2
REMARK VINA RESULT:      -7.2      0.080      2.167
REMARK  7 active torsions:
REMARK  status: ('A' for Active; 'I' for Inactive)
REMARK    1  A    between atoms: C_2  and  C_7 
REMARK    2  A    between atoms: C_2  and  O_3 
REMARK    3  A    between atoms: O_3  and  C_4 
REMARK    4  A    between atoms: C_4  and  C_5 
REMARK    5  A    between atoms: C_9  and  O_10 
REMARK    6  A    between atoms: C_11  and  O_12 
REMARK    7  A    between atoms: C_13  and  O_14 
ROOT
HETATM    1  C   LIG     1      17.471  37.905  22.697  1.00  0.00     0.044 A 
HETATM    2  C   LIG     1      18.368  38.863  22.196  1.00  0.00     0.057 A 
HETATM    3  C   LIG     1      18.872  38.757  20.892  1.00  0.00     0.102 A 
HETATM    4  C   LIG     1      18.479  37.684  20.075  1.00  0.00     0.132 A 
HETATM    5  C   LIG     1      17.586  36.724  20.568  1.00  0.00     0.102 A 
HETATM    6  C   LIG     1      17.085  36.835  21.871  1.00  0.00     0.057 A 
ENDROOT
BRANCH   1   7
HETATM    7  C   LIG     1      16.944  38.024  24.075  1.00  0.00     0.293 C 
HETATM    8  O   LIG     1      15.701  37.963  24.285  1.00  0.00    -0.259 OA
BRANCH   7   9
HETATM    9  O   LIG     1      17.829  38.210  25.145  1.00  0.00    -0.318 OA
BRANCH   9  10
HETATM   10  C   LIG     1      18.730  37.205  25.606  1.00  0.00     0.178 C 
BRANCH  10  11
HETATM   11  C   LIG     1      18.038  36.290  26.621  1.00  0.00     0.022 C 
HETATM   12  C   LIG     1      17.967  34.854  26.111  1.00  0.00     0.007 C 
ENDBRANCH  10  11
ENDBRANCH   9  10
ENDBRANCH   7   9
ENDBRANCH   1   7
BRANCH   5  13
HETATM   13  O   LIG     1      17.200  35.661  19.752  1.00  0.00    -0.358 OA
HETATM   14  H   LIG     1      17.862  34.952  19.458  1.00  0.00     0.217 HD
ENDBRANCH   5  13
BRANCH   3  15
HETATM   15  O   LIG     1      19.761  39.714  20.407  1.00  0.00    -0.358 OA
HETATM   16  H   LIG     1      19.438  40.538  19.911  1.00  0.00     0.217 HD
ENDBRANCH   3  15
BRANCH   4  17
HETATM   17  O   LIG     1      18.968  37.557  18.775  1.00  0.00    -0.356 OA
HETATM   18  H   LIG     1      19.937  37.338  18.582  1.00  0.00     0.218 HD
ENDBRANCH   4  17
TORSDOF 7
ENDMDL
MODEL 3
REMARK VINA RESULT:      -7.2      1.571      2.338
REMARK  7 active torsions:
REMARK  status: ('A' for Active; 'I' for Inactive)
REMARK    1  A    between atoms: C_2  and  C_7 
REMARK    2  A    between atoms: C_2  and  O_3 
REMARK    3  A    between atoms: O_3  and  C_4 
REMARK    4  A    between atoms: C_4  and  C_5 
REMARK    5  A    between atoms: C_9  and  O_10 
REMARK    6  A    between atoms: C_11  and  O_12 
REMARK    7  A    between atoms: C_13  and  O_14 
ROOT
HETATM    1  C   LIG     1      16.879  37.443  22.398  1.00  0.00     0.044 A 
HETATM    2  C   LIG     1      15.728  36.637  22.455  1.00  0.00     0.057 A 
HETATM    3  C   LIG     1      15.441  35.730  21.425  1.00  0.00     0.102 A 
HETATM    4  C   LIG     1      16.305  35.623  20.324  1.00  0.00     0.132 A 
HETATM    5  C   LIG     1      17.453  36.424  20.259  1.00  0.00     0.102 A 
HETATM    6  C   LIG     1      17.737  37.328  21.290  1.00  0.00     0.057 A 
ENDROOT
BRANCH   1   7
HETATM    7  C   LIG     1      17.176  38.398  23.488  1.00  0.00     0.293 C 
HETATM    8  O   LIG     1      16.675  39.557  23.468  1.00  0.00    -0.259 OA
BRANCH   7   9
HETATM    9  O   LIG     1      18.020  38.015  24.538  1.00  0.00    -0.318 OA
BRANCH   9  10
HETATM   10  C   LIG     1      17.546  37.554  25.802  1.00  0.00     0.178 C 
BRANCH  10  11
HETATM   11  C   LIG     1      18.312  36.302  26.237  1.00  0.00     0.022 C 
HETATM   12  C   LIG     1      17.622  35.033  25.746  1.00  0.00     0.007 C 
ENDBRANCH  10  11
ENDBRANCH   9  10
ENDBRANCH   7   9
ENDBRANCH   1   7
BRANCH   5  13
HETATM   13  O   LIG     1      18.308  36.313  19.162  1.00  0.00    -0.358 OA
HETATM   14  H   LIG     1      19.310  36.429  19.258  1.00  0.00     0.217 HD
ENDBRANCH   5  13
BRANCH   3  15
HETATM   15  O   LIG     1      14.297  34.936  21.494  1.00  0.00    -0.358 OA
HETATM   16  H   LIG     1      14.350  33.924  21.472  1.00  0.00     0.217 HD
ENDBRANCH   3  15
BRANCH   4  17
HETATM   17  O   LIG     1      16.038  34.728  19.287  1.00  0.00    -0.356 OA
HETATM   18  H   LIG     1      15.144  34.703  18.814  1.00  0.00     0.218 HD
ENDBRANCH   4  17
TORSDOF 7
ENDMDL
MODEL 4
REMARK VINA RESULT:      -7.2      1.573      2.890
REMARK  7 active torsions:
REMARK  status: ('A' for Active; 'I' for Inactive)
REMARK    1  A    between atoms: C_2  and  C_7 
REMARK    2  A    between atoms: C_2  and  O_3 
REMARK    3  A    between atoms: O_3  and  C_4 
REMARK    4  A    between atoms: C_4  and  C_5 
REMARK    5  A    between atoms: C_9  and  O_10 
REMARK    6  A    between atoms: C_11  and  O_12 
REMARK    7  A    between atoms: C_13  and  O_14 
ROOT
HETATM    1  C   LIG     1      16.877  37.463  22.402  1.00  0.00     0.044 A 
HETATM    2  C   LIG     1      17.747  37.335  21.305  1.00  0.00     0.057 A 
HETATM    3  C   LIG     1      17.471  36.421  20.279  1.00  0.00     0.102 A 
HETATM    4  C   LIG     1      16.318  35.622  20.342  1.00  0.00     0.132 A 
HETATM    5  C   LIG     1      15.446  35.743  21.433  1.00  0.00     0.102 A 
HETATM    6  C   LIG     1      15.725  36.659  22.456  1.00  0.00     0.057 A 
ENDROOT
BRANCH   1   7
HETATM    7  C   LIG     1      17.174  38.430  23.482  1.00  0.00     0.293 C 
HETATM    8  O   LIG     1      16.674  39.588  23.451  1.00  0.00    -0.259 OA
BRANCH   7   9
HETATM    9  O   LIG     1      18.019  38.057  24.536  1.00  0.00    -0.318 OA
BRANCH   9  10
HETATM   10  C   LIG     1      17.548  37.525  25.773  1.00  0.00     0.178 C 
BRANCH  10  11
HETATM   11  C   LIG     1      18.319  36.253  26.138  1.00  0.00     0.022 C 
HETATM   12  C   LIG     1      17.560  35.004  25.700  1.00  0.00     0.007 C 
ENDBRANCH  10  11
ENDBRANCH   9  10
ENDBRANCH   7   9
ENDBRANCH   1   7
BRANCH   5  13
HETATM   13  O   LIG     1      14.303  34.947  21.491  1.00  0.00    -0.358 OA
HETATM   14  H   LIG     1      14.055  34.436  22.330  1.00  0.00     0.217 HD
ENDBRANCH   5  13
BRANCH   3  15
HETATM   15  O   LIG     1      18.341  36.304  19.196  1.00  0.00    -0.358 OA
HETATM   16  H   LIG     1      19.123  36.937  19.070  1.00  0.00     0.217 HD
ENDBRANCH   3  15
BRANCH   4  17
HETATM   17  O   LIG     1      16.024  34.705  19.333  1.00  0.00    -0.356 OA
HETATM   18  H   LIG     1      15.547  34.976  18.482  1.00  0.00     0.218 HD
ENDBRANCH   4  17
TORSDOF 7
ENDMDL
MODEL 5
REMARK VINA RESULT:      -6.9      1.811      5.487
REMARK  7 active torsions:
REMARK  status: ('A' for Active; 'I' for Inactive)
REMARK    1  A    between atoms: C_2  and  C_7 
REMARK    2  A    between atoms: C_2  and  O_3 
REMARK    3  A    between atoms: O_3  and  C_4 
REMARK    4  A    between atoms: C_4  and  C_5 
REMARK    5  A    between atoms: C_9  and  O_10 
REMARK    6  A    between atoms: C_11  and  O_12 
REMARK    7  A    between atoms: C_13  and  O_14 
ROOT
HETATM    1  C   LIG     1      16.956  36.092  22.030  1.00  0.00     0.044 A 
HETATM    2  C   LIG     1      16.857  37.465  22.315  1.00  0.00     0.057 A 
HETATM    3  C   LIG     1      16.920  37.925  23.638  1.00  0.00     0.102 A 
HETATM    4  C   LIG     1      17.081  37.011  24.691  1.00  0.00     0.132 A 
HETATM    5  C   LIG     1      17.178  35.640  24.415  1.00  0.00     0.102 A 
HETATM    6  C   LIG     1      17.116  35.185  23.092  1.00  0.00     0.057 A 
ENDROOT
BRANCH   1   7
HETATM    7  C   LIG     1      16.888  35.614  20.631  1.00  0.00     0.293 C 
HETATM    8  O   LIG     1      16.249  34.561  20.352  1.00  0.00    -0.259 OA
BRANCH   7   9
HETATM    9  O   LIG     1      17.542  36.328  19.618  1.00  0.00    -0.318 OA
BRANCH   9  10
HETATM   10  C   LIG     1      18.920  36.691  19.674  1.00  0.00     0.178 C 
BRANCH  10  11
HETATM   11  C   LIG     1      19.122  38.111  19.139  1.00  0.00     0.022 C 
HETATM   12  C   LIG     1      19.520  39.071  20.256  1.00  0.00     0.007 C 
ENDBRANCH  10  11
ENDBRANCH   9  10
ENDBRANCH   7   9
ENDBRANCH   1   7
BRANCH   5  13
HETATM   13  O   LIG     1      17.338  34.737  25.465  1.00  0.00    -0.358 OA
HETATM   14  H   LIG     1      16.907  34.894  26.369  1.00  0.00     0.217 HD
ENDBRANCH   5  13
BRANCH   3  15
HETATM   15  O   LIG     1      16.822  39.289  23.908  1.00  0.00    -0.358 OA
HETATM   16  H   LIG     1      17.097  39.676  24.803  1.00  0.00     0.217 HD
ENDBRANCH   3  15
BRANCH   4  17
HETATM   17  O   LIG     1      17.145  37.446  26.015  1.00  0.00    -0.356 OA
HETATM   18  H   LIG     1      17.946  37.946  26.379  1.00  0.00     0.218 HD
ENDBRANCH   4  17
TORSDOF 7
ENDMDL
MODEL 6
REMARK VINA RESULT:      -6.7      2.697      5.631
REMARK  7 active torsions:
REMARK  status: ('A' for Active; 'I' for Inactive)
REMARK    1  A    between atoms: C_2  and  C_7 
REMARK    2  A    between atoms: C_2  and  O_3 
REMARK    3  A    between atoms: O_3  and  C_4 
REMARK    4  A    between atoms: C_4  and  C_5 
REMARK    5  A    between atoms: C_9  and  O_10 
REMARK    6  A    between atoms: C_11  and  O_12 
REMARK    7  A    between atoms: C_13  and  O_14 
ROOT
HETATM    1  C   LIG     1      16.948  36.133  22.174  1.00  0.00     0.044 A 
HETATM    2  C   LIG     1      16.797  37.530  22.183  1.00  0.00     0.057 A 
HETATM    3  C   LIG     1      16.786  38.239  23.392  1.00  0.00     0.102 A 
HETATM    4  C   LIG     1      16.925  37.552  24.609  1.00  0.00     0.132 A 
HETATM    5  C   LIG     1      17.075  36.159  24.609  1.00  0.00     0.102 A 
HETATM    6  C   LIG     1      17.086  35.454  23.398  1.00  0.00     0.057 A 
ENDROOT
BRANCH   1   7
HETATM    7  C   LIG     1      16.958  35.391  20.894  1.00  0.00     0.293 C 
HETATM    8  O   LIG     1      17.330  35.964  19.833  1.00  0.00    -0.259 OA
BRANCH   7   9
HETATM    9  O   LIG     1      16.546  34.052  20.862  1.00  0.00    -0.318 OA
BRANCH   9  10
HETATM   10  C   LIG     1      15.241  33.638  20.460  1.00  0.00     0.178 C 
BRANCH  10  11
HETATM   11  C   LIG     1      15.331  32.488  19.453  1.00  0.00     0.022 C 
HETATM   12  C   LIG     1      14.867  31.174  20.074  1.00  0.00     0.007 C 
ENDBRANCH  10  11
ENDBRANCH   9  10
ENDBRANCH   7   9
ENDBRANCH   1   7
BRANCH   5  13
HETATM   13  O   LIG     1      17.212  35.482  25.820  1.00  0.00    -0.358 OA
HETATM   14  H   LIG     1      17.143  34.472  25.873  1.00  0.00     0.217 HD
ENDBRANCH   5  13
BRANCH   3  15
HETATM   15  O   LIG     1      16.637  39.625  23.387  1.00  0.00    -0.358 OA
HETATM   16  H   LIG     1      17.431  40.247  23.487  1.00  0.00     0.217 HD
ENDBRANCH   3  15
BRANCH   4  17
HETATM   17  O   LIG     1      16.917  38.237  25.824  1.00  0.00    -0.356 OA
HETATM   18  H   LIG     1      17.373  39.133  25.941  1.00  0.00     0.218 HD
ENDBRANCH   4  17
TORSDOF 7
ENDMDL
MODEL 7
REMARK VINA RESULT:      -6.5      2.658      5.414
REMARK  7 active torsions:
REMARK  status: ('A' for Active; 'I' for Inactive)
REMARK    1  A    between atoms: C_2  and  C_7 
REMARK    2  A    between atoms: C_2  and  O_3 
REMARK    3  A    between atoms: O_3  and  C_4 
REMARK    4  A    between atoms: C_4  and  C_5 
REMARK    5  A    between atoms: C_9  and  O_10 
REMARK    6  A    between atoms: C_11  and  O_12 
REMARK    7  A    between atoms: C_13  and  O_14 
ROOT
HETATM    1  C   LIG     1      16.915  36.182  22.231  1.00  0.00     0.044 A 
HETATM    2  C   LIG     1      17.086  35.578  23.488  1.00  0.00     0.057 A 
HETATM    3  C   LIG     1      17.165  36.358  24.651  1.00  0.00     0.102 A 
HETATM    4  C   LIG     1      17.074  37.757  24.563  1.00  0.00     0.132 A 
HETATM    5  C   LIG     1      16.905  38.367  23.313  1.00  0.00     0.102 A 
HETATM    6  C   LIG     1      16.826  37.583  22.155  1.00  0.00     0.057 A 
ENDROOT
BRANCH   1   7
HETATM    7  C   LIG     1      16.833  35.353  21.009  1.00  0.00     0.293 C 
HETATM    8  O   LIG     1      17.159  35.839  19.890  1.00  0.00    -0.259 OA
BRANCH   7   9
HETATM    9  O   LIG     1      16.385  34.028  21.096  1.00  0.00    -0.318 OA
BRANCH   9  10
HETATM   10  C   LIG     1      15.179  33.563  20.492  1.00  0.00     0.178 C 
BRANCH  10  11
HETATM   11  C   LIG     1      15.399  32.197  19.836  1.00  0.00     0.022 C 
HETATM   12  C   LIG     1      14.810  32.158  18.430  1.00  0.00     0.007 C 
ENDBRANCH  10  11
ENDBRANCH   9  10
ENDBRANCH   7   9
ENDBRANCH   1   7
BRANCH   5  13
HETATM   13  O   LIG     1      16.816  39.756  23.232  1.00  0.00    -0.358 OA
HETATM   14  H   LIG     1      15.920  40.229  23.197  1.00  0.00     0.217 HD
ENDBRANCH   5  13
BRANCH   3  15
HETATM   15  O   LIG     1      17.335  35.747  25.892  1.00  0.00    -0.358 OA
HETATM   16  H   LIG     1      17.684  34.799  25.975  1.00  0.00     0.217 HD
ENDBRANCH   3  15
BRANCH   4  17
HETATM   17  O   LIG     1      17.151  38.553  25.706  1.00  0.00    -0.356 OA
HETATM   18  H   LIG     1      17.814  39.314  25.789  1.00  0.00     0.218 HD
ENDBRANCH   4  17
TORSDOF 7
ENDMDL
MODEL 8
REMARK VINA RESULT:      -6.5      8.873     11.051
REMARK  7 active torsions:
REMARK  status: ('A' for Active; 'I' for Inactive)
REMARK    1  A    between atoms: C_2  and  C_7 
REMARK    2  A    between atoms: C_2  and  O_3 
REMARK    3  A    between atoms: O_3  and  C_4 
REMARK    4  A    between atoms: C_4  and  C_5 
REMARK    5  A    between atoms: C_9  and  O_10 
REMARK    6  A    between atoms: C_11  and  O_12 
REMARK    7  A    between atoms: C_13  and  O_14 
ROOT
HETATM    1  C   LIG     1      15.768  31.965  15.055  1.00  0.00     0.044 A 
HETATM    2  C   LIG     1      15.149  30.937  14.323  1.00  0.00     0.057 A 
HETATM    3  C   LIG     1      14.008  30.293  14.823  1.00  0.00     0.102 A 
HETATM    4  C   LIG     1      13.477  30.673  16.066  1.00  0.00     0.132 A 
HETATM    5  C   LIG     1      14.089  31.696  16.802  1.00  0.00     0.102 A 
HETATM    6  C   LIG     1      15.228  32.338  16.298  1.00  0.00     0.057 A 
ENDROOT
BRANCH   1   7
HETATM    7  C   LIG     1      16.972  32.640  14.522  1.00  0.00     0.293 C 
HETATM    8  O   LIG     1      18.036  32.667  15.201  1.00  0.00    -0.259 OA
BRANCH   7   9
HETATM    9  O   LIG     1      16.926  33.255  13.263  1.00  0.00    -0.318 OA
BRANCH   9  10
HETATM   10  C   LIG     1      17.880  34.221  12.823  1.00  0.00     0.178 C 
BRANCH  10  11
HETATM   11  C   LIG     1      18.990  33.546  12.012  1.00  0.00     0.022 C 
HETATM   12  C   LIG     1      20.366  33.865  12.588  1.00  0.00     0.007 C 
ENDBRANCH  10  11
ENDBRANCH   9  10
ENDBRANCH   7   9
ENDBRANCH   1   7
BRANCH   5  13
HETATM   13  O   LIG     1      13.557  32.070  18.035  1.00  0.00    -0.358 OA
HETATM   14  H   LIG     1      13.967  31.755  18.906  1.00  0.00     0.217 HD
ENDBRANCH   5  13
BRANCH   3  15
HETATM   15  O   LIG     1      13.403  29.275  14.088  1.00  0.00    -0.358 OA
HETATM   16  H   LIG     1      13.239  28.357  14.484  1.00  0.00     0.217 HD
ENDBRANCH   3  15
BRANCH   4  17
HETATM   17  O   LIG     1      12.343  30.046  16.583  1.00  0.00    -0.356 OA
HETATM   18  H   LIG     1      11.444  30.509  16.626  1.00  0.00     0.218 HD
ENDBRANCH   4  17
TORSDOF 7
ENDMDL
MODEL 9
REMARK VINA RESULT:      -6.5      8.854     11.175
REMARK  7 active torsions:
REMARK  status: ('A' for Active; 'I' for Inactive)
REMARK    1  A    between atoms: C_2  and  C_7 
REMARK    2  A    between atoms: C_2  and  O_3 
REMARK    3  A    between atoms: O_3  and  C_4 
REMARK    4  A    between atoms: C_4  and  C_5 
REMARK    5  A    between atoms: C_9  and  O_10 
REMARK    6  A    between atoms: C_11  and  O_12 
REMARK    7  A    between atoms: C_13  and  O_14 
ROOT
HETATM    1  C   LIG     1      15.771  31.963  15.060  1.00  0.00     0.044 A 
HETATM    2  C   LIG     1      15.247  32.339  16.309  1.00  0.00     0.057 A 
HETATM    3  C   LIG     1      14.107  31.706  16.823  1.00  0.00     0.102 A 
HETATM    4  C   LIG     1      13.478  30.688  16.088  1.00  0.00     0.132 A 
HETATM    5  C   LIG     1      13.994  30.309  14.841  1.00  0.00     0.102 A 
HETATM    6  C   LIG     1      15.134  30.944  14.331  1.00  0.00     0.057 A 
ENDROOT
BRANCH   1   7
HETATM    7  C   LIG     1      16.975  32.636  14.523  1.00  0.00     0.293 C 
HETATM    8  O   LIG     1      18.035  32.680  15.208  1.00  0.00    -0.259 OA
BRANCH   7   9
HETATM    9  O   LIG     1      16.933  33.230  13.255  1.00  0.00    -0.318 OA
BRANCH   9  10
HETATM   10  C   LIG     1      17.863  34.220  12.818  1.00  0.00     0.178 C 
BRANCH  10  11
HETATM   11  C   LIG     1      18.978  33.578  11.988  1.00  0.00     0.022 C 
HETATM   12  C   LIG     1      20.350  33.869  12.589  1.00  0.00     0.007 C 
ENDBRANCH  10  11
ENDBRANCH   9  10
ENDBRANCH   7   9
ENDBRANCH   1   7
BRANCH   5  13
HETATM   13  O   LIG     1      13.365  29.299  14.115  1.00  0.00    -0.358 OA
HETATM   14  H   LIG     1      13.683  29.035  13.189  1.00  0.00     0.217 HD
ENDBRANCH   5  13
BRANCH   3  15
HETATM   15  O   LIG     1      13.597  32.087  18.063  1.00  0.00    -0.358 OA
HETATM   16  H   LIG     1      14.187  32.149  18.885  1.00  0.00     0.217 HD
ENDBRANCH   3  15
BRANCH   4  17
HETATM   17  O   LIG     1      12.341  30.046  16.579  1.00  0.00    -0.356 OA
HETATM   18  H   LIG     1      11.816  29.381  16.025  1.00  0.00     0.218 HD
ENDBRANCH   4  17
TORSDOF 7
ENDMDL
MODEL 10
REMARK VINA RESULT:      -6.3      6.638      8.839
REMARK  7 active torsions:
REMARK  status: ('A' for Active; 'I' for Inactive)
REMARK    1  A    between atoms: C_2  and  C_7 
REMARK    2  A    between atoms: C_2  and  O_3 
REMARK    3  A    between atoms: O_3  and  C_4 
REMARK    4  A    between atoms: C_4  and  C_5 
REMARK    5  A    between atoms: C_9  and  O_10 
REMARK    6  A    between atoms: C_11  and  O_12 
REMARK    7  A    between atoms: C_13  and  O_14 
ROOT
HETATM    1  C   LIG     1      15.015  32.604  16.408  1.00  0.00     0.044 A 
HETATM    2  C   LIG     1      13.879  31.885  16.820  1.00  0.00     0.057 A 
HETATM    3  C   LIG     1      13.429  30.780  16.085  1.00  0.00     0.102 A 
HETATM    4  C   LIG     1      14.114  30.383  14.925  1.00  0.00     0.132 A 
HETATM    5  C   LIG     1      15.246  31.094  14.507  1.00  0.00     0.102 A 
HETATM    6  C   LIG     1      15.693  32.199  15.245  1.00  0.00     0.057 A 
ENDROOT
BRANCH   1   7
HETATM    7  C   LIG     1      15.484  33.770  17.188  1.00  0.00     0.293 C 
HETATM    8  O   LIG     1      15.883  34.811  16.594  1.00  0.00    -0.259 OA
BRANCH   7   9
HETATM    9  O   LIG     1      15.492  33.714  18.588  1.00  0.00    -0.318 OA
BRANCH   9  10
HETATM   10  C   LIG     1      15.740  34.846  19.420  1.00  0.00     0.178 C 
BRANCH  10  11
HETATM   11  C   LIG     1      15.834  34.421  20.889  1.00  0.00     0.022 C 
HETATM   12  C   LIG     1      16.855  35.267  21.643  1.00  0.00     0.007 C 
ENDBRANCH  10  11
ENDBRANCH   9  10
ENDBRANCH   7   9
ENDBRANCH   1   7
BRANCH   5  13
HETATM   13  O   LIG     1      15.922  30.696  13.354  1.00  0.00    -0.358 OA
HETATM   14  H   LIG     1      16.055  29.717  13.130  1.00  0.00     0.217 HD
ENDBRANCH   5  13
BRANCH   3  15
HETATM   15  O   LIG     1      12.302  30.075  16.505  1.00  0.00    -0.358 OA
HETATM   16  H   LIG     1      12.331  29.450  17.302  1.00  0.00     0.217 HD
ENDBRANCH   3  15
BRANCH   4  17
HETATM   17  O   LIG     1      13.683  29.286  14.178  1.00  0.00    -0.356 OA
HETATM   18  H   LIG     1      13.371  28.427  14.613  1.00  0.00     0.218 HD
ENDBRANCH   4  17
TORSDOF 7
ENDMDL
MODEL 11
REMARK VINA RESULT:      -6.3      2.918      5.159
REMARK  7 active torsions:
REMARK  status: ('A' for Active; 'I' for Inactive)
REMARK    1  A    between atoms: C_2  and  C_7 
REMARK    2  A    between atoms: C_2  and  O_3 
REMARK    3  A    between atoms: O_3  and  C_4 
REMARK    4  A    between atoms: C_4  and  C_5 
REMARK    5  A    between atoms: C_9  and  O_10 
REMARK    6  A    between atoms: C_11  and  O_12 
REMARK    7  A    between atoms: C_13  and  O_14 
ROOT
HETATM    1  C   LIG     1      16.504  36.019  21.274  1.00  0.00     0.044 A 
HETATM    2  C   LIG     1      17.588  36.274  20.416  1.00  0.00     0.057 A 
HETATM    3  C   LIG     1      18.359  37.436  20.566  1.00  0.00     0.102 A 
HETATM    4  C   LIG     1      18.048  38.357  21.579  1.00  0.00     0.132 A 
HETATM    5  C   LIG     1      16.968  38.111  22.437  1.00  0.00     0.102 A 
HETATM    6  C   LIG     1      16.201  36.948  22.284  1.00  0.00     0.057 A 
ENDROOT
BRANCH   1   7
HETATM    7  C   LIG     1      15.695  34.792  21.109  1.00  0.00     0.293 C 
HETATM    8  O   LIG     1      14.593  34.674  21.714  1.00  0.00    -0.259 OA
BRANCH   7   9
HETATM    9  O   LIG     1      16.159  33.757  20.286  1.00  0.00    -0.318 OA
BRANCH   9  10
HETATM   10  C   LIG     1      15.335  32.685  19.829  1.00  0.00     0.178 C 
BRANCH  10  11
HETATM   11  C   LIG     1      15.253  32.688  18.299  1.00  0.00     0.022 C 
HETATM   12  C   LIG     1      14.135  31.774  17.806  1.00  0.00     0.007 C 
ENDBRANCH  10  11
ENDBRANCH   9  10
ENDBRANCH   7   9
ENDBRANCH   1   7
BRANCH   5  13
HETATM   13  O   LIG     1      16.664  39.029  23.441  1.00  0.00    -0.358 OA
HETATM   14  H   LIG     1      17.000  38.909  24.389  1.00  0.00     0.217 HD
ENDBRANCH   5  13
BRANCH   3  15
HETATM   15  O   LIG     1      19.432  37.677  19.710  1.00  0.00    -0.358 OA
HETATM   16  H   LIG     1      20.021  38.496  19.812  1.00  0.00     0.217 HD
ENDBRANCH   3  15
BRANCH   4  17
HETATM   17  O   LIG     1      18.800  39.520  21.746  1.00  0.00    -0.356 OA
HETATM   18  H   LIG     1      18.766  40.066  22.598  1.00  0.00     0.218 HD
ENDBRANCH   4  17
TORSDOF 7
ENDMDL
MODEL 12
REMARK VINA RESULT:      -6.2      6.619      8.938
REMARK  7 active torsions:
REMARK  status: ('A' for Active; 'I' for Inactive)
REMARK    1  A    between atoms: C_2  and  C_7 
REMARK    2  A    between atoms: C_2  and  O_3 
REMARK    3  A    between atoms: O_3  and  C_4 
REMARK    4  A    between atoms: C_4  and  C_5 
REMARK    5  A    between atoms: C_9  and  O_10 
REMARK    6  A    between atoms: C_11  and  O_12 
REMARK    7  A    between atoms: C_13  and  O_14 
ROOT
HETATM    1  C   LIG     1      15.033  32.629  16.393  1.00  0.00     0.044 A 
HETATM    2  C   LIG     1      15.721  32.234  15.233  1.00  0.00     0.057 A 
HETATM    3  C   LIG     1      15.287  31.128  14.488  1.00  0.00     0.102 A 
HETATM    4  C   LIG     1      14.156  30.405  14.901  1.00  0.00     0.132 A 
HETATM    5  C   LIG     1      13.466  30.792  16.057  1.00  0.00     0.102 A 
HETATM    6  C   LIG     1      13.903  31.898  16.798  1.00  0.00     0.057 A 
ENDROOT
BRANCH   1   7
HETATM    7  C   LIG     1      15.497  33.797  17.174  1.00  0.00     0.293 C 
HETATM    8  O   LIG     1      15.917  34.830  16.581  1.00  0.00    -0.259 OA
BRANCH   7   9
HETATM    9  O   LIG     1      15.476  33.750  18.575  1.00  0.00    -0.318 OA
BRANCH   9  10
HETATM   10  C   LIG     1      15.784  34.869  19.404  1.00  0.00     0.178 C 
BRANCH  10  11
HETATM   11  C   LIG     1      16.005  34.418  20.851  1.00  0.00     0.022 C 
HETATM   12  C   LIG     1      16.713  35.498  21.664  1.00  0.00     0.007 C 
ENDBRANCH  10  11
ENDBRANCH   9  10
ENDBRANCH   7   9
ENDBRANCH   1   7
BRANCH   5  13
HETATM   13  O   LIG     1      12.344  30.070  16.463  1.00  0.00    -0.358 OA
HETATM   14  H   LIG     1      11.461  30.144  15.972  1.00  0.00     0.217 HD
ENDBRANCH   5  13
BRANCH   3  15
HETATM   15  O   LIG     1      15.977  30.746  13.339  1.00  0.00    -0.358 OA
HETATM   16  H   LIG     1      15.673  31.032  12.415  1.00  0.00     0.217 HD
ENDBRANCH   3  15
BRANCH   4  17
HETATM   17  O   LIG     1      13.707  29.301  14.176  1.00  0.00    -0.356 OA
HETATM   18  H   LIG     1      13.129  29.398  13.351  1.00  0.00     0.218 HD
ENDBRANCH   4  17
TORSDOF 7
ENDMDL
MODEL 13
REMARK VINA RESULT:      -6.1      9.134     11.925
REMARK  7 active torsions:
REMARK  status: ('A' for Active; 'I' for Inactive)
REMARK    1  A    between atoms: C_2  and  C_7 
REMARK    2  A    between atoms: C_2  and  O_3 
REMARK    3  A    between atoms: O_3  and  C_4 
REMARK    4  A    between atoms: C_4  and  C_5 
REMARK    5  A    between atoms: C_9  and  O_10 
REMARK    6  A    between atoms: C_11  and  O_12 
REMARK    7  A    between atoms: C_13  and  O_14 
ROOT
HETATM    1  C   LIG     1      14.668  30.528  14.922  1.00  0.00     0.044 A 
HETATM    2  C   LIG     1      14.000  30.749  16.138  1.00  0.00     0.057 A 
HETATM    3  C   LIG     1      14.269  31.893  16.903  1.00  0.00     0.102 A 
HETATM    4  C   LIG     1      15.216  32.829  16.455  1.00  0.00     0.132 A 
HETATM    5  C   LIG     1      15.887  32.615  15.243  1.00  0.00     0.102 A 
HETATM    6  C   LIG     1      15.614  31.471  14.482  1.00  0.00     0.057 A 
ENDROOT
BRANCH   1   7
HETATM    7  C   LIG     1      14.379  29.319  14.120  1.00  0.00     0.293 C 
HETATM    8  O   LIG     1      13.212  28.837  14.099  1.00  0.00    -0.259 OA
BRANCH   7   9
HETATM    9  O   LIG     1      15.405  28.705  13.390  1.00  0.00    -0.318 OA
BRANCH   9  10
HETATM   10  C   LIG     1      15.389  27.329  13.012  1.00  0.00     0.178 C 
BRANCH  10  11
HETATM   11  C   LIG     1      16.206  27.115  11.734  1.00  0.00     0.022 C 
HETATM   12  C   LIG     1      15.449  26.245  10.735  1.00  0.00     0.007 C 
ENDBRANCH  10  11
ENDBRANCH   9  10
ENDBRANCH   7   9
ENDBRANCH   1   7
BRANCH   5  13
HETATM   13  O   LIG     1      16.826  33.547  14.803  1.00  0.00    -0.358 OA
HETATM   14  H   LIG     1      17.733  33.261  14.455  1.00  0.00     0.217 HD
ENDBRANCH   5  13
BRANCH   3  15
HETATM   15  O   LIG     1      13.599  32.101  18.107  1.00  0.00    -0.358 OA
HETATM   16  H   LIG     1      14.094  32.363  18.953  1.00  0.00     0.217 HD
ENDBRANCH   3  15
BRANCH   4  17
HETATM   17  O   LIG     1      15.501  33.973  17.199  1.00  0.00    -0.356 OA
HETATM   18  H   LIG     1      16.307  34.033  17.808  1.00  0.00     0.218 HD
ENDBRANCH   4  17
TORSDOF 7
ENDMDL
MODEL 14
REMARK VINA RESULT:      -6.0      9.294     12.104
REMARK  7 active torsions:
REMARK  status: ('A' for Active; 'I' for Inactive)
REMARK    1  A    between atoms: C_2  and  C_7 
REMARK    2  A    between atoms: C_2  and  O_3 
REMARK    3  A    between atoms: O_3  and  C_4 
REMARK    4  A    between atoms: C_4  and  C_5 
REMARK    5  A    between atoms: C_9  and  O_10 
REMARK    6  A    between atoms: C_11  and  O_12 
REMARK    7  A    between atoms: C_13  and  O_14 
ROOT
HETATM    1  C   LIG     1      14.688  30.493  14.859  1.00  0.00     0.044 A 
HETATM    2  C   LIG     1      15.639  31.441  14.444  1.00  0.00     0.057 A 
HETATM    3  C   LIG     1      15.885  32.588  15.212  1.00  0.00     0.102 A 
HETATM    4  C   LIG     1      15.176  32.797  16.406  1.00  0.00     0.132 A 
HETATM    5  C   LIG     1      14.225  31.857  16.825  1.00  0.00     0.102 A 
HETATM    6  C   LIG     1      13.983  30.712  16.055  1.00  0.00     0.057 A 
ENDROOT
BRANCH   1   7
HETATM    7  C   LIG     1      14.434  29.285  14.043  1.00  0.00     0.293 C 
HETATM    8  O   LIG     1      15.369  28.763  13.375  1.00  0.00    -0.259 OA
BRANCH   7   9
HETATM    9  O   LIG     1      13.149  28.725  14.008  1.00  0.00    -0.318 OA
BRANCH   9  10
HETATM   10  C   LIG     1      12.897  27.349  13.731  1.00  0.00     0.178 C 
BRANCH  10  11
HETATM   11  C   LIG     1      11.603  27.193  12.926  1.00  0.00     0.022 C 
HETATM   12  C   LIG     1      11.559  25.847  12.208  1.00  0.00     0.007 C 
ENDBRANCH  10  11
ENDBRANCH   9  10
ENDBRANCH   7   9
ENDBRANCH   1   7
BRANCH   5  13
HETATM   13  O   LIG     1      13.524  32.070  18.012  1.00  0.00    -0.358 OA
HETATM   14  H   LIG     1      13.652  31.470  18.818  1.00  0.00     0.217 HD
ENDBRANCH   5  13
BRANCH   3  15
HETATM   15  O   LIG     1      16.831  33.521  14.790  1.00  0.00    -0.358 OA
HETATM   16  H   LIG     1      17.440  33.341  14.000  1.00  0.00     0.217 HD
ENDBRANCH   3  15
BRANCH   4  17
HETATM   17  O   LIG     1      15.403  33.931  17.185  1.00  0.00    -0.356 OA
HETATM   18  H   LIG     1      14.683  34.624  17.351  1.00  0.00     0.218 HD
ENDBRANCH   4  17
TORSDOF 7
ENDMDL
MODEL 15
REMARK VINA RESULT:      -6.0      9.290     11.992
REMARK  7 active torsions:
REMARK  status: ('A' for Active; 'I' for Inactive)
REMARK    1  A    between atoms: C_2  and  C_7 
REMARK    2  A    between atoms: C_2  and  O_3 
REMARK    3  A    between atoms: O_3  and  C_4 
REMARK    4  A    between atoms: C_4  and  C_5 
REMARK    5  A    between atoms: C_9  and  O_10 
REMARK    6  A    between atoms: C_11  and  O_12 
REMARK    7  A    between atoms: C_13  and  O_14 
ROOT
HETATM    1  C   LIG     1      14.675  30.495  14.872  1.00  0.00     0.044 A 
HETATM    2  C   LIG     1      13.967  30.702  16.068  1.00  0.00     0.057 A 
HETATM    3  C   LIG     1      14.206  31.840  16.851  1.00  0.00     0.102 A 
HETATM    4  C   LIG     1      15.162  32.784  16.441  1.00  0.00     0.132 A 
HETATM    5  C   LIG     1      15.873  32.584  15.251  1.00  0.00     0.102 A 
HETATM    6  C   LIG     1      15.630  31.445  14.471  1.00  0.00     0.057 A 
ENDROOT
BRANCH   1   7
HETATM    7  C   LIG     1      14.417  29.291  14.051  1.00  0.00     0.293 C 
HETATM    8  O   LIG     1      15.326  28.823  13.310  1.00  0.00    -0.259 OA
BRANCH   7   9
HETATM    9  O   LIG     1      13.159  28.675  14.094  1.00  0.00    -0.318 OA
BRANCH   9  10
HETATM   10  C   LIG     1      12.922  27.338  13.655  1.00  0.00     0.178 C 
BRANCH  10  11
HETATM   11  C   LIG     1      11.602  27.255  12.881  1.00  0.00     0.022 C 
HETATM   12  C   LIG     1      11.290  25.818  12.475  1.00  0.00     0.007 C 
ENDBRANCH  10  11
ENDBRANCH   9  10
ENDBRANCH   7   9
ENDBRANCH   1   7
BRANCH   5  13
HETATM   13  O   LIG     1      16.821  33.525  14.849  1.00  0.00    -0.358 OA
HETATM   14  H   LIG     1      16.713  34.509  15.062  1.00  0.00     0.217 HD
ENDBRANCH   5  13
BRANCH   3  15
HETATM   15  O   LIG     1      13.497  32.035  18.035  1.00  0.00    -0.358 OA
HETATM   16  H   LIG     1      12.635  31.538  18.227  1.00  0.00     0.217 HD
ENDBRANCH   3  15
BRANCH   4  17
HETATM   17  O   LIG     1      15.417  33.924  17.204  1.00  0.00    -0.356 OA
HETATM   18  H   LIG     1      16.203  33.982  17.840  1.00  0.00     0.218 HD
ENDBRANCH   4  17
TORSDOF 7
ENDMDL
MODEL 16
REMARK VINA RESULT:      -5.8      2.403      5.937
REMARK  7 active torsions:
REMARK  status: ('A' for Active; 'I' for Inactive)
REMARK    1  A    between atoms: C_2  and  C_7 
REMARK    2  A    between atoms: C_2  and  O_3 
REMARK    3  A    between atoms: O_3  and  C_4 
REMARK    4  A    between atoms: C_4  and  C_5 
REMARK    5  A    between atoms: C_9  and  O_10 
REMARK    6  A    between atoms: C_11  and  O_12 
REMARK    7  A    between atoms: C_13  and  O_14 
ROOT
HETATM    1  C   LIG     1      18.125  37.440  20.815  1.00  0.00     0.044 A 
HETATM    2  C   LIG     1      17.978  38.554  21.659  1.00  0.00     0.057 A 
HETATM    3  C   LIG     1      16.894  38.642  22.543  1.00  0.00     0.102 A 
HETATM    4  C   LIG     1      15.941  37.610  22.589  1.00  0.00     0.132 A 
HETATM    5  C   LIG     1      16.080  36.497  21.749  1.00  0.00     0.102 A 
HETATM    6  C   LIG     1      17.166  36.414  20.868  1.00  0.00     0.057 A 
ENDROOT
BRANCH   1   7
HETATM    7  C   LIG     1      19.271  37.355  19.884  1.00  0.00     0.293 C 
HETATM    8  O   LIG     1      19.628  36.237  19.419  1.00  0.00    -0.259 OA
BRANCH   7   9
HETATM    9  O   LIG     1      19.965  38.519  19.524  1.00  0.00    -0.318 OA
BRANCH   9  10
HETATM   10  C   LIG     1      19.399  39.558  18.727  1.00  0.00     0.178 C 
BRANCH  10  11
HETATM   11  C   LIG     1      18.757  38.975  17.464  1.00  0.00     0.022 C 
HETATM   12  C   LIG     1      18.580  40.045  16.391  1.00  0.00     0.007 C 
ENDBRANCH  10  11
ENDBRANCH   9  10
ENDBRANCH   7   9
ENDBRANCH   1   7
BRANCH   5  13
HETATM   13  O   LIG     1      15.132  35.476  21.799  1.00  0.00    -0.358 OA
HETATM   14  H   LIG     1      14.456  35.416  22.552  1.00  0.00     0.217 HD
ENDBRANCH   5  13
BRANCH   3  15
HETATM   15  O   LIG     1      16.759  39.751  23.376  1.00  0.00    -0.358 OA
HETATM   16  H   LIG     1      17.041  39.723  24.349  1.00  0.00     0.217 HD
ENDBRANCH   3  15
BRANCH   4  17
HETATM   17  O   LIG     1      14.854  37.676  23.460  1.00  0.00    -0.356 OA
HETATM   18  H   LIG     1      14.794  38.370  24.195  1.00  0.00     0.218 HD
ENDBRANCH   4  17
TORSDOF 7
ENDMDL
MODEL 17
REMARK VINA RESULT:      -5.5     10.344     13.019
REMARK  7 active torsions:
REMARK  status: ('A' for Active; 'I' for Inactive)
REMARK    1  A    between atoms: C_2  and  C_7 
REMARK    2  A    between atoms: C_2  and  O_3 
REMARK    3  A    between atoms: O_3  and  C_4 
REMARK    4  A    between atoms: C_4  and  C_5 
REMARK    5  A    between atoms: C_9  and  O_10 
REMARK    6  A    between atoms: C_11  and  O_12 
REMARK    7  A    between atoms: C_13  and  O_14 
ROOT
HETATM    1  C   LIG     1      14.135  29.428  14.499  1.00  0.00     0.044 A 
HETATM    2  C   LIG     1      13.375  29.981  15.544  1.00  0.00     0.057 A 
HETATM    3  C   LIG     1      13.716  31.226  16.093  1.00  0.00     0.102 A 
HETATM    4  C   LIG     1      14.827  31.929  15.599  1.00  0.00     0.132 A 
HETATM    5  C   LIG     1      15.590  31.383  14.558  1.00  0.00     0.102 A 
HETATM    6  C   LIG     1      15.245  30.140  14.013  1.00  0.00     0.057 A 
ENDROOT
BRANCH   1   7
HETATM    7  C   LIG     1      13.770  28.114  13.926  1.00  0.00     0.293 C 
HETATM    8  O   LIG     1      14.654  27.390  13.388  1.00  0.00    -0.259 OA
BRANCH   7   9
HETATM    9  O   LIG     1      12.439  27.678  13.974  1.00  0.00    -0.318 OA
BRANCH   9  10
HETATM   10  C   LIG     1      11.662  27.388  12.813  1.00  0.00     0.178 C 
BRANCH  10  11
HETATM   11  C   LIG     1      11.495  25.875  12.646  1.00  0.00     0.022 C 
HETATM   12  C   LIG     1      11.678  25.457  11.190  1.00  0.00     0.007 C 
ENDBRANCH  10  11
ENDBRANCH   9  10
ENDBRANCH   7   9
ENDBRANCH   1   7
BRANCH   5  13
HETATM   13  O   LIG     1      16.692  32.086  14.072  1.00  0.00    -0.358 OA
HETATM   14  H   LIG     1      17.247  31.733  13.301  1.00  0.00     0.217 HD
ENDBRANCH   5  13
BRANCH   3  15
HETATM   15  O   LIG     1      12.954  31.765  17.128  1.00  0.00    -0.358 OA
HETATM   16  H   LIG     1      13.190  32.652  17.556  1.00  0.00     0.217 HD
ENDBRANCH   3  15
BRANCH   4  17
HETATM   17  O   LIG     1      15.185  33.168  16.130  1.00  0.00    -0.356 OA
HETATM   18  H   LIG     1      15.470  33.279  17.095  1.00  0.00     0.218 HD
ENDBRANCH   4  17
TORSDOF 7
ENDMDL
MODEL 18
REMARK VINA RESULT:      -5.4      3.702      5.585
REMARK  7 active torsions:
REMARK  status: ('A' for Active; 'I' for Inactive)
REMARK    1  A    between atoms: C_2  and  C_7 
REMARK    2  A    between atoms: C_2  and  O_3 
REMARK    3  A    between atoms: O_3  and  C_4 
REMARK    4  A    between atoms: C_4  and  C_5 
REMARK    5  A    between atoms: C_9  and  O_10 
REMARK    6  A    between atoms: C_11  and  O_12 
REMARK    7  A    between atoms: C_13  and  O_14 
ROOT
HETATM    1  C   LIG     1      15.607  34.601  20.066  1.00  0.00     0.044 A 
HETATM    2  C   LIG     1      15.300  33.277  20.424  1.00  0.00     0.057 A 
HETATM    3  C   LIG     1      14.992  32.325  19.442  1.00  0.00     0.102 A 
HETATM    4  C   LIG     1      14.986  32.693  18.087  1.00  0.00     0.132 A 
HETATM    5  C   LIG     1      15.289  34.011  17.721  1.00  0.00     0.102 A 
HETATM    6  C   LIG     1      15.597  34.959  18.706  1.00  0.00     0.057 A 
ENDROOT
BRANCH   1   7
HETATM    7  C   LIG     1      15.931  35.600  21.107  1.00  0.00     0.293 C 
HETATM    8  O   LIG     1      15.004  36.201  21.719  1.00  0.00    -0.259 OA
BRANCH   7   9
HETATM    9  O   LIG     1      17.270  35.883  21.409  1.00  0.00    -0.318 OA
BRANCH   9  10
HETATM   10  C   LIG     1      18.095  36.728  20.609  1.00  0.00     0.178 C 
BRANCH  10  11
HETATM   11  C   LIG     1      17.980  38.184  21.073  1.00  0.00     0.022 C 
HETATM   12  C   LIG     1      17.771  38.267  22.582  1.00  0.00     0.007 C 
ENDBRANCH  10  11
ENDBRANCH   9  10
ENDBRANCH   7   9
ENDBRANCH   1   7
BRANCH   5  13
HETATM   13  O   LIG     1      15.281  34.371  16.374  1.00  0.00    -0.358 OA
HETATM   14  H   LIG     1      16.138  34.423  15.835  1.00  0.00     0.217 HD
ENDBRANCH   5  13
BRANCH   3  15
HETATM   15  O   LIG     1      14.690  31.015  19.810  1.00  0.00    -0.358 OA
HETATM   16  H   LIG     1      15.401  30.383  20.162  1.00  0.00     0.217 HD
ENDBRANCH   3  15
BRANCH   4  17
HETATM   17  O   LIG     1      14.681  31.763  17.093  1.00  0.00    -0.356 OA
HETATM   18  H   LIG     1      13.729  31.576  16.804  1.00  0.00     0.218 HD
ENDBRANCH   4  17
TORSDOF 7
ENDMDL
MODEL 19
REMARK VINA RESULT:      -5.3      2.041      4.256
REMARK  7 active torsions:
REMARK  status: ('A' for Active; 'I' for Inactive)
REMARK    1  A    between atoms: C_2  and  C_7 
REMARK    2  A    between atoms: C_2  and  O_3 
REMARK    3  A    between atoms: O_3  and  C_4 
REMARK    4  A    between atoms: C_4  and  C_5 
REMARK    5  A    between atoms: C_9  and  O_10 
REMARK    6  A    between atoms: C_11  and  O_12 
REMARK    7  A    between atoms: C_13  and  O_14 
ROOT
HETATM    1  C   LIG     1      16.791  36.126  22.490  1.00  0.00     0.044 A 
HETATM    2  C   LIG     1      17.394  36.444  21.262  1.00  0.00     0.057 A 
HETATM    3  C   LIG     1      16.950  35.849  20.073  1.00  0.00     0.102 A 
HETATM    4  C   LIG     1      15.894  34.924  20.105  1.00  0.00     0.132 A 
HETATM    5  C   LIG     1      15.288  34.600  21.326  1.00  0.00     0.102 A 
HETATM    6  C   LIG     1      15.735  35.198  22.512  1.00  0.00     0.057 A 
ENDROOT
BRANCH   1   7
HETATM    7  C   LIG     1      17.266  36.758  23.741  1.00  0.00     0.293 C 
HETATM    8  O   LIG     1      17.343  36.081  24.804  1.00  0.00    -0.259 OA
BRANCH   7   9
HETATM    9  O   LIG     1      17.623  38.113  23.745  1.00  0.00    -0.318 OA
BRANCH   9  10
HETATM   10  C   LIG     1      17.510  38.960  22.602  1.00  0.00     0.178 C 
BRANCH  10  11
HETATM   11  C   LIG     1      18.897  39.298  22.046  1.00  0.00     0.022 C 
HETATM   12  C   LIG     1      18.844  39.540  20.541  1.00  0.00     0.007 C 
ENDBRANCH  10  11
ENDBRANCH   9  10
ENDBRANCH   7   9
ENDBRANCH   1   7
BRANCH   5  13
HETATM   13  O   LIG     1      14.240  33.681  21.352  1.00  0.00    -0.358 OA
HETATM   14  H   LIG     1      13.620  33.561  20.559  1.00  0.00     0.217 HD
ENDBRANCH   5  13
BRANCH   3  15
HETATM   15  O   LIG     1      17.556  36.173  18.860  1.00  0.00    -0.358 OA
HETATM   16  H   LIG     1      17.920  37.102  18.679  1.00  0.00     0.217 HD
ENDBRANCH   3  15
BRANCH   4  17
HETATM   17  O   LIG     1      15.435  34.318  18.935  1.00  0.00    -0.356 OA
HETATM   18  H   LIG     1      14.484  33.987  18.837  1.00  0.00     0.218 HD
ENDBRANCH   4  17
TORSDOF 7
ENDMDL
MODEL 20
REMARK VINA RESULT:      -5.0      9.264     11.634
REMARK  7 active torsions:
REMARK  status: ('A' for Active; 'I' for Inactive)
REMARK    1  A    between atoms: C_2  and  C_7 
REMARK    2  A    between atoms: C_2  and  O_3 
REMARK    3  A    between atoms: O_3  and  C_4 
REMARK    4  A    between atoms: C_4  and  C_5 
REMARK    5  A    between atoms: C_9  and  O_10 
REMARK    6  A    between atoms: C_11  and  O_12 
REMARK    7  A    between atoms: C_13  and  O_14 
ROOT
HETATM    1  C   LIG     1      14.852  30.229  14.672  1.00  0.00     0.044 A 
HETATM    2  C   LIG     1      13.469  30.088  14.467  1.00  0.00     0.057 A 
HETATM    3  C   LIG     1      12.951  28.936  13.858  1.00  0.00     0.102 A 
HETATM    4  C   LIG     1      13.819  27.911  13.445  1.00  0.00     0.132 A 
HETATM    5  C   LIG     1      15.199  28.045  13.645  1.00  0.00     0.102 A 
HETATM    6  C   LIG     1      15.712  29.198  14.255  1.00  0.00     0.057 A 
ENDROOT
BRANCH   1   7
HETATM    7  C   LIG     1      15.391  31.447  15.315  1.00  0.00     0.293 C 
HETATM    8  O   LIG     1      16.593  31.783  15.128  1.00  0.00    -0.259 OA
BRANCH   7   9
HETATM    9  O   LIG     1      14.564  32.224  16.138  1.00  0.00    -0.318 OA
BRANCH   9  10
HETATM   10  C   LIG     1      14.992  32.785  17.379  1.00  0.00     0.178 C 
BRANCH  10  11
HETATM   11  C   LIG     1      14.637  31.851  18.539  1.00  0.00     0.022 C 
HETATM   12  C   LIG     1      15.484  32.156  19.771  1.00  0.00     0.007 C 
ENDBRANCH  10  11
ENDBRANCH   9  10
ENDBRANCH   7   9
ENDBRANCH   1   7
BRANCH   5  13
HETATM   13  O   LIG     1      16.056  27.025  13.234  1.00  0.00    -0.358 OA
HETATM   14  H   LIG     1      16.325  26.918  12.262  1.00  0.00     0.217 HD
ENDBRANCH   5  13
BRANCH   3  15
HETATM   15  O   LIG     1      11.577  28.808  13.660  1.00  0.00    -0.358 OA
HETATM   16  H   LIG     1      11.006  28.221  14.258  1.00  0.00     0.217 HD
ENDBRANCH   3  15
BRANCH   4  17
HETATM   17  O   LIG     1      13.327  26.757  12.836  1.00  0.00    -0.356 OA
HETATM   18  H   LIG     1      12.858  26.779  11.939  1.00  0.00     0.218 HD
ENDBRANCH   4  17
TORSDOF 7
ENDMDL
