REMARK  3 active torsions:
REMARK  status: ('A' for Active; 'I' for Inactive)
REMARK    1  A    between atoms: C_2  and  C_3 
REMARK    2  A    between atoms: C_2  and  O_11 
REMARK    3  A    between atoms: C_8  and  O_9 
ROOT
HETATM    1  C   LIG     1       0.777  -0.550   0.197  1.00  0.00     0.039 A 
HETATM    2  C   LIG     1      -0.038  -1.695   0.167  1.00  0.00     0.020 A 
HETATM    3  C   LIG     1      -1.430  -1.573   0.148  1.00  0.00     0.038 A 
HETATM    4  C   LIG     1       0.170   0.717   0.207  1.00  0.00     0.020 A 
HETATM    5  C   LIG     1      -1.223   0.837   0.188  1.00  0.00     0.038 A 
HETATM    6  C   LIG     1      -2.035  -0.312   0.158  1.00  0.00     0.068 A 
ENDROOT
BRANCH   1   7
HETATM    7  C   LIG     1       2.252  -0.672   0.218  1.00  0.00     0.292 C 
HETATM    8  O   LIG     1       2.794  -1.812   0.208  1.00  0.00    -0.259 OA
BRANCH   7   9
HETATM    9  O   LIG     1       3.047   0.479   0.247  1.00  0.00    -0.323 OA
HETATM   10  C   LIG     1       4.468   0.431   0.268  1.00  0.00     0.213 C 
ENDBRANCH   7   9
ENDBRANCH   1   7
BRANCH   6  11
HETATM   11  O   LIG     1      -3.436  -0.243   0.138  1.00  0.00    -0.356 OA
HETATM   12  C   LIG     1      -4.182   0.970   0.145  1.00  0.00     0.210 C 
ENDBRANCH   6  11
TORSDOF 3
