MODEL 1
REMARK VINA RESULT:      -6.4      0.000      0.000
REMARK  4 active torsions:
REMARK  status: ('A' for Active; 'I' for Inactive)
REMARK    1  A    between atoms: O_1  and  C_2 
REMARK    2  A    between atoms: C_3  and  O_4 
REMARK    3  A    between atoms: C_7  and  C_8 
REMARK    4  A    between atoms: C_8  and  O_9 
ROOT
HETATM    1  C   LIG     1      18.162  38.218  21.781  1.00  0.00     0.099 A 
HETATM    2  C   LIG     1      17.132  37.877  22.688  1.00  0.00     0.102 A 
HETATM    3  C   LIG     1      16.341  36.749  22.433  1.00  0.00     0.057 A 
HETATM    4  C   LIG     1      16.502  35.999  21.256  1.00  0.00     0.040 A 
HETATM    5  C   LIG     1      17.495  36.382  20.338  1.00  0.00     0.021 A 
HETATM    6  C   LIG     1      18.313  37.481  20.602  1.00  0.00     0.040 A 
ENDROOT
BRANCH   4   7
HETATM    7  C   LIG     1      15.639  34.818  21.004  1.00  0.00     0.176 C 
HETATM    8  O   LIG     1      16.075  33.863  20.308  1.00  0.00    -0.646 OA
BRANCH   7   9
HETATM    9  O   LIG     1      14.352  34.722  21.533  1.00  0.00    -0.773 OA
HETATM   10  H   LIG     1      13.683  35.478  21.481  1.00  0.00     0.167 HD
ENDBRANCH   7   9
ENDBRANCH   4   7
BRANCH   2  11
HETATM   11  O   LIG     1      16.853  38.618  23.845  1.00  0.00    -0.353 OA
HETATM   12  C   LIG     1      17.276  38.246  25.153  1.00  0.00     0.210 C 
ENDBRANCH   2  11
BRANCH   1  13
HETATM   13  O   LIG     1      19.073  39.243  22.034  1.00  0.00    -0.358 OA
HETATM   14  H   LIG     1      18.926  40.195  21.731  1.00  0.00     0.217 HD
ENDBRANCH   1  13
TORSDOF 4
ENDMDL
MODEL 2
REMARK VINA RESULT:      -6.4      1.871      4.052
REMARK  4 active torsions:
REMARK  status: ('A' for Active; 'I' for Inactive)
REMARK    1  A    between atoms: O_1  and  C_2 
REMARK    2  A    between atoms: C_3  and  O_4 
REMARK    3  A    between atoms: C_7  and  C_8 
REMARK    4  A    between atoms: C_8  and  O_9 
ROOT
HETATM    1  C   LIG     1      17.145  36.687  21.901  1.00  0.00     0.099 A 
HETATM    2  C   LIG     1      17.367  38.050  22.209  1.00  0.00     0.102 A 
HETATM    3  C   LIG     1      18.066  38.852  21.298  1.00  0.00     0.057 A 
HETATM    4  C   LIG     1      18.616  38.309  20.124  1.00  0.00     0.040 A 
HETATM    5  C   LIG     1      18.432  36.942  19.858  1.00  0.00     0.021 A 
HETATM    6  C   LIG     1      17.705  36.143  20.741  1.00  0.00     0.040 A 
ENDROOT
BRANCH   4   7
HETATM    7  C   LIG     1      19.366  39.180  19.184  1.00  0.00     0.176 C 
HETATM    8  O   LIG     1      18.742  39.834  18.306  1.00  0.00    -0.646 OA
BRANCH   7   9
HETATM    9  O   LIG     1      20.753  39.313  19.252  1.00  0.00    -0.773 OA
HETATM   10  H   LIG     1      21.346  38.623  19.693  1.00  0.00     0.167 HD
ENDBRANCH   7   9
ENDBRANCH   4   7
BRANCH   2  11
HETATM   11  O   LIG     1      16.923  38.650  23.396  1.00  0.00    -0.353 OA
HETATM   12  C   LIG     1      17.410  38.313  24.691  1.00  0.00     0.210 C 
ENDBRANCH   2  11
BRANCH   1  13
HETATM   13  O   LIG     1      16.347  35.862  22.693  1.00  0.00    -0.358 OA
HETATM   14  H   LIG     1      15.715  36.218  23.395  1.00  0.00     0.217 HD
ENDBRANCH   1  13
TORSDOF 4
ENDMDL
MODEL 3
REMARK VINA RESULT:      -6.4      1.876      4.023
REMARK  4 active torsions:
REMARK  status: ('A' for Active; 'I' for Inactive)
REMARK    1  A    between atoms: O_1  and  C_2 
REMARK    2  A    between atoms: C_3  and  O_4 
REMARK    3  A    between atoms: C_7  and  C_8 
REMARK    4  A    between atoms: C_8  and  O_9 
ROOT
HETATM    1  C   LIG     1      17.633  36.571  20.729  1.00  0.00     0.099 A 
HETATM    2  C   LIG     1      17.925  37.846  21.265  1.00  0.00     0.102 A 
HETATM    3  C   LIG     1      17.765  38.064  22.640  1.00  0.00     0.057 A 
HETATM    4  C   LIG     1      17.246  37.062  23.479  1.00  0.00     0.040 A 
HETATM    5  C   LIG     1      16.912  35.817  22.922  1.00  0.00     0.021 A 
HETATM    6  C   LIG     1      17.104  35.579  21.560  1.00  0.00     0.040 A 
ENDROOT
BRANCH   4   7
HETATM    7  C   LIG     1      17.072  37.326  24.929  1.00  0.00     0.176 C 
HETATM    8  O   LIG     1      16.781  38.488  25.322  1.00  0.00    -0.646 OA
BRANCH   7   9
HETATM    9  O   LIG     1      17.204  36.316  25.882  1.00  0.00    -0.773 OA
HETATM   10  H   LIG     1      16.624  35.488  25.883  1.00  0.00     0.167 HD
ENDBRANCH   7   9
ENDBRANCH   4   7
BRANCH   2  11
HETATM   11  O   LIG     1      18.369  38.923  20.485  1.00  0.00    -0.353 OA
HETATM   12  C   LIG     1      19.726  39.122  20.098  1.00  0.00     0.210 C 
ENDBRANCH   2  11
BRANCH   1  13
HETATM   13  O   LIG     1      17.894  36.240  19.400  1.00  0.00    -0.358 OA
HETATM   14  H   LIG     1      18.439  36.827  18.785  1.00  0.00     0.217 HD
ENDBRANCH   1  13
TORSDOF 4
ENDMDL
MODEL 4
REMARK VINA RESULT:      -6.4      2.048      2.812
REMARK  4 active torsions:
REMARK  status: ('A' for Active; 'I' for Inactive)
REMARK    1  A    between atoms: O_1  and  C_2 
REMARK    2  A    between atoms: C_3  and  O_4 
REMARK    3  A    between atoms: C_7  and  C_8 
REMARK    4  A    between atoms: C_8  and  O_9 
ROOT
HETATM    1  C   LIG     1      17.252  37.717  24.541  1.00  0.00     0.099 A 
HETATM    2  C   LIG     1      17.169  36.311  24.416  1.00  0.00     0.102 A 
HETATM    3  C   LIG     1      17.162  35.736  23.139  1.00  0.00     0.057 A 
HETATM    4  C   LIG     1      17.156  36.535  21.982  1.00  0.00     0.040 A 
HETATM    5  C   LIG     1      17.186  37.932  22.123  1.00  0.00     0.021 A 
HETATM    6  C   LIG     1      17.232  38.513  23.391  1.00  0.00     0.040 A 
ENDROOT
BRANCH   4   7
HETATM    7  C   LIG     1      17.132  35.899  20.641  1.00  0.00     0.176 C 
HETATM    8  O   LIG     1      17.935  36.287  19.751  1.00  0.00    -0.646 OA
BRANCH   7   9
HETATM    9  O   LIG     1      16.251  34.861  20.336  1.00  0.00    -0.773 OA
HETATM   10  H   LIG     1      15.700  34.846  19.488  1.00  0.00     0.167 HD
ENDBRANCH   7   9
ENDBRANCH   4   7
BRANCH   2  11
HETATM   11  O   LIG     1      17.089  35.447  25.518  1.00  0.00    -0.353 OA
HETATM   12  C   LIG     1      18.221  34.948  26.224  1.00  0.00     0.210 C 
ENDBRANCH   2  11
BRANCH   1  13
HETATM   13  O   LIG     1      17.399  38.352  25.774  1.00  0.00    -0.358 OA
HETATM   14  H   LIG     1      17.573  37.851  26.632  1.00  0.00     0.217 HD
ENDBRANCH   1  13
TORSDOF 4
ENDMDL
MODEL 5
REMARK VINA RESULT:      -6.3      2.022      4.672
REMARK  4 active torsions:
REMARK  status: ('A' for Active; 'I' for Inactive)
REMARK    1  A    between atoms: O_1  and  C_2 
REMARK    2  A    between atoms: C_3  and  O_4 
REMARK    3  A    between atoms: C_7  and  C_8 
REMARK    4  A    between atoms: C_8  and  O_9 
ROOT
HETATM    1  C   LIG     1      17.379  37.477  22.306  1.00  0.00     0.099 A 
HETATM    2  C   LIG     1      17.569  36.702  21.139  1.00  0.00     0.102 A 
HETATM    3  C   LIG     1      18.303  37.239  20.073  1.00  0.00     0.057 A 
HETATM    4  C   LIG     1      18.783  38.559  20.113  1.00  0.00     0.040 A 
HETATM    5  C   LIG     1      18.541  39.335  21.259  1.00  0.00     0.021 A 
HETATM    6  C   LIG     1      17.844  38.795  22.341  1.00  0.00     0.040 A 
ENDROOT
BRANCH   4   7
HETATM    7  C   LIG     1      19.544  39.107  18.962  1.00  0.00     0.176 C 
HETATM    8  O   LIG     1      18.943  39.372  17.886  1.00  0.00    -0.646 OA
BRANCH   7   9
HETATM    9  O   LIG     1      20.914  39.358  19.038  1.00  0.00    -0.773 OA
HETATM   10  H   LIG     1      21.363  39.684  19.883  1.00  0.00     0.167 HD
ENDBRANCH   7   9
ENDBRANCH   4   7
BRANCH   2  11
HETATM   11  O   LIG     1      17.054  35.407  20.986  1.00  0.00    -0.353 OA
HETATM   12  C   LIG     1      15.763  35.120  20.456  1.00  0.00     0.210 C 
ENDBRANCH   2  11
BRANCH   1  13
HETATM   13  O   LIG     1      16.777  36.964  23.455  1.00  0.00    -0.358 OA
HETATM   14  H   LIG     1      16.858  35.997  23.732  1.00  0.00     0.217 HD
ENDBRANCH   1  13
TORSDOF 4
ENDMDL
MODEL 6
REMARK VINA RESULT:      -6.3      2.719      4.262
REMARK  4 active torsions:
REMARK  status: ('A' for Active; 'I' for Inactive)
REMARK    1  A    between atoms: O_1  and  C_2 
REMARK    2  A    between atoms: C_3  and  O_4 
REMARK    3  A    between atoms: C_7  and  C_8 
REMARK    4  A    between atoms: C_8  and  O_9 
ROOT
HETATM    1  C   LIG     1      17.144  38.145  23.347  1.00  0.00     0.099 A 
HETATM    2  C   LIG     1      16.978  36.808  22.916  1.00  0.00     0.102 A 
HETATM    3  C   LIG     1      17.096  35.769  23.849  1.00  0.00     0.057 A 
HETATM    4  C   LIG     1      17.454  36.027  25.183  1.00  0.00     0.040 A 
HETATM    5  C   LIG     1      17.668  37.356  25.583  1.00  0.00     0.021 A 
HETATM    6  C   LIG     1      17.515  38.401  24.670  1.00  0.00     0.040 A 
ENDROOT
BRANCH   4   7
HETATM    7  C   LIG     1      17.588  34.905  26.145  1.00  0.00     0.176 C 
HETATM    8  O   LIG     1      18.734  34.529  26.511  1.00  0.00    -0.646 OA
BRANCH   7   9
HETATM    9  O   LIG     1      16.475  34.255  26.678  1.00  0.00    -0.773 OA
HETATM   10  H   LIG     1      16.237  33.300  26.445  1.00  0.00     0.167 HD
ENDBRANCH   7   9
ENDBRANCH   4   7
BRANCH   2  11
HETATM   11  O   LIG     1      16.700  36.460  21.587  1.00  0.00    -0.353 OA
HETATM   12  C   LIG     1      17.689  36.343  20.569  1.00  0.00     0.210 C 
ENDBRANCH   2  11
BRANCH   1  13
HETATM   13  O   LIG     1      16.911  39.235  22.510  1.00  0.00    -0.358 OA
HETATM   14  H   LIG     1      16.858  40.185  22.847  1.00  0.00     0.217 HD
ENDBRANCH   1  13
TORSDOF 4
ENDMDL
MODEL 7
REMARK VINA RESULT:      -6.3      1.475      4.120
REMARK  4 active torsions:
REMARK  status: ('A' for Active; 'I' for Inactive)
REMARK    1  A    between atoms: O_1  and  C_2 
REMARK    2  A    between atoms: C_3  and  O_4 
REMARK    3  A    between atoms: C_7  and  C_8 
REMARK    4  A    between atoms: C_8  and  O_9 
ROOT
HETATM    1  C   LIG     1      18.036  36.970  19.902  1.00  0.00     0.099 A 
HETATM    2  C   LIG     1      17.203  36.144  20.692  1.00  0.00     0.102 A 
HETATM    3  C   LIG     1      16.914  36.524  22.009  1.00  0.00     0.057 A 
HETATM    4  C   LIG     1      17.499  37.666  22.582  1.00  0.00     0.040 A 
HETATM    5  C   LIG     1      18.366  38.448  21.801  1.00  0.00     0.021 A 
HETATM    6  C   LIG     1      18.630  38.098  20.476  1.00  0.00     0.040 A 
ENDROOT
BRANCH   4   7
HETATM    7  C   LIG     1      17.187  38.036  23.985  1.00  0.00     0.176 C 
HETATM    8  O   LIG     1      15.986  38.099  24.362  1.00  0.00    -0.646 OA
BRANCH   7   9
HETATM    9  O   LIG     1      18.191  38.302  24.916  1.00  0.00    -0.773 OA
HETATM   10  H   LIG     1      18.517  39.238  25.114  1.00  0.00     0.167 HD
ENDBRANCH   7   9
ENDBRANCH   4   7
BRANCH   2  11
HETATM   11  O   LIG     1      16.645  34.946  20.224  1.00  0.00    -0.353 OA
HETATM   12  C   LIG     1      15.592  34.247  20.880  1.00  0.00     0.210 C 
ENDBRANCH   2  11
BRANCH   1  13
HETATM   13  O   LIG     1      18.261  36.729  18.547  1.00  0.00    -0.358 OA
HETATM   14  H   LIG     1      18.029  37.394  17.825  1.00  0.00     0.217 HD
ENDBRANCH   1  13
TORSDOF 4
ENDMDL
MODEL 8
REMARK VINA RESULT:      -6.0      1.347      2.468
REMARK  4 active torsions:
REMARK  status: ('A' for Active; 'I' for Inactive)
REMARK    1  A    between atoms: O_1  and  C_2 
REMARK    2  A    between atoms: C_3  and  O_4 
REMARK    3  A    between atoms: C_7  and  C_8 
REMARK    4  A    between atoms: C_8  and  O_9 
ROOT
HETATM    1  C   LIG     1      17.621  37.308  24.285  1.00  0.00     0.099 A 
HETATM    2  C   LIG     1      17.292  37.806  23.002  1.00  0.00     0.102 A 
HETATM    3  C   LIG     1      16.630  36.970  22.093  1.00  0.00     0.057 A 
HETATM    4  C   LIG     1      16.360  35.626  22.405  1.00  0.00     0.040 A 
HETATM    5  C   LIG     1      16.741  35.132  23.663  1.00  0.00     0.021 A 
HETATM    6  C   LIG     1      17.366  35.968  24.589  1.00  0.00     0.040 A 
ENDROOT
BRANCH   4   7
HETATM    7  C   LIG     1      15.672  34.759  21.416  1.00  0.00     0.176 C 
HETATM    8  O   LIG     1      16.313  34.306  20.430  1.00  0.00    -0.646 OA
BRANCH   7   9
HETATM    9  O   LIG     1      14.328  34.412  21.552  1.00  0.00    -0.773 OA
HETATM   10  H   LIG     1      13.663  34.501  20.796  1.00  0.00     0.167 HD
ENDBRANCH   7   9
ENDBRANCH   4   7
BRANCH   2  11
HETATM   11  O   LIG     1      17.598  39.108  22.583  1.00  0.00    -0.353 OA
HETATM   12  C   LIG     1      18.519  39.415  21.541  1.00  0.00     0.210 C 
ENDBRANCH   2  11
BRANCH   1  13
HETATM   13  O   LIG     1      18.158  38.117  25.286  1.00  0.00    -0.358 OA
HETATM   14  H   LIG     1      18.485  39.057  25.116  1.00  0.00     0.217 HD
ENDBRANCH   1  13
TORSDOF 4
ENDMDL
MODEL 9
REMARK VINA RESULT:      -6.0      1.131      2.787
REMARK  4 active torsions:
REMARK  status: ('A' for Active; 'I' for Inactive)
REMARK    1  A    between atoms: O_1  and  C_2 
REMARK    2  A    between atoms: C_3  and  O_4 
REMARK    3  A    between atoms: C_7  and  C_8 
REMARK    4  A    between atoms: C_8  and  O_9 
ROOT
HETATM    1  C   LIG     1      17.988  38.454  21.732  1.00  0.00     0.099 A 
HETATM    2  C   LIG     1      18.311  37.580  20.668  1.00  0.00     0.102 A 
HETATM    3  C   LIG     1      17.517  36.446  20.449  1.00  0.00     0.057 A 
HETATM    4  C   LIG     1      16.457  36.122  21.314  1.00  0.00     0.040 A 
HETATM    5  C   LIG     1      16.182  36.973  22.397  1.00  0.00     0.021 A 
HETATM    6  C   LIG     1      16.943  38.125  22.601  1.00  0.00     0.040 A 
ENDROOT
BRANCH   4   7
HETATM    7  C   LIG     1      15.644  34.906  21.067  1.00  0.00     0.176 C 
HETATM    8  O   LIG     1      16.139  33.943  20.421  1.00  0.00    -0.646 OA
BRANCH   7   9
HETATM    9  O   LIG     1      14.340  34.784  21.546  1.00  0.00    -0.773 OA
HETATM   10  H   LIG     1      14.080  34.115  22.258  1.00  0.00     0.167 HD
ENDBRANCH   7   9
ENDBRANCH   4   7
BRANCH   2  11
HETATM   11  O   LIG     1      19.399  37.787  19.809  1.00  0.00    -0.353 OA
HETATM   12  C   LIG     1      19.419  38.755  18.765  1.00  0.00     0.210 C 
ENDBRANCH   2  11
BRANCH   1  13
HETATM   13  O   LIG     1      18.646  39.667  21.930  1.00  0.00    -0.358 OA
HETATM   14  H   LIG     1      19.292  40.057  21.259  1.00  0.00     0.217 HD
ENDBRANCH   1  13
TORSDOF 4
ENDMDL
MODEL 10
REMARK VINA RESULT:      -5.0      1.912      4.646
REMARK  4 active torsions:
REMARK  status: ('A' for Active; 'I' for Inactive)
REMARK    1  A    between atoms: O_1  and  C_2 
REMARK    2  A    between atoms: C_3  and  O_4 
REMARK    3  A    between atoms: C_7  and  C_8 
REMARK    4  A    between atoms: C_8  and  O_9 
ROOT
HETATM    1  C   LIG     1      16.311  35.225  19.853  1.00  0.00     0.099 A 
HETATM    2  C   LIG     1      15.765  34.362  20.832  1.00  0.00     0.102 A 
HETATM    3  C   LIG     1      16.011  34.622  22.187  1.00  0.00     0.057 A 
HETATM    4  C   LIG     1      16.852  35.676  22.584  1.00  0.00     0.040 A 
HETATM    5  C   LIG     1      17.430  36.492  21.597  1.00  0.00     0.021 A 
HETATM    6  C   LIG     1      17.160  36.264  20.247  1.00  0.00     0.040 A 
ENDROOT
BRANCH   4   7
HETATM    7  C   LIG     1      17.108  35.917  24.026  1.00  0.00     0.176 C 
HETATM    8  O   LIG     1      17.045  37.090  24.483  1.00  0.00    -0.646 OA
BRANCH   7   9
HETATM    9  O   LIG     1      17.403  34.876  24.905  1.00  0.00    -0.773 OA
HETATM   10  H   LIG     1      17.273  34.952  25.905  1.00  0.00     0.167 HD
ENDBRANCH   7   9
ENDBRANCH   4   7
BRANCH   2  11
HETATM   11  O   LIG     1      14.983  33.243  20.517  1.00  0.00    -0.353 OA
HETATM   12  C   LIG     1      15.465  32.108  19.803  1.00  0.00     0.210 C 
ENDBRANCH   2  11
BRANCH   1  13
HETATM   13  O   LIG     1      16.002  35.110  18.498  1.00  0.00    -0.358 OA
HETATM   14  H   LIG     1      15.601  35.864  17.960  1.00  0.00     0.217 HD
ENDBRANCH   1  13
TORSDOF 4
ENDMDL
MODEL 11
REMARK VINA RESULT:      -4.7      2.257      4.299
REMARK  4 active torsions:
REMARK  status: ('A' for Active; 'I' for Inactive)
REMARK    1  A    between atoms: O_1  and  C_2 
REMARK    2  A    between atoms: C_3  and  O_4 
REMARK    3  A    between atoms: C_7  and  C_8 
REMARK    4  A    between atoms: C_8  and  O_9 
ROOT
HETATM    1  C   LIG     1      17.318  36.625  21.359  1.00  0.00     0.099 A 
HETATM    2  C   LIG     1      17.050  35.330  21.862  1.00  0.00     0.102 A 
HETATM    3  C   LIG     1      17.020  35.126  23.247  1.00  0.00     0.057 A 
HETATM    4  C   LIG     1      17.328  36.166  24.142  1.00  0.00     0.040 A 
HETATM    5  C   LIG     1      17.644  37.433  23.626  1.00  0.00     0.021 A 
HETATM    6  C   LIG     1      17.639  37.655  22.248  1.00  0.00     0.040 A 
ENDROOT
BRANCH   4   7
HETATM    7  C   LIG     1      17.304  35.917  25.605  1.00  0.00     0.176 C 
HETATM    8  O   LIG     1      17.133  34.745  26.037  1.00  0.00    -0.646 OA
BRANCH   7   9
HETATM    9  O   LIG     1      17.484  36.946  26.529  1.00  0.00    -0.773 OA
HETATM   10  H   LIG     1      18.360  37.440  26.631  1.00  0.00     0.167 HD
ENDBRANCH   7   9
ENDBRANCH   4   7
BRANCH   2  11
HETATM   11  O   LIG     1      16.813  34.222  21.037  1.00  0.00    -0.353 OA
HETATM   12  C   LIG     1      15.533  33.873  20.518  1.00  0.00     0.210 C 
ENDBRANCH   2  11
BRANCH   1  13
HETATM   13  O   LIG     1      17.233  36.933  20.002  1.00  0.00    -0.358 OA
HETATM   14  H   LIG     1      17.876  36.568  19.315  1.00  0.00     0.217 HD
ENDBRANCH   1  13
TORSDOF 4
ENDMDL
MODEL 12
REMARK VINA RESULT:      -4.1      5.793      7.569
REMARK  4 active torsions:
REMARK  status: ('A' for Active; 'I' for Inactive)
REMARK    1  A    between atoms: O_1  and  C_2 
REMARK    2  A    between atoms: C_3  and  O_4 
REMARK    3  A    between atoms: C_7  and  C_8 
REMARK    4  A    between atoms: C_8  and  O_9 
ROOT
HETATM    1  C   LIG     1      15.218  33.466  17.767  1.00  0.00     0.099 A 
HETATM    2  C   LIG     1      14.705  32.251  18.278  1.00  0.00     0.102 A 
HETATM    3  C   LIG     1      14.419  31.203  17.393  1.00  0.00     0.057 A 
HETATM    4  C   LIG     1      14.560  31.366  16.004  1.00  0.00     0.040 A 
HETATM    5  C   LIG     1      15.021  32.597  15.509  1.00  0.00     0.021 A 
HETATM    6  C   LIG     1      15.344  33.634  16.385  1.00  0.00     0.040 A 
ENDROOT
BRANCH   4   7
HETATM    7  C   LIG     1      14.235  30.243  15.089  1.00  0.00     0.176 C 
HETATM    8  O   LIG     1      13.036  30.029  14.765  1.00  0.00    -0.646 OA
BRANCH   7   9
HETATM    9  O   LIG     1      15.226  29.418  14.557  1.00  0.00    -0.773 OA
HETATM   10  H   LIG     1      15.098  28.895  13.701  1.00  0.00     0.167 HD
ENDBRANCH   7   9
ENDBRANCH   4   7
BRANCH   2  11
HETATM   11  O   LIG     1      14.458  32.036  19.641  1.00  0.00    -0.353 OA
HETATM   12  C   LIG     1      14.918  30.898  20.365  1.00  0.00     0.210 C 
ENDBRANCH   2  11
BRANCH   1  13
HETATM   13  O   LIG     1      15.649  34.503  18.595  1.00  0.00    -0.358 OA
HETATM   14  H   LIG     1      15.486  34.515  19.591  1.00  0.00     0.217 HD
ENDBRANCH   1  13
TORSDOF 4
ENDMDL
MODEL 13
REMARK VINA RESULT:      -3.7     17.626     18.554
REMARK  4 active torsions:
REMARK  status: ('A' for Active; 'I' for Inactive)
REMARK    1  A    between atoms: O_1  and  C_2 
REMARK    2  A    between atoms: C_3  and  O_4 
REMARK    3  A    between atoms: C_7  and  C_8 
REMARK    4  A    between atoms: C_8  and  O_9 
ROOT
HETATM    1  C   LIG     1      28.166  29.972  33.811  1.00  0.00     0.099 A 
HETATM    2  C   LIG     1      27.010  29.233  34.157  1.00  0.00     0.102 A 
HETATM    3  C   LIG     1      26.324  29.550  35.336  1.00  0.00     0.057 A 
HETATM    4  C   LIG     1      26.806  30.534  36.217  1.00  0.00     0.040 A 
HETATM    5  C   LIG     1      27.984  31.222  35.885  1.00  0.00     0.021 A 
HETATM    6  C   LIG     1      28.654  30.940  34.694  1.00  0.00     0.040 A 
ENDROOT
BRANCH   4   7
HETATM    7  C   LIG     1      26.066  30.837  37.467  1.00  0.00     0.176 C 
HETATM    8  O   LIG     1      26.247  31.941  38.048  1.00  0.00    -0.646 OA
BRANCH   7   9
HETATM    9  O   LIG     1      25.154  29.937  38.019  1.00  0.00    -0.773 OA
HETATM   10  H   LIG     1      24.207  30.198  38.257  1.00  0.00     0.167 HD
ENDBRANCH   7   9
ENDBRANCH   4   7
BRANCH   2  11
HETATM   11  O   LIG     1      26.509  28.184  33.375  1.00  0.00    -0.353 OA
HETATM   12  C   LIG     1      26.729  26.804  33.655  1.00  0.00     0.210 C 
ENDBRANCH   2  11
BRANCH   1  13
HETATM   13  O   LIG     1      28.824  29.805  32.593  1.00  0.00    -0.358 OA
HETATM   14  H   LIG     1      29.777  30.098  32.438  1.00  0.00     0.217 HD
ENDBRANCH   1  13
TORSDOF 4
ENDMDL
MODEL 14
REMARK VINA RESULT:      -3.6     17.256     17.991
REMARK  4 active torsions:
REMARK  status: ('A' for Active; 'I' for Inactive)
REMARK    1  A    between atoms: O_1  and  C_2 
REMARK    2  A    between atoms: C_3  and  O_4 
REMARK    3  A    between atoms: C_7  and  C_8 
REMARK    4  A    between atoms: C_8  and  O_9 
ROOT
HETATM    1  C   LIG     1      28.013  30.835  35.520  1.00  0.00     0.099 A 
HETATM    2  C   LIG     1      26.773  30.160  35.610  1.00  0.00     0.102 A 
HETATM    3  C   LIG     1      26.469  29.161  34.677  1.00  0.00     0.057 A 
HETATM    4  C   LIG     1      27.338  28.872  33.611  1.00  0.00     0.040 A 
HETATM    5  C   LIG     1      28.542  29.588  33.505  1.00  0.00     0.021 A 
HETATM    6  C   LIG     1      28.871  30.559  34.451  1.00  0.00     0.040 A 
ENDROOT
BRANCH   4   7
HETATM    7  C   LIG     1      26.982  27.819  32.627  1.00  0.00     0.176 C 
HETATM    8  O   LIG     1      27.860  27.377  31.839  1.00  0.00    -0.646 OA
BRANCH   7   9
HETATM    9  O   LIG     1      25.696  27.283  32.557  1.00  0.00    -0.773 OA
HETATM   10  H   LIG     1      25.109  27.379  31.739  1.00  0.00     0.167 HD
ENDBRANCH   7   9
ENDBRANCH   4   7
BRANCH   2  11
HETATM   11  O   LIG     1      25.816  30.444  36.594  1.00  0.00    -0.353 OA
HETATM   12  C   LIG     1      25.836  29.895  37.908  1.00  0.00     0.210 C 
ENDBRANCH   2  11
BRANCH   1  13
HETATM   13  O   LIG     1      28.442  31.743  36.487  1.00  0.00    -0.358 OA
HETATM   14  H   LIG     1      28.154  31.695  37.453  1.00  0.00     0.217 HD
ENDBRANCH   1  13
TORSDOF 4
ENDMDL
MODEL 15
REMARK VINA RESULT:      -3.4      2.958      5.938
REMARK  4 active torsions:
REMARK  status: ('A' for Active; 'I' for Inactive)
REMARK    1  A    between atoms: O_1  and  C_2 
REMARK    2  A    between atoms: C_3  and  O_4 
REMARK    3  A    between atoms: C_7  and  C_8 
REMARK    4  A    between atoms: C_8  and  O_9 
ROOT
HETATM    1  C   LIG     1      14.965  33.085  17.950  1.00  0.00     0.099 A 
HETATM    2  C   LIG     1      14.952  32.482  19.229  1.00  0.00     0.102 A 
HETATM    3  C   LIG     1      15.317  33.244  20.347  1.00  0.00     0.057 A 
HETATM    4  C   LIG     1      15.768  34.567  20.210  1.00  0.00     0.040 A 
HETATM    5  C   LIG     1      15.825  35.135  18.927  1.00  0.00     0.021 A 
HETATM    6  C   LIG     1      15.428  34.397  17.811  1.00  0.00     0.040 A 
ENDROOT
BRANCH   4   7
HETATM    7  C   LIG     1      16.163  35.345  21.411  1.00  0.00     0.176 C 
HETATM    8  O   LIG     1      17.206  35.029  22.044  1.00  0.00    -0.646 OA
BRANCH   7   9
HETATM    9  O   LIG     1      15.418  36.436  21.859  1.00  0.00    -0.773 OA
HETATM   10  H   LIG     1      15.816  37.171  22.428  1.00  0.00     0.167 HD
ENDBRANCH   7   9
ENDBRANCH   4   7
BRANCH   2  11
HETATM   11  O   LIG     1      14.593  31.144  19.443  1.00  0.00    -0.353 OA
HETATM   12  C   LIG     1      14.829  30.439  20.658  1.00  0.00     0.210 C 
ENDBRANCH   2  11
BRANCH   1  13
HETATM   13  O   LIG     1      14.490  32.434  16.812  1.00  0.00    -0.358 OA
HETATM   14  H   LIG     1      13.581  32.618  16.413  1.00  0.00     0.217 HD
ENDBRANCH   1  13
TORSDOF 4
ENDMDL
