REMARK  4 active torsions:
REMARK  status: ('A' for Active; 'I' for Inactive)
REMARK    1  A    between atoms: O_1  and  C_2 
REMARK    2  A    between atoms: C_3  and  O_4 
REMARK    3  A    between atoms: C_7  and  C_8 
REMARK    4  A    between atoms: C_8  and  O_9 
ROOT
HETATM    1  C   LIG     1      -0.681  -1.157   0.286  1.00  0.00     0.099 A 
HETATM    2  C   LIG     1      -0.713  -0.027  -0.564  1.00  0.00     0.102 A 
HETATM    3  C   LIG     1       0.457   0.720  -0.753  1.00  0.00     0.057 A 
HETATM    4  C   LIG     1       1.637   0.413  -0.054  1.00  0.00     0.040 A 
HETATM    5  C   LIG     1       1.638  -0.681   0.827  1.00  0.00     0.021 A 
HETATM    6  C   LIG     1       0.488  -1.454   0.993  1.00  0.00     0.040 A 
ENDROOT
BRANCH   4   7
HETATM    7  C   LIG     1       2.857   1.232  -0.262  1.00  0.00     0.176 C 
HETATM    8  O   LIG     1       2.979   1.915  -1.314  1.00  0.00    -0.646 OA
BRANCH   7   9
HETATM    9  O   LIG     1       3.878   1.285   0.687  1.00  0.00    -0.773 OA
HETATM   10  H   LIG     1       3.802   0.847   1.595  1.00  0.00     0.167 HD
ENDBRANCH   7   9
ENDBRANCH   4   7
BRANCH   2  11
HETATM   11  O   LIG     1      -1.869   0.395  -1.235  1.00  0.00    -0.353 OA
HETATM   12  C   LIG     1      -3.146   0.528  -0.618  1.00  0.00     0.210 C 
ENDBRANCH   2  11
BRANCH   1  13
HETATM   13  O   LIG     1      -1.765  -2.024   0.419  1.00  0.00    -0.358 OA
HETATM   14  H   LIG     1      -2.562  -2.006  -0.200  1.00  0.00     0.217 HD
ENDBRANCH   1  13
TORSDOF 4
