MODEL 1
REMARK VINA RESULT:      -6.2      0.000      0.000
REMARK  1 active torsions:
REMARK  status: ('A' for Active; 'I' for Inactive)
REMARK    1  A    between atoms: N_2  and  C_4 
ROOT
HETATM    1  C   LIG     1      17.277  36.737  24.202  1.00  0.00     0.029 A 
HETATM    2  C   LIG     1      17.153  35.353  24.453  1.00  0.00     0.029 A 
HETATM    3  C   LIG     1      17.656  34.790  25.631  1.00  0.00     0.002 A 
HETATM    4  C   LIG     1      18.288  35.597  26.578  1.00  0.00     0.000 A 
HETATM    5  C   LIG     1      18.421  36.966  26.349  1.00  0.00     0.002 A 
HETATM    6  C   LIG     1      17.923  37.535  25.174  1.00  0.00     0.029 A 
ENDROOT
BRANCH   1   7
HETATM    7  N   LIG     1      16.757  37.324  22.977  1.00  0.00    -0.390 N 
HETATM    8  C   LIG     1      16.019  36.503  22.008  1.00  0.00     0.149 C 
HETATM    9  C   LIG     1      16.970  38.747  22.682  1.00  0.00     0.149 C 
ENDBRANCH   1   7
TORSDOF 1
ENDMDL
MODEL 2
REMARK VINA RESULT:      -6.1      0.013      1.613
REMARK  1 active torsions:
REMARK  status: ('A' for Active; 'I' for Inactive)
REMARK    1  A    between atoms: N_2  and  C_4 
ROOT
HETATM    1  C   LIG     1      17.280  36.742  24.206  1.00  0.00     0.029 A 
HETATM    2  C   LIG     1      17.931  37.536  25.176  1.00  0.00     0.029 A 
HETATM    3  C   LIG     1      18.434  36.965  26.350  1.00  0.00     0.002 A 
HETATM    4  C   LIG     1      18.296  35.595  26.577  1.00  0.00     0.000 A 
HETATM    5  C   LIG     1      17.656  34.793  25.633  1.00  0.00     0.002 A 
HETATM    6  C   LIG     1      17.151  35.356  24.458  1.00  0.00     0.029 A 
ENDROOT
BRANCH   1   7
HETATM    7  N   LIG     1      16.755  37.333  22.986  1.00  0.00    -0.390 N 
HETATM    8  C   LIG     1      16.025  36.512  22.011  1.00  0.00     0.149 C 
HETATM    9  C   LIG     1      16.953  38.760  22.702  1.00  0.00     0.149 C 
ENDBRANCH   1   7
TORSDOF 1
ENDMDL
MODEL 3
REMARK VINA RESULT:      -5.8      2.781      5.028
REMARK  1 active torsions:
REMARK  status: ('A' for Active; 'I' for Inactive)
REMARK    1  A    between atoms: N_2  and  C_4 
ROOT
HETATM    1  C   LIG     1      17.738  37.446  21.330  1.00  0.00     0.029 A 
HETATM    2  C   LIG     1      18.188  38.779  21.460  1.00  0.00     0.029 A 
HETATM    3  C   LIG     1      19.113  39.314  20.558  1.00  0.00     0.002 A 
HETATM    4  C   LIG     1      19.606  38.532  19.513  1.00  0.00     0.000 A 
HETATM    5  C   LIG     1      19.175  37.214  19.367  1.00  0.00     0.002 A 
HETATM    6  C   LIG     1      18.252  36.672  20.264  1.00  0.00     0.029 A 
ENDROOT
BRANCH   1   7
HETATM    7  N   LIG     1      16.778  36.886  22.267  1.00  0.00    -0.390 N 
HETATM    8  C   LIG     1      15.741  37.733  22.872  1.00  0.00     0.149 C 
HETATM    9  C   LIG     1      16.833  35.464  22.633  1.00  0.00     0.149 C 
ENDBRANCH   1   7
TORSDOF 1
ENDMDL
MODEL 4
REMARK VINA RESULT:      -5.8      2.802      4.680
REMARK  1 active torsions:
REMARK  status: ('A' for Active; 'I' for Inactive)
REMARK    1  A    between atoms: N_2  and  C_4 
ROOT
HETATM    1  C   LIG     1      17.735  37.438  21.332  1.00  0.00     0.029 A 
HETATM    2  C   LIG     1      18.261  36.661  20.276  1.00  0.00     0.029 A 
HETATM    3  C   LIG     1      19.186  37.204  19.378  1.00  0.00     0.002 A 
HETATM    4  C   LIG     1      19.604  38.528  19.518  1.00  0.00     0.000 A 
HETATM    5  C   LIG     1      19.097  39.312  20.553  1.00  0.00     0.002 A 
HETATM    6  C   LIG     1      18.172  38.778  21.453  1.00  0.00     0.029 A 
ENDROOT
BRANCH   1   7
HETATM    7  N   LIG     1      16.772  36.877  22.265  1.00  0.00    -0.390 N 
HETATM    8  C   LIG     1      16.804  35.449  22.606  1.00  0.00     0.149 C 
HETATM    9  C   LIG     1      15.741  37.728  22.876  1.00  0.00     0.149 C 
ENDBRANCH   1   7
TORSDOF 1
ENDMDL
MODEL 5
REMARK VINA RESULT:      -5.3      1.471      3.656
REMARK  1 active torsions:
REMARK  status: ('A' for Active; 'I' for Inactive)
REMARK    1  A    between atoms: N_2  and  C_4 
ROOT
HETATM    1  C   LIG     1      17.266  36.277  23.738  1.00  0.00     0.029 A 
HETATM    2  C   LIG     1      16.985  35.070  23.060  1.00  0.00     0.029 A 
HETATM    3  C   LIG     1      16.854  35.044  21.668  1.00  0.00     0.002 A 
HETATM    4  C   LIG     1      17.002  36.218  20.928  1.00  0.00     0.000 A 
HETATM    5  C   LIG     1      17.280  37.420  21.578  1.00  0.00     0.002 A 
HETATM    6  C   LIG     1      17.410  37.454  22.968  1.00  0.00     0.029 A 
ENDROOT
BRANCH   1   7
HETATM    7  N   LIG     1      17.400  36.308  25.186  1.00  0.00    -0.390 N 
HETATM    8  C   LIG     1      17.453  35.060  25.959  1.00  0.00     0.149 C 
HETATM    9  C   LIG     1      17.474  37.588  25.902  1.00  0.00     0.149 C 
ENDBRANCH   1   7
TORSDOF 1
ENDMDL
MODEL 6
REMARK VINA RESULT:      -5.1      1.605      2.093
REMARK  1 active torsions:
REMARK  status: ('A' for Active; 'I' for Inactive)
REMARK    1  A    between atoms: N_2  and  C_4 
ROOT
HETATM    1  C   LIG     1      17.126  36.191  22.513  1.00  0.00     0.029 A 
HETATM    2  C   LIG     1      17.125  35.063  23.363  1.00  0.00     0.029 A 
HETATM    3  C   LIG     1      17.253  35.211  24.748  1.00  0.00     0.002 A 
HETATM    4  C   LIG     1      17.383  36.481  25.308  1.00  0.00     0.000 A 
HETATM    5  C   LIG     1      17.387  37.608  24.487  1.00  0.00     0.002 A 
HETATM    6  C   LIG     1      17.261  37.469  23.102  1.00  0.00     0.029 A 
ENDROOT
BRANCH   1   7
HETATM    7  N   LIG     1      16.996  36.041  21.072  1.00  0.00    -0.390 N 
HETATM    8  C   LIG     1      15.872  35.290  20.496  1.00  0.00     0.149 C 
HETATM    9  C   LIG     1      17.992  36.630  20.167  1.00  0.00     0.149 C 
ENDBRANCH   1   7
TORSDOF 1
ENDMDL
MODEL 7
REMARK VINA RESULT:      -5.0      8.238     10.663
REMARK  1 active torsions:
REMARK  status: ('A' for Active; 'I' for Inactive)
REMARK    1  A    between atoms: N_2  and  C_4 
ROOT
HETATM    1  C   LIG     1      14.697  31.825  16.234  1.00  0.00     0.029 A 
HETATM    2  C   LIG     1      13.549  31.003  16.238  1.00  0.00     0.029 A 
HETATM    3  C   LIG     1      13.331  30.073  15.216  1.00  0.00     0.002 A 
HETATM    4  C   LIG     1      14.252  29.946  14.176  1.00  0.00     0.000 A 
HETATM    5  C   LIG     1      15.391  30.749  14.153  1.00  0.00     0.002 A 
HETATM    6  C   LIG     1      15.616  31.681  15.169  1.00  0.00     0.029 A 
ENDROOT
BRANCH   1   7
HETATM    7  N   LIG     1      14.926  32.795  17.294  1.00  0.00    -0.390 N 
HETATM    8  C   LIG     1      15.056  32.359  18.691  1.00  0.00     0.149 C 
HETATM    9  C   LIG     1      15.020  34.228  16.988  1.00  0.00     0.149 C 
ENDBRANCH   1   7
TORSDOF 1
ENDMDL
MODEL 8
REMARK VINA RESULT:      -5.0      8.242     10.747
REMARK  1 active torsions:
REMARK  status: ('A' for Active; 'I' for Inactive)
REMARK    1  A    between atoms: N_2  and  C_4 
ROOT
HETATM    1  C   LIG     1      14.678  31.831  16.229  1.00  0.00     0.029 A 
HETATM    2  C   LIG     1      15.591  31.679  15.162  1.00  0.00     0.029 A 
HETATM    3  C   LIG     1      15.360  30.742  14.150  1.00  0.00     0.002 A 
HETATM    4  C   LIG     1      14.218  29.942  14.182  1.00  0.00     0.000 A 
HETATM    5  C   LIG     1      13.304  30.076  15.227  1.00  0.00     0.002 A 
HETATM    6  C   LIG     1      13.528  31.009  16.242  1.00  0.00     0.029 A 
ENDROOT
BRANCH   1   7
HETATM    7  N   LIG     1      14.916  32.803  17.284  1.00  0.00    -0.390 N 
HETATM    8  C   LIG     1      15.016  34.235  16.974  1.00  0.00     0.149 C 
HETATM    9  C   LIG     1      15.071  32.368  18.679  1.00  0.00     0.149 C 
ENDBRANCH   1   7
TORSDOF 1
ENDMDL
MODEL 9
REMARK VINA RESULT:      -5.0      3.317      4.629
REMARK  1 active torsions:
REMARK  status: ('A' for Active; 'I' for Inactive)
REMARK    1  A    between atoms: N_2  and  C_4 
ROOT
HETATM    1  C   LIG     1      18.504  37.969  20.300  1.00  0.00     0.029 A 
HETATM    2  C   LIG     1      18.127  36.609  20.230  1.00  0.00     0.029 A 
HETATM    3  C   LIG     1      17.319  36.038  21.219  1.00  0.00     0.002 A 
HETATM    4  C   LIG     1      16.873  36.811  22.292  1.00  0.00     0.000 A 
HETATM    5  C   LIG     1      17.234  38.155  22.380  1.00  0.00     0.002 A 
HETATM    6  C   LIG     1      18.042  38.732  21.396  1.00  0.00     0.029 A 
ENDROOT
BRANCH   1   7
HETATM    7  N   LIG     1      19.346  38.564  19.275  1.00  0.00    -0.390 N 
HETATM    8  C   LIG     1      18.759  39.079  18.030  1.00  0.00     0.149 C 
HETATM    9  C   LIG     1      20.800  38.653  19.461  1.00  0.00     0.149 C 
ENDBRANCH   1   7
TORSDOF 1
ENDMDL
MODEL 10
REMARK VINA RESULT:      -4.7      9.618     11.473
REMARK  1 active torsions:
REMARK  status: ('A' for Active; 'I' for Inactive)
REMARK    1  A    between atoms: N_2  and  C_4 
ROOT
HETATM    1  C   LIG     1      14.329  30.607  15.206  1.00  0.00     0.029 A 
HETATM    2  C   LIG     1      13.376  30.869  16.214  1.00  0.00     0.029 A 
HETATM    3  C   LIG     1      13.502  31.987  17.045  1.00  0.00     0.002 A 
HETATM    4  C   LIG     1      14.577  32.862  16.885  1.00  0.00     0.000 A 
HETATM    5  C   LIG     1      15.529  32.621  15.895  1.00  0.00     0.002 A 
HETATM    6  C   LIG     1      15.411  31.506  15.062  1.00  0.00     0.029 A 
ENDROOT
BRANCH   1   7
HETATM    7  N   LIG     1      14.203  29.443  14.342  1.00  0.00    -0.390 N 
HETATM    8  C   LIG     1      15.387  28.855  13.702  1.00  0.00     0.149 C 
HETATM    9  C   LIG     1      12.887  28.843  14.086  1.00  0.00     0.149 C 
ENDBRANCH   1   7
TORSDOF 1
ENDMDL
MODEL 11
REMARK VINA RESULT:      -4.7      9.643     11.515
REMARK  1 active torsions:
REMARK  status: ('A' for Active; 'I' for Inactive)
REMARK    1  A    between atoms: N_2  and  C_4 
ROOT
HETATM    1  C   LIG     1      14.359  30.598  15.178  1.00  0.00     0.029 A 
HETATM    2  C   LIG     1      15.443  31.482  14.982  1.00  0.00     0.029 A 
HETATM    3  C   LIG     1      15.600  32.612  15.791  1.00  0.00     0.002 A 
HETATM    4  C   LIG     1      14.683  32.881  16.807  1.00  0.00     0.000 A 
HETATM    5  C   LIG     1      13.605  32.021  17.017  1.00  0.00     0.002 A 
HETATM    6  C   LIG     1      13.440  30.890  16.213  1.00  0.00     0.029 A 
ENDROOT
BRANCH   1   7
HETATM    7  N   LIG     1      14.191  29.423  14.338  1.00  0.00    -0.390 N 
HETATM    8  C   LIG     1      12.853  28.877  14.074  1.00  0.00     0.149 C 
HETATM    9  C   LIG     1      15.358  28.755  13.746  1.00  0.00     0.149 C 
ENDBRANCH   1   7
TORSDOF 1
ENDMDL
MODEL 12
REMARK VINA RESULT:      -4.7      1.932      4.023
REMARK  1 active torsions:
REMARK  status: ('A' for Active; 'I' for Inactive)
REMARK    1  A    between atoms: N_2  and  C_4 
ROOT
HETATM    1  C   LIG     1      16.595  36.730  22.569  1.00  0.00     0.029 A 
HETATM    2  C   LIG     1      15.269  36.893  22.110  1.00  0.00     0.029 A 
HETATM    3  C   LIG     1      14.651  35.903  21.340  1.00  0.00     0.002 A 
HETATM    4  C   LIG     1      15.340  34.734  21.017  1.00  0.00     0.000 A 
HETATM    5  C   LIG     1      16.650  34.553  21.460  1.00  0.00     0.002 A 
HETATM    6  C   LIG     1      17.275  35.538  22.228  1.00  0.00     0.029 A 
ENDROOT
BRANCH   1   7
HETATM    7  N   LIG     1      17.242  37.759  23.368  1.00  0.00    -0.390 N 
HETATM    8  C   LIG     1      18.059  38.798  22.728  1.00  0.00     0.149 C 
HETATM    9  C   LIG     1      17.097  37.772  24.829  1.00  0.00     0.149 C 
ENDBRANCH   1   7
TORSDOF 1
ENDMDL
MODEL 13
REMARK VINA RESULT:      -4.5      9.824     11.034
REMARK  1 active torsions:
REMARK  status: ('A' for Active; 'I' for Inactive)
REMARK    1  A    between atoms: N_2  and  C_4 
ROOT
HETATM    1  C   LIG     1      15.310  31.782  15.169  1.00  0.00     0.029 A 
HETATM    2  C   LIG     1      14.874  32.286  16.415  1.00  0.00     0.029 A 
HETATM    3  C   LIG     1      13.754  31.745  17.054  1.00  0.00     0.002 A 
HETATM    4  C   LIG     1      13.051  30.694  16.465  1.00  0.00     0.000 A 
HETATM    5  C   LIG     1      13.464  30.182  15.236  1.00  0.00     0.002 A 
HETATM    6  C   LIG     1      14.581  30.718  14.590  1.00  0.00     0.029 A 
ENDROOT
BRANCH   1   7
HETATM    7  N   LIG     1      16.473  32.344  14.501  1.00  0.00    -0.390 N 
HETATM    8  C   LIG     1      17.628  32.813  15.277  1.00  0.00     0.149 C 
HETATM    9  C   LIG     1      16.508  32.463  13.037  1.00  0.00     0.149 C 
ENDBRANCH   1   7
TORSDOF 1
ENDMDL
MODEL 14
REMARK VINA RESULT:      -4.4      9.996     11.414
REMARK  1 active torsions:
REMARK  status: ('A' for Active; 'I' for Inactive)
REMARK    1  A    between atoms: N_2  and  C_4 
ROOT
HETATM    1  C   LIG     1      16.046  32.207  14.468  1.00  0.00     0.029 A 
HETATM    2  C   LIG     1      15.350  32.249  15.696  1.00  0.00     0.029 A 
HETATM    3  C   LIG     1      14.384  31.286  16.006  1.00  0.00     0.002 A 
HETATM    4  C   LIG     1      14.096  30.266  15.098  1.00  0.00     0.000 A 
HETATM    5  C   LIG     1      14.771  30.206  13.880  1.00  0.00     0.002 A 
HETATM    6  C   LIG     1      15.737  31.165  13.563  1.00  0.00     0.029 A 
ENDROOT
BRANCH   1   7
HETATM    7  N   LIG     1      17.050  33.208  14.143  1.00  0.00    -0.390 N 
HETATM    8  C   LIG     1      17.341  34.305  15.074  1.00  0.00     0.149 C 
HETATM    9  C   LIG     1      17.783  33.145  12.871  1.00  0.00     0.149 C 
ENDBRANCH   1   7
TORSDOF 1
ENDMDL
MODEL 15
REMARK VINA RESULT:      -4.3      8.954     10.765
REMARK  1 active torsions:
REMARK  status: ('A' for Active; 'I' for Inactive)
REMARK    1  A    between atoms: N_2  and  C_4 
ROOT
HETATM    1  C   LIG     1      15.141  31.558  15.305  1.00  0.00     0.029 A 
HETATM    2  C   LIG     1      15.720  32.514  16.169  1.00  0.00     0.029 A 
HETATM    3  C   LIG     1      15.219  32.709  17.460  1.00  0.00     0.002 A 
HETATM    4  C   LIG     1      14.135  31.955  17.912  1.00  0.00     0.000 A 
HETATM    5  C   LIG     1      13.550  31.006  17.076  1.00  0.00     0.002 A 
HETATM    6  C   LIG     1      14.044  30.806  15.784  1.00  0.00     0.029 A 
ENDROOT
BRANCH   1   7
HETATM    7  N   LIG     1      15.659  31.354  13.961  1.00  0.00    -0.390 N 
HETATM    8  C   LIG     1      16.391  32.425  13.272  1.00  0.00     0.149 C 
HETATM    9  C   LIG     1      15.449  30.078  13.266  1.00  0.00     0.149 C 
ENDBRANCH   1   7
TORSDOF 1
ENDMDL
MODEL 16
REMARK VINA RESULT:      -4.2      8.882     10.871
REMARK  1 active torsions:
REMARK  status: ('A' for Active; 'I' for Inactive)
REMARK    1  A    between atoms: N_2  and  C_4 
ROOT
HETATM    1  C   LIG     1      15.094  31.886  15.648  1.00  0.00     0.029 A 
HETATM    2  C   LIG     1      15.114  31.241  14.391  1.00  0.00     0.029 A 
HETATM    3  C   LIG     1      16.022  31.630  13.401  1.00  0.00     0.002 A 
HETATM    4  C   LIG     1      16.925  32.666  13.646  1.00  0.00     0.000 A 
HETATM    5  C   LIG     1      16.921  33.315  14.879  1.00  0.00     0.002 A 
HETATM    6  C   LIG     1      16.016  32.933  15.873  1.00  0.00     0.029 A 
ENDROOT
BRANCH   1   7
HETATM    7  N   LIG     1      14.150  31.485  16.679  1.00  0.00    -0.390 N 
HETATM    8  C   LIG     1      14.377  31.847  18.084  1.00  0.00     0.149 C 
HETATM    9  C   LIG     1      12.956  30.702  16.334  1.00  0.00     0.149 C 
ENDBRANCH   1   7
TORSDOF 1
ENDMDL
MODEL 17
REMARK VINA RESULT:      -4.1      8.544     11.077
REMARK  1 active torsions:
REMARK  status: ('A' for Active; 'I' for Inactive)
REMARK    1  A    between atoms: N_2  and  C_4 
ROOT
HETATM    1  C   LIG     1      14.830  31.770  15.752  1.00  0.00     0.029 A 
HETATM    2  C   LIG     1      15.860  32.711  15.537  1.00  0.00     0.029 A 
HETATM    3  C   LIG     1      16.629  32.677  14.369  1.00  0.00     0.002 A 
HETATM    4  C   LIG     1      16.385  31.707  13.397  1.00  0.00     0.000 A 
HETATM    5  C   LIG     1      15.373  30.768  13.590  1.00  0.00     0.002 A 
HETATM    6  C   LIG     1      14.600  30.794  14.754  1.00  0.00     0.029 A 
ENDROOT
BRANCH   1   7
HETATM    7  N   LIG     1      14.030  31.801  16.966  1.00  0.00    -0.390 N 
HETATM    8  C   LIG     1      14.660  32.036  18.271  1.00  0.00     0.149 C 
HETATM    9  C   LIG     1      12.577  31.588  16.909  1.00  0.00     0.149 C 
ENDBRANCH   1   7
TORSDOF 1
ENDMDL
MODEL 18
REMARK VINA RESULT:      -4.1      9.994     11.534
REMARK  1 active torsions:
REMARK  status: ('A' for Active; 'I' for Inactive)
REMARK    1  A    between atoms: N_2  and  C_4 
ROOT
HETATM    1  C   LIG     1      15.139  31.428  14.782  1.00  0.00     0.029 A 
HETATM    2  C   LIG     1      15.577  32.276  15.823  1.00  0.00     0.029 A 
HETATM    3  C   LIG     1      16.597  33.208  15.606  1.00  0.00     0.002 A 
HETATM    4  C   LIG     1      17.196  33.311  14.350  1.00  0.00     0.000 A 
HETATM    5  C   LIG     1      16.778  32.483  13.309  1.00  0.00     0.002 A 
HETATM    6  C   LIG     1      15.761  31.549  13.519  1.00  0.00     0.029 A 
ENDROOT
BRANCH   1   7
HETATM    7  N   LIG     1      14.080  30.456  15.006  1.00  0.00    -0.390 N 
HETATM    8  C   LIG     1      14.001  29.235  14.193  1.00  0.00     0.149 C 
HETATM    9  C   LIG     1      13.064  30.683  16.042  1.00  0.00     0.149 C 
ENDBRANCH   1   7
TORSDOF 1
ENDMDL
MODEL 19
REMARK VINA RESULT:      -4.0      6.183      8.006
REMARK  1 active torsions:
REMARK  status: ('A' for Active; 'I' for Inactive)
REMARK    1  A    between atoms: N_2  and  C_4 
ROOT
HETATM    1  C   LIG     1      15.032  32.756  17.743  1.00  0.00     0.029 A 
HETATM    2  C   LIG     1      15.072  32.053  18.968  1.00  0.00     0.029 A 
HETATM    3  C   LIG     1      15.338  32.721  20.168  1.00  0.00     0.002 A 
HETATM    4  C   LIG     1      15.568  34.097  20.168  1.00  0.00     0.000 A 
HETATM    5  C   LIG     1      15.533  34.809  18.970  1.00  0.00     0.002 A 
HETATM    6  C   LIG     1      15.269  34.149  17.767  1.00  0.00     0.029 A 
ENDROOT
BRANCH   1   7
HETATM    7  N   LIG     1      14.758  32.064  16.493  1.00  0.00    -0.390 N 
HETATM    8  C   LIG     1      13.609  31.156  16.377  1.00  0.00     0.149 C 
HETATM    9  C   LIG     1      15.631  32.254  15.328  1.00  0.00     0.149 C 
ENDBRANCH   1   7
TORSDOF 1
ENDMDL
MODEL 20
REMARK VINA RESULT:      -4.0     11.921     12.692
REMARK  1 active torsions:
REMARK  status: ('A' for Active; 'I' for Inactive)
REMARK    1  A    between atoms: N_2  and  C_4 
ROOT
HETATM    1  C   LIG     1      17.653  45.416  33.143  1.00  0.00     0.029 A 
HETATM    2  C   LIG     1      17.632  44.418  34.142  1.00  0.00     0.029 A 
HETATM    3  C   LIG     1      16.428  44.019  34.732  1.00  0.00     0.002 A 
HETATM    4  C   LIG     1      15.226  44.607  34.337  1.00  0.00     0.000 A 
HETATM    5  C   LIG     1      15.225  45.595  33.353  1.00  0.00     0.002 A 
HETATM    6  C   LIG     1      16.423  45.999  32.759  1.00  0.00     0.029 A 
ENDROOT
BRANCH   1   7
HETATM    7  N   LIG     1      18.903  45.834  32.529  1.00  0.00    -0.390 N 
HETATM    8  C   LIG     1      20.101  46.057  33.350  1.00  0.00     0.149 C 
HETATM    9  C   LIG     1      18.988  46.050  31.079  1.00  0.00     0.149 C 
ENDBRANCH   1   7
TORSDOF 1
ENDMDL
