REMARK  7 active torsions:
REMARK  status: ('A' for Active; 'I' for Inactive)
REMARK    1  A    between atoms: C_2  and  C_7 
REMARK    2  A    between atoms: C_2  and  O_3 
REMARK    3  A    between atoms: O_3  and  C_4 
REMARK    4  A    between atoms: C_4  and  C_5 
REMARK    5  A    between atoms: C_9  and  O_10 
REMARK    6  A    between atoms: C_11  and  O_12 
REMARK    7  A    between atoms: C_13  and  O_14 
ROOT
HETATM    1  C   LIG     1       1.017   0.213   0.347  1.00  0.00     0.044 A 
HETATM    2  C   LIG     1       1.505  -1.001  -0.166  1.00  0.00     0.057 A 
HETATM    3  C   LIG     1       2.871  -1.164  -0.436  1.00  0.00     0.102 A 
HETATM    4  C   LIG     1       3.764  -0.107  -0.195  1.00  0.00     0.132 A 
HETATM    5  C   LIG     1       3.285   1.107   0.315  1.00  0.00     0.102 A 
HETATM    6  C   LIG     1       1.919   1.265   0.584  1.00  0.00     0.057 A 
ENDROOT
BRANCH   1   7
HETATM    7  C   LIG     1      -0.426   0.378   0.629  1.00  0.00     0.293 C 
HETATM    8  O   LIG     1      -0.861   1.471   1.088  1.00  0.00    -0.259 OA
BRANCH   7   9
HETATM    9  O   LIG     1      -1.308  -0.685   0.392  1.00  0.00    -0.318 OA
BRANCH   9  10
HETATM   10  C   LIG     1      -2.719  -0.595   0.583  1.00  0.00     0.178 C 
BRANCH  10  11
HETATM   11  C   LIG     1      -3.366   0.187  -0.564  1.00  0.00     0.022 C 
HETATM   12  C   LIG     1      -4.882   0.248  -0.404  1.00  0.00     0.007 C 
ENDBRANCH  10  11
ENDBRANCH   9  10
ENDBRANCH   7   9
ENDBRANCH   1   7
BRANCH   5  13
HETATM   13  O   LIG     1       4.176   2.153   0.552  1.00  0.00    -0.358 OA
HETATM   14  H   LIG     1       3.862   3.043   0.921  1.00  0.00     0.217 HD
ENDBRANCH   5  13
BRANCH   3  15
HETATM   15  O   LIG     1       3.343  -2.373  -0.944  1.00  0.00    -0.358 OA
HETATM   16  H   LIG     1       2.721  -3.152  -1.128  1.00  0.00     0.217 HD
ENDBRANCH   3  15
BRANCH   4  17
HETATM   17  O   LIG     1       5.127  -0.246  -0.457  1.00  0.00    -0.356 OA
HETATM   18  H   LIG     1       5.520  -1.103  -0.826  1.00  0.00     0.218 HD
ENDBRANCH   4  17
TORSDOF 7
