REMARK  3 active torsions:
REMARK  status: ('A' for Active; 'I' for Inactive)
REMARK    1  A    between atoms: C_2  and  N_3 
REMARK    2  A    between atoms: N_3  and  C_4 
REMARK    3  A    between atoms: N_3  and  C_6 
ROOT
HETATM    1  N   LIG     1       0.069  -0.062   0.376  1.00  0.00     0.087 N 
ENDROOT
BRANCH   1   2
HETATM    2  C   LIG     1       0.908  -0.418  -0.793  1.00  0.00     0.268 C 
HETATM    3  C   LIG     1       2.376  -0.206  -0.447  1.00  0.00     0.037 C 
ENDBRANCH   1   2
BRANCH   1   4
HETATM    4  C   LIG     1      -0.662  -1.221   0.937  1.00  0.00     0.268 C 
HETATM    5  C   LIG     1      -1.823  -1.706   0.055  1.00  0.00     0.037 C 
ENDBRANCH   1   4
BRANCH   1   6
HETATM    6  C   LIG     1      -0.809   1.105   0.138  1.00  0.00     0.268 C 
HETATM    7  C   LIG     1      -0.005   2.402   0.155  1.00  0.00     0.037 C 
ENDBRANCH   1   6
TORSDOF 3
