MODEL 1
REMARK VINA RESULT:      -4.1      0.000      0.000
REMARK  3 active torsions:
REMARK  status: ('A' for Active; 'I' for Inactive)
REMARK    1  A    between atoms: C_2  and  N_3 
REMARK    2  A    between atoms: N_3  and  C_4 
REMARK    3  A    between atoms: N_3  and  C_6 
ROOT
HETATM    1  N   LIG     1      17.283  37.025  24.158  1.00  0.00     0.087 N 
ENDROOT
BRANCH   1   2
HETATM    2  C   LIG     1      17.134  35.552  24.094  1.00  0.00     0.268 C 
HETATM    3  C   LIG     1      16.947  35.124  22.644  1.00  0.00     0.037 C 
ENDBRANCH   1   2
BRANCH   1   4
HETATM    4  C   LIG     1      17.460  37.528  25.540  1.00  0.00     0.268 C 
HETATM    5  C   LIG     1      18.387  36.657  26.401  1.00  0.00     0.037 C 
ENDBRANCH   1   4
BRANCH   1   6
HETATM    6  C   LIG     1      16.234  37.757  23.415  1.00  0.00     0.268 C 
HETATM    7  C   LIG     1      16.841  38.888  22.589  1.00  0.00     0.037 C 
ENDBRANCH   1   6
TORSDOF 3
ENDMDL
MODEL 2
REMARK VINA RESULT:      -4.1      0.086      3.236
REMARK  3 active torsions:
REMARK  status: ('A' for Active; 'I' for Inactive)
REMARK    1  A    between atoms: C_2  and  N_3 
REMARK    2  A    between atoms: N_3  and  C_4 
REMARK    3  A    between atoms: N_3  and  C_6 
ROOT
HETATM    1  N   LIG     1      17.319  37.048  24.246  1.00  0.00     0.087 N 
ENDROOT
BRANCH   1   2
HETATM    2  C   LIG     1      17.496  37.570  25.622  1.00  0.00     0.268 C 
HETATM    3  C   LIG     1      18.378  36.616  26.417  1.00  0.00     0.037 C 
ENDBRANCH   1   2
BRANCH   1   4
HETATM    4  C   LIG     1      16.272  37.767  23.486  1.00  0.00     0.268 C 
HETATM    5  C   LIG     1      16.820  38.879  22.578  1.00  0.00     0.037 C 
ENDBRANCH   1   4
BRANCH   1   6
HETATM    6  C   LIG     1      17.156  35.578  24.190  1.00  0.00     0.268 C 
HETATM    7  C   LIG     1      16.975  35.107  22.750  1.00  0.00     0.037 C 
ENDBRANCH   1   6
TORSDOF 3
ENDMDL
MODEL 3
REMARK VINA RESULT:      -4.0      1.272      2.589
REMARK  3 active torsions:
REMARK  status: ('A' for Active; 'I' for Inactive)
REMARK    1  A    between atoms: C_2  and  N_3 
REMARK    2  A    between atoms: N_3  and  C_4 
REMARK    3  A    between atoms: N_3  and  C_6 
ROOT
HETATM    1  N   LIG     1      16.952  36.331  24.649  1.00  0.00     0.087 N 
ENDROOT
BRANCH   1   2
HETATM    2  C   LIG     1      17.723  37.402  25.324  1.00  0.00     0.268 C 
HETATM    3  C   LIG     1      18.180  38.425  24.293  1.00  0.00     0.037 C 
ENDBRANCH   1   2
BRANCH   1   4
HETATM    4  C   LIG     1      17.400  34.971  25.027  1.00  0.00     0.268 C 
HETATM    5  C   LIG     1      18.221  34.928  26.324  1.00  0.00     0.037 C 
ENDBRANCH   1   4
BRANCH   1   6
HETATM    6  C   LIG     1      16.850  36.512  23.184  1.00  0.00     0.268 C 
HETATM    7  C   LIG     1      16.921  35.168  22.465  1.00  0.00     0.037 C 
ENDBRANCH   1   6
TORSDOF 3
ENDMDL
MODEL 4
REMARK VINA RESULT:      -4.0      1.133      3.399
REMARK  3 active torsions:
REMARK  status: ('A' for Active; 'I' for Inactive)
REMARK    1  A    between atoms: C_2  and  N_3 
REMARK    2  A    between atoms: N_3  and  C_4 
REMARK    3  A    between atoms: N_3  and  C_6 
ROOT
HETATM    1  N   LIG     1      17.194  37.617  23.175  1.00  0.00     0.087 N 
ENDROOT
BRANCH   1   2
HETATM    2  C   LIG     1      17.222  38.978  22.588  1.00  0.00     0.268 C 
HETATM    3  C   LIG     1      18.451  39.123  21.700  1.00  0.00     0.037 C 
ENDBRANCH   1   2
BRANCH   1   4
HETATM    4  C   LIG     1      16.394  36.661  22.377  1.00  0.00     0.268 C 
HETATM    5  C   LIG     1      16.956  35.231  22.379  1.00  0.00     0.037 C 
ENDBRANCH   1   4
BRANCH   1   6
HETATM    6  C   LIG     1      16.838  37.601  24.610  1.00  0.00     0.268 C 
HETATM    7  C   LIG     1      18.053  37.262  25.468  1.00  0.00     0.037 C 
ENDBRANCH   1   6
TORSDOF 3
ENDMDL
MODEL 5
REMARK VINA RESULT:      -4.0      0.579      2.681
REMARK  3 active torsions:
REMARK  status: ('A' for Active; 'I' for Inactive)
REMARK    1  A    between atoms: C_2  and  N_3 
REMARK    2  A    between atoms: N_3  and  C_4 
REMARK    3  A    between atoms: N_3  and  C_6 
ROOT
HETATM    1  N   LIG     1      16.773  37.109  24.170  1.00  0.00     0.087 N 
ENDROOT
BRANCH   1   2
HETATM    2  C   LIG     1      17.136  35.676  24.057  1.00  0.00     0.268 C 
HETATM    3  C   LIG     1      16.917  35.209  22.624  1.00  0.00     0.037 C 
ENDBRANCH   1   2
BRANCH   1   4
HETATM    4  C   LIG     1      16.711  37.794  22.859  1.00  0.00     0.268 C 
HETATM    5  C   LIG     1      17.865  38.781  22.622  1.00  0.00     0.037 C 
ENDBRANCH   1   4
BRANCH   1   6
HETATM    6  C   LIG     1      17.586  37.847  25.161  1.00  0.00     0.268 C 
HETATM    7  C   LIG     1      18.399  36.884  26.022  1.00  0.00     0.037 C 
ENDBRANCH   1   6
TORSDOF 3
ENDMDL
MODEL 6
REMARK VINA RESULT:      -3.9      1.263      2.945
REMARK  3 active torsions:
REMARK  status: ('A' for Active; 'I' for Inactive)
REMARK    1  A    between atoms: C_2  and  N_3 
REMARK    2  A    between atoms: N_3  and  C_4 
REMARK    3  A    between atoms: N_3  and  C_6 
ROOT
HETATM    1  N   LIG     1      16.577  37.611  23.092  1.00  0.00     0.087 N 
ENDROOT
BRANCH   1   2
HETATM    2  C   LIG     1      17.058  37.006  24.357  1.00  0.00     0.268 C 
HETATM    3  C   LIG     1      17.368  38.108  25.361  1.00  0.00     0.037 C 
ENDBRANCH   1   2
BRANCH   1   4
HETATM    4  C   LIG     1      16.673  36.690  21.937  1.00  0.00     0.268 C 
HETATM    5  C   LIG     1      16.945  35.230  22.331  1.00  0.00     0.037 C 
ENDBRANCH   1   4
BRANCH   1   6
HETATM    6  C   LIG     1      17.165  38.940  22.813  1.00  0.00     0.268 C 
HETATM    7  C   LIG     1      18.025  38.899  21.553  1.00  0.00     0.037 C 
ENDBRANCH   1   6
TORSDOF 3
ENDMDL
MODEL 7
REMARK VINA RESULT:      -3.9      1.432      3.032
REMARK  3 active torsions:
REMARK  status: ('A' for Active; 'I' for Inactive)
REMARK    1  A    between atoms: C_2  and  N_3 
REMARK    2  A    between atoms: N_3  and  C_4 
REMARK    3  A    between atoms: N_3  and  C_6 
ROOT
HETATM    1  N   LIG     1      16.797  37.838  22.509  1.00  0.00     0.087 N 
ENDROOT
BRANCH   1   2
HETATM    2  C   LIG     1      17.733  38.981  22.389  1.00  0.00     0.268 C 
HETATM    3  C   LIG     1      18.392  38.955  21.016  1.00  0.00     0.037 C 
ENDBRANCH   1   2
BRANCH   1   4
HETATM    4  C   LIG     1      16.579  37.415  23.911  1.00  0.00     0.268 C 
HETATM    5  C   LIG     1      17.459  38.160  24.926  1.00  0.00     0.037 C 
ENDBRANCH   1   4
BRANCH   1   6
HETATM    6  C   LIG     1      17.131  36.706  21.617  1.00  0.00     0.268 C 
HETATM    7  C   LIG     1      16.940  35.373  22.336  1.00  0.00     0.037 C 
ENDBRANCH   1   6
TORSDOF 3
ENDMDL
MODEL 8
REMARK VINA RESULT:      -3.7      2.406      4.395
REMARK  3 active torsions:
REMARK  status: ('A' for Active; 'I' for Inactive)
REMARK    1  A    between atoms: C_2  and  N_3 
REMARK    2  A    between atoms: N_3  and  C_4 
REMARK    3  A    between atoms: N_3  and  C_6 
ROOT
HETATM    1  N   LIG     1      17.758  37.123  21.506  1.00  0.00     0.087 N 
ENDROOT
BRANCH   1   2
HETATM    2  C   LIG     1      17.783  38.604  21.544  1.00  0.00     0.268 C 
HETATM    3  C   LIG     1      16.937  39.096  22.712  1.00  0.00     0.037 C 
ENDBRANCH   1   2
BRANCH   1   4
HETATM    4  C   LIG     1      17.991  36.576  20.150  1.00  0.00     0.268 C 
HETATM    5  C   LIG     1      19.287  37.077  19.495  1.00  0.00     0.037 C 
ENDBRANCH   1   4
BRANCH   1   6
HETATM    6  C   LIG     1      16.567  36.536  22.161  1.00  0.00     0.268 C 
HETATM    7  C   LIG     1      16.895  35.173  22.762  1.00  0.00     0.037 C 
ENDBRANCH   1   6
TORSDOF 3
ENDMDL
MODEL 9
REMARK VINA RESULT:      -3.5      7.691      8.926
REMARK  3 active torsions:
REMARK  status: ('A' for Active; 'I' for Inactive)
REMARK    1  A    between atoms: C_2  and  N_3 
REMARK    2  A    between atoms: N_3  and  C_4 
REMARK    3  A    between atoms: N_3  and  C_6 
ROOT
HETATM    1  N   LIG     1      14.833  32.202  17.254  1.00  0.00     0.087 N 
ENDROOT
BRANCH   1   2
HETATM    2  C   LIG     1      13.383  31.984  17.034  1.00  0.00     0.268 C 
HETATM    3  C   LIG     1      13.181  30.735  16.187  1.00  0.00     0.037 C 
ENDBRANCH   1   2
BRANCH   1   4
HETATM    4  C   LIG     1      15.154  32.589  18.647  1.00  0.00     0.268 C 
HETATM    5  C   LIG     1      14.823  31.503  19.683  1.00  0.00     0.037 C 
ENDBRANCH   1   4
BRANCH   1   6
HETATM    6  C   LIG     1      15.453  33.100  16.255  1.00  0.00     0.268 C 
HETATM    7  C   LIG     1      16.510  32.359  15.441  1.00  0.00     0.037 C 
ENDBRANCH   1   6
TORSDOF 3
ENDMDL
MODEL 10
REMARK VINA RESULT:      -3.4     10.880     12.169
REMARK  3 active torsions:
REMARK  status: ('A' for Active; 'I' for Inactive)
REMARK    1  A    between atoms: C_2  and  N_3 
REMARK    2  A    between atoms: N_3  and  C_4 
REMARK    3  A    between atoms: N_3  and  C_6 
ROOT
HETATM    1  N   LIG     1      14.931  30.274  14.802  1.00  0.00     0.087 N 
ENDROOT
BRANCH   1   2
HETATM    2  C   LIG     1      13.475  30.238  15.077  1.00  0.00     0.268 C 
HETATM    3  C   LIG     1      13.191  30.944  16.397  1.00  0.00     0.037 C 
ENDBRANCH   1   2
BRANCH   1   4
HETATM    4  C   LIG     1      15.505  31.635  14.902  1.00  0.00     0.268 C 
HETATM    5  C   LIG     1      16.124  32.144  13.591  1.00  0.00     0.037 C 
ENDBRANCH   1   4
BRANCH   1   6
HETATM    6  C   LIG     1      15.311  29.586  13.548  1.00  0.00     0.268 C 
HETATM    7  C   LIG     1      15.270  28.071  13.725  1.00  0.00     0.037 C 
ENDBRANCH   1   6
TORSDOF 3
ENDMDL
MODEL 11
REMARK VINA RESULT:      -3.3      7.452      9.012
REMARK  3 active torsions:
REMARK  status: ('A' for Active; 'I' for Inactive)
REMARK    1  A    between atoms: C_2  and  N_3 
REMARK    2  A    between atoms: N_3  and  C_4 
REMARK    3  A    between atoms: N_3  and  C_6 
ROOT
HETATM    1  N   LIG     1      14.516  32.617  17.652  1.00  0.00     0.087 N 
ENDROOT
BRANCH   1   2
HETATM    2  C   LIG     1      15.252  32.604  18.939  1.00  0.00     0.268 C 
HETATM    3  C   LIG     1      14.792  31.417  19.774  1.00  0.00     0.037 C 
ENDBRANCH   1   2
BRANCH   1   4
HETATM    4  C   LIG     1      14.154  31.261  17.180  1.00  0.00     0.268 C 
HETATM    5  C   LIG     1      12.798  31.198  16.460  1.00  0.00     0.037 C 
ENDBRANCH   1   4
BRANCH   1   6
HETATM    6  C   LIG     1      15.174  33.429  16.605  1.00  0.00     0.268 C 
HETATM    7  C   LIG     1      16.091  32.565  15.743  1.00  0.00     0.037 C 
ENDBRANCH   1   6
TORSDOF 3
ENDMDL
MODEL 12
REMARK VINA RESULT:      -3.3      2.226      3.450
REMARK  3 active torsions:
REMARK  status: ('A' for Active; 'I' for Inactive)
REMARK    1  A    between atoms: C_2  and  N_3 
REMARK    2  A    between atoms: N_3  and  C_4 
REMARK    3  A    between atoms: N_3  and  C_6 
ROOT
HETATM    1  N   LIG     1      17.639  36.964  21.802  1.00  0.00     0.087 N 
ENDROOT
BRANCH   1   2
HETATM    2  C   LIG     1      16.868  36.142  22.764  1.00  0.00     0.268 C 
HETATM    3  C   LIG     1      17.113  36.652  24.178  1.00  0.00     0.037 C 
ENDBRANCH   1   2
BRANCH   1   4
HETATM    4  C   LIG     1      17.280  38.400  21.851  1.00  0.00     0.268 C 
HETATM    5  C   LIG     1      18.490  39.335  21.999  1.00  0.00     0.037 C 
ENDBRANCH   1   4
BRANCH   1   6
HETATM    6  C   LIG     1      17.633  36.421  20.425  1.00  0.00     0.268 C 
HETATM    7  C   LIG     1      18.915  36.797  19.688  1.00  0.00     0.037 C 
ENDBRANCH   1   6
TORSDOF 3
ENDMDL
MODEL 13
REMARK VINA RESULT:      -3.3      8.533     10.483
REMARK  3 active torsions:
REMARK  status: ('A' for Active; 'I' for Inactive)
REMARK    1  A    between atoms: C_2  and  N_3 
REMARK    2  A    between atoms: N_3  and  C_4 
REMARK    3  A    between atoms: N_3  and  C_6 
ROOT
HETATM    1  N   LIG     1      15.168  31.796  16.035  1.00  0.00     0.087 N 
ENDROOT
BRANCH   1   2
HETATM    2  C   LIG     1      14.421  32.684  16.957  1.00  0.00     0.268 C 
HETATM    3  C   LIG     1      15.023  34.083  16.913  1.00  0.00     0.037 C 
ENDBRANCH   1   2
BRANCH   1   4
HETATM    4  C   LIG     1      16.062  32.538  15.116  1.00  0.00     0.268 C 
HETATM    5  C   LIG     1      16.039  32.013  13.672  1.00  0.00     0.037 C 
ENDBRANCH   1   4
BRANCH   1   6
HETATM    6  C   LIG     1      14.307  30.822  15.329  1.00  0.00     0.268 C 
HETATM    7  C   LIG     1      12.958  30.682  16.028  1.00  0.00     0.037 C 
ENDBRANCH   1   6
TORSDOF 3
ENDMDL
MODEL 14
REMARK VINA RESULT:      -3.3     11.258     12.411
REMARK  3 active torsions:
REMARK  status: ('A' for Active; 'I' for Inactive)
REMARK    1  A    between atoms: C_2  and  N_3 
REMARK    2  A    between atoms: N_3  and  C_4 
REMARK    3  A    between atoms: N_3  and  C_6 
ROOT
HETATM    1  N   LIG     1      14.616  30.164  14.121  1.00  0.00     0.087 N 
ENDROOT
BRANCH   1   2
HETATM    2  C   LIG     1      13.346  29.885  14.833  1.00  0.00     0.268 C 
HETATM    3  C   LIG     1      13.248  30.776  16.064  1.00  0.00     0.037 C 
ENDBRANCH   1   2
BRANCH   1   4
HETATM    4  C   LIG     1      15.474  28.966  13.979  1.00  0.00     0.268 C 
HETATM    5  C   LIG     1      14.695  27.682  13.651  1.00  0.00     0.037 C 
ENDBRANCH   1   4
BRANCH   1   6
HETATM    6  C   LIG     1      15.350  31.330  14.660  1.00  0.00     0.268 C 
HETATM    7  C   LIG     1      16.072  32.080  13.544  1.00  0.00     0.037 C 
ENDBRANCH   1   6
TORSDOF 3
ENDMDL
MODEL 15
REMARK VINA RESULT:      -3.3      7.513      9.399
REMARK  3 active torsions:
REMARK  status: ('A' for Active; 'I' for Inactive)
REMARK    1  A    between atoms: C_2  and  N_3 
REMARK    2  A    between atoms: N_3  and  C_4 
REMARK    3  A    between atoms: N_3  and  C_6 
ROOT
HETATM    1  N   LIG     1      14.841  32.180  17.059  1.00  0.00     0.087 N 
ENDROOT
BRANCH   1   2
HETATM    2  C   LIG     1      15.169  32.979  18.264  1.00  0.00     0.268 C 
HETATM    3  C   LIG     1      15.264  32.057  19.472  1.00  0.00     0.037 C 
ENDBRANCH   1   2
BRANCH   1   4
HETATM    4  C   LIG     1      15.404  32.754  15.815  1.00  0.00     0.268 C 
HETATM    5  C   LIG     1      16.815  32.245  15.482  1.00  0.00     0.037 C 
ENDBRANCH   1   4
BRANCH   1   6
HETATM    6  C   LIG     1      13.402  31.858  16.938  1.00  0.00     0.268 C 
HETATM    7  C   LIG     1      13.184  30.701  15.968  1.00  0.00     0.037 C 
ENDBRANCH   1   6
TORSDOF 3
ENDMDL
MODEL 16
REMARK VINA RESULT:      -3.3      8.534     10.244
REMARK  3 active torsions:
REMARK  status: ('A' for Active; 'I' for Inactive)
REMARK    1  A    between atoms: C_2  and  N_3 
REMARK    2  A    between atoms: N_3  and  C_4 
REMARK    3  A    between atoms: N_3  and  C_6 
ROOT
HETATM    1  N   LIG     1      15.314  31.796  16.030  1.00  0.00     0.087 N 
ENDROOT
BRANCH   1   2
HETATM    2  C   LIG     1      16.150  32.586  15.096  1.00  0.00     0.268 C 
HETATM    3  C   LIG     1      16.022  32.013  13.691  1.00  0.00     0.037 C 
ENDBRANCH   1   2
BRANCH   1   4
HETATM    4  C   LIG     1      14.362  30.899  15.336  1.00  0.00     0.268 C 
HETATM    5  C   LIG     1      13.029  30.719  16.078  1.00  0.00     0.037 C 
ENDBRANCH   1   4
BRANCH   1   6
HETATM    6  C   LIG     1      14.666  32.614  17.079  1.00  0.00     0.268 C 
HETATM    7  C   LIG     1      15.011  34.091  16.906  1.00  0.00     0.037 C 
ENDBRANCH   1   6
TORSDOF 3
ENDMDL
MODEL 17
REMARK VINA RESULT:      -3.3      7.901      9.759
REMARK  3 active torsions:
REMARK  status: ('A' for Active; 'I' for Inactive)
REMARK    1  A    between atoms: C_2  and  N_3 
REMARK    2  A    between atoms: N_3  and  C_4 
REMARK    3  A    between atoms: N_3  and  C_6 
ROOT
HETATM    1  N   LIG     1      14.498  32.184  16.335  1.00  0.00     0.087 N 
ENDROOT
BRANCH   1   2
HETATM    2  C   LIG     1      15.708  33.031  16.212  1.00  0.00     0.268 C 
HETATM    3  C   LIG     1      16.688  32.377  15.246  1.00  0.00     0.037 C 
ENDBRANCH   1   2
BRANCH   1   4
HETATM    4  C   LIG     1      14.173  31.841  17.739  1.00  0.00     0.268 C 
HETATM    5  C   LIG     1      15.196  32.369  18.757  1.00  0.00     0.037 C 
ENDBRANCH   1   4
BRANCH   1   6
HETATM    6  C   LIG     1      14.513  31.001  15.448  1.00  0.00     0.268 C 
HETATM    7  C   LIG     1      13.148  30.318  15.429  1.00  0.00     0.037 C 
ENDBRANCH   1   6
TORSDOF 3
ENDMDL
MODEL 18
REMARK VINA RESULT:      -3.3      2.839      4.062
REMARK  3 active torsions:
REMARK  status: ('A' for Active; 'I' for Inactive)
REMARK    1  A    between atoms: C_2  and  N_3 
REMARK    2  A    between atoms: N_3  and  C_4 
REMARK    3  A    between atoms: N_3  and  C_6 
ROOT
HETATM    1  N   LIG     1      17.309  36.767  20.778  1.00  0.00     0.087 N 
ENDROOT
BRANCH   1   2
HETATM    2  C   LIG     1      18.635  36.664  20.124  1.00  0.00     0.268 C 
HETATM    3  C   LIG     1      18.906  37.932  19.324  1.00  0.00     0.037 C 
ENDBRANCH   1   2
BRANCH   1   4
HETATM    4  C   LIG     1      17.385  37.289  22.161  1.00  0.00     0.268 C 
HETATM    5  C   LIG     1      17.000  38.772  22.284  1.00  0.00     0.037 C 
ENDBRANCH   1   4
BRANCH   1   6
HETATM    6  C   LIG     1      16.506  35.528  20.680  1.00  0.00     0.268 C 
HETATM    7  C   LIG     1      15.116  35.732  21.276  1.00  0.00     0.037 C 
ENDBRANCH   1   6
TORSDOF 3
ENDMDL
MODEL 19
REMARK VINA RESULT:      -3.2      2.997      4.739
REMARK  3 active torsions:
REMARK  status: ('A' for Active; 'I' for Inactive)
REMARK    1  A    between atoms: C_2  and  N_3 
REMARK    2  A    between atoms: N_3  and  C_4 
REMARK    3  A    between atoms: N_3  and  C_6 
ROOT
HETATM    1  N   LIG     1      18.522  38.311  21.279  1.00  0.00     0.087 N 
ENDROOT
BRANCH   1   2
HETATM    2  C   LIG     1      18.087  39.367  22.224  1.00  0.00     0.268 C 
HETATM    3  C   LIG     1      16.713  39.015  22.780  1.00  0.00     0.037 C 
ENDBRANCH   1   2
BRANCH   1   4
HETATM    4  C   LIG     1      18.819  38.833  19.926  1.00  0.00     0.268 C 
HETATM    5  C   LIG     1      20.314  38.827  19.574  1.00  0.00     0.037 C 
ENDBRANCH   1   4
BRANCH   1   6
HETATM    6  C   LIG     1      17.623  37.136  21.253  1.00  0.00     0.268 C 
HETATM    7  C   LIG     1      17.878  36.285  20.012  1.00  0.00     0.037 C 
ENDBRANCH   1   6
TORSDOF 3
ENDMDL
MODEL 20
REMARK VINA RESULT:      -3.2      9.604     10.678
REMARK  3 active torsions:
REMARK  status: ('A' for Active; 'I' for Inactive)
REMARK    1  A    between atoms: C_2  and  N_3 
REMARK    2  A    between atoms: N_3  and  C_4 
REMARK    3  A    between atoms: N_3  and  C_6 
ROOT
HETATM    1  N   LIG     1      15.457  31.543  15.347  1.00  0.00     0.087 N 
ENDROOT
BRANCH   1   2
HETATM    2  C   LIG     1      14.476  30.550  14.849  1.00  0.00     0.268 C 
HETATM    3  C   LIG     1      15.178  29.563  13.926  1.00  0.00     0.037 C 
ENDBRANCH   1   2
BRANCH   1   4
HETATM    4  C   LIG     1      14.897  32.436  16.387  1.00  0.00     0.268 C 
HETATM    5  C   LIG     1      13.572  31.938  16.983  1.00  0.00     0.037 C 
ENDBRANCH   1   4
BRANCH   1   6
HETATM    6  C   LIG     1      16.144  32.286  14.268  1.00  0.00     0.268 C 
HETATM    7  C   LIG     1      17.377  33.007  14.805  1.00  0.00     0.037 C 
ENDBRANCH   1   6
TORSDOF 3
ENDMDL
