MODEL 1
REMARK VINA RESULT:      -6.5      0.000      0.000
REMARK  4 active torsions:
REMARK  status: ('A' for Active; 'I' for Inactive)
REMARK    1  A    between atoms: C_2  and  C_4 
REMARK    2  A    between atoms: C_2  and  O_3 
REMARK    3  A    between atoms: C_4  and  O_5 
REMARK    4  A    between atoms: O_5  and  C_6 
ROOT
HETATM    1  C   LIG     1      17.427  37.534  22.063  1.00  0.00     0.069 A 
HETATM    2  C   LIG     1      17.860  38.866  22.024  1.00  0.00     0.038 A 
HETATM    3  C   LIG     1      18.652  39.324  20.967  1.00  0.00     0.026 A 
HETATM    4  C   LIG     1      19.017  38.454  19.936  1.00  0.00     0.034 A 
HETATM    5 CL   LIG     1      20.012  39.031  18.610  1.00  0.00    -0.084 Cl
HETATM    6  C   LIG     1      18.588  37.123  19.962  1.00  0.00     0.026 A 
HETATM    7  C   LIG     1      17.795  36.662  21.019  1.00  0.00     0.038 A 
ENDROOT
BRANCH   1   8
HETATM    8  O   LIG     1      16.633  37.125  23.147  1.00  0.00    -0.341 OA
BRANCH   8   9
HETATM    9  C   LIG     1      17.115  36.484  24.328  1.00  0.00     0.285 C 
BRANCH   9  10
HETATM   10  C   LIG     1      17.571  37.499  25.333  1.00  0.00     0.164 C 
HETATM   11  O   LIG     1      16.894  38.542  25.525  1.00  0.00    -0.648 OA
BRANCH  10  12
HETATM   12  O   LIG     1      18.754  37.310  26.042  1.00  0.00    -0.775 OA
HETATM   13  H   LIG     1      19.230  38.089  26.481  1.00  0.00     0.167 HD
ENDBRANCH  10  12
ENDBRANCH   9  10
ENDBRANCH   8   9
ENDBRANCH   1   8
TORSDOF 4
ENDMDL
MODEL 2
REMARK VINA RESULT:      -6.5      1.302      2.233
REMARK  4 active torsions:
REMARK  status: ('A' for Active; 'I' for Inactive)
REMARK    1  A    between atoms: C_2  and  C_4 
REMARK    2  A    between atoms: C_2  and  O_3 
REMARK    3  A    between atoms: C_4  and  O_5 
REMARK    4  A    between atoms: O_5  and  C_6 
ROOT
HETATM    1  C   LIG     1      17.029  37.762  23.191  1.00  0.00     0.069 A 
HETATM    2  C   LIG     1      16.811  36.551  22.520  1.00  0.00     0.038 A 
HETATM    3  C   LIG     1      17.341  36.342  21.243  1.00  0.00     0.026 A 
HETATM    4  C   LIG     1      18.097  37.342  20.626  1.00  0.00     0.034 A 
HETATM    5 CL   LIG     1      18.761  37.078  19.023  1.00  0.00    -0.084 Cl
HETATM    6  C   LIG     1      18.324  38.553  21.288  1.00  0.00     0.026 A 
HETATM    7  C   LIG     1      17.796  38.765  22.565  1.00  0.00     0.038 A 
ENDROOT
BRANCH   1   8
HETATM    8  O   LIG     1      16.475  37.920  24.472  1.00  0.00    -0.341 OA
BRANCH   8   9
HETATM    9  C   LIG     1      17.218  38.097  25.678  1.00  0.00     0.285 C 
BRANCH   9  10
HETATM   10  C   LIG     1      17.835  36.802  26.115  1.00  0.00     0.164 C 
HETATM   11  O   LIG     1      18.993  36.792  26.608  1.00  0.00    -0.648 OA
BRANCH  10  12
HETATM   12  O   LIG     1      17.148  35.603  25.956  1.00  0.00    -0.775 OA
HETATM   13  H   LIG     1      17.274  35.033  25.128  1.00  0.00     0.167 HD
ENDBRANCH  10  12
ENDBRANCH   9  10
ENDBRANCH   8   9
ENDBRANCH   1   8
TORSDOF 4
ENDMDL
MODEL 3
REMARK VINA RESULT:      -6.4      3.539      5.120
REMARK  4 active torsions:
REMARK  status: ('A' for Active; 'I' for Inactive)
REMARK    1  A    between atoms: C_2  and  C_4 
REMARK    2  A    between atoms: C_2  and  O_3 
REMARK    3  A    between atoms: C_4  and  O_5 
REMARK    4  A    between atoms: O_5  and  C_6 
ROOT
HETATM    1  C   LIG     1      17.481  37.738  22.434  1.00  0.00     0.069 A 
HETATM    2  C   LIG     1      17.735  38.180  23.739  1.00  0.00     0.038 A 
HETATM    3  C   LIG     1      17.642  37.296  24.819  1.00  0.00     0.026 A 
HETATM    4  C   LIG     1      17.295  35.960  24.603  1.00  0.00     0.034 A 
HETATM    5 CL   LIG     1      17.178  34.852  25.959  1.00  0.00    -0.084 Cl
HETATM    6  C   LIG     1      17.042  35.506  23.304  1.00  0.00     0.026 A 
HETATM    7  C   LIG     1      17.135  36.388  22.222  1.00  0.00     0.038 A 
ENDROOT
BRANCH   1   8
HETATM    8  O   LIG     1      17.589  38.666  21.386  1.00  0.00    -0.341 OA
BRANCH   8   9
HETATM    9  C   LIG     1      18.765  39.402  21.051  1.00  0.00     0.285 C 
BRANCH   9  10
HETATM   10  C   LIG     1      19.388  38.865  19.797  1.00  0.00     0.164 C 
HETATM   11  O   LIG     1      18.940  37.812  19.274  1.00  0.00    -0.648 OA
BRANCH  10  12
HETATM   12  O   LIG     1      20.477  39.508  19.217  1.00  0.00    -0.775 OA
HETATM   13  H   LIG     1      20.514  40.519  19.152  1.00  0.00     0.167 HD
ENDBRANCH  10  12
ENDBRANCH   9  10
ENDBRANCH   8   9
ENDBRANCH   1   8
TORSDOF 4
ENDMDL
MODEL 4
REMARK VINA RESULT:      -6.2      3.881      5.415
REMARK  4 active torsions:
REMARK  status: ('A' for Active; 'I' for Inactive)
REMARK    1  A    between atoms: C_2  and  C_4 
REMARK    2  A    between atoms: C_2  and  O_3 
REMARK    3  A    between atoms: C_4  and  O_5 
REMARK    4  A    between atoms: O_5  and  C_6 
ROOT
HETATM    1  C   LIG     1      16.738  36.310  22.981  1.00  0.00     0.069 A 
HETATM    2  C   LIG     1      17.084  37.518  23.601  1.00  0.00     0.038 A 
HETATM    3  C   LIG     1      17.647  37.523  24.880  1.00  0.00     0.026 A 
HETATM    4  C   LIG     1      17.873  36.319  25.552  1.00  0.00     0.034 A 
HETATM    5 CL   LIG     1      18.580  36.327  27.158  1.00  0.00    -0.084 Cl
HETATM    6  C   LIG     1      17.535  35.106  24.942  1.00  0.00     0.026 A 
HETATM    7  C   LIG     1      16.972  35.098  23.661  1.00  0.00     0.038 A 
ENDROOT
BRANCH   1   8
HETATM    8  O   LIG     1      16.175  36.360  21.695  1.00  0.00    -0.341 OA
BRANCH   8   9
HETATM    9  C   LIG     1      16.463  35.453  20.632  1.00  0.00     0.285 C 
BRANCH   9  10
HETATM   10  C   LIG     1      15.493  34.310  20.633  1.00  0.00     0.164 C 
HETATM   11  O   LIG     1      15.707  33.303  19.909  1.00  0.00    -0.648 OA
BRANCH  10  12
HETATM   12  O   LIG     1      14.341  34.361  21.412  1.00  0.00    -0.775 OA
HETATM   13  H   LIG     1      14.008  35.238  21.795  1.00  0.00     0.167 HD
ENDBRANCH  10  12
ENDBRANCH   9  10
ENDBRANCH   8   9
ENDBRANCH   1   8
TORSDOF 4
ENDMDL
MODEL 5
REMARK VINA RESULT:      -6.1      4.050      5.982
REMARK  4 active torsions:
REMARK  status: ('A' for Active; 'I' for Inactive)
REMARK    1  A    between atoms: C_2  and  C_4 
REMARK    2  A    between atoms: C_2  and  O_3 
REMARK    3  A    between atoms: C_4  and  O_5 
REMARK    4  A    between atoms: O_5  and  C_6 
ROOT
HETATM    1  C   LIG     1      18.723  38.608  20.090  1.00  0.00     0.069 A 
HETATM    2  C   LIG     1      18.658  37.264  19.701  1.00  0.00     0.038 A 
HETATM    3  C   LIG     1      18.009  36.322  20.505  1.00  0.00     0.026 A 
HETATM    4  C   LIG     1      17.416  36.717  21.708  1.00  0.00     0.034 A 
HETATM    5 CL   LIG     1      16.603  35.534  22.717  1.00  0.00    -0.084 Cl
HETATM    6  C   LIG     1      17.471  38.057  22.105  1.00  0.00     0.026 A 
HETATM    7  C   LIG     1      18.119  39.001  21.302  1.00  0.00     0.038 A 
ENDROOT
BRANCH   1   8
HETATM    8  O   LIG     1      19.386  39.513  19.246  1.00  0.00    -0.341 OA
BRANCH   8   9
HETATM    9  C   LIG     1      19.732  39.269  17.882  1.00  0.00     0.285 C 
BRANCH   9  10
HETATM   10  C   LIG     1      18.631  39.717  16.968  1.00  0.00     0.164 C 
HETATM   11  O   LIG     1      17.956  40.741  17.251  1.00  0.00    -0.648 OA
BRANCH  10  12
HETATM   12  O   LIG     1      18.329  38.994  15.818  1.00  0.00    -0.775 OA
HETATM   13  H   LIG     1      18.007  39.459  14.977  1.00  0.00     0.167 HD
ENDBRANCH  10  12
ENDBRANCH   9  10
ENDBRANCH   8   9
ENDBRANCH   1   8
TORSDOF 4
ENDMDL
MODEL 6
REMARK VINA RESULT:      -6.0      2.281      3.394
REMARK  4 active torsions:
REMARK  status: ('A' for Active; 'I' for Inactive)
REMARK    1  A    between atoms: C_2  and  C_4 
REMARK    2  A    between atoms: C_2  and  O_3 
REMARK    3  A    between atoms: C_4  and  O_5 
REMARK    4  A    between atoms: O_5  and  C_6 
ROOT
HETATM    1  C   LIG     1      17.513  37.107  21.359  1.00  0.00     0.069 A 
HETATM    2  C   LIG     1      17.843  38.439  21.636  1.00  0.00     0.038 A 
HETATM    3  C   LIG     1      18.811  39.103  20.876  1.00  0.00     0.026 A 
HETATM    4  C   LIG     1      19.457  38.440  19.830  1.00  0.00     0.034 A 
HETATM    5 CL   LIG     1      20.672  39.274  18.877  1.00  0.00    -0.084 Cl
HETATM    6  C   LIG     1      19.133  37.110  19.541  1.00  0.00     0.026 A 
HETATM    7  C   LIG     1      18.164  36.444  20.299  1.00  0.00     0.038 A 
ENDROOT
BRANCH   1   8
HETATM    8  O   LIG     1      16.534  36.486  22.152  1.00  0.00    -0.341 OA
BRANCH   8   9
HETATM    9  C   LIG     1      16.276  35.083  22.200  1.00  0.00     0.285 C 
BRANCH   9  10
HETATM   10  C   LIG     1      15.083  34.734  21.361  1.00  0.00     0.164 C 
HETATM   11  O   LIG     1      14.301  33.820  21.729  1.00  0.00    -0.648 OA
BRANCH  10  12
HETATM   12  O   LIG     1      14.845  35.398  20.161  1.00  0.00    -0.775 OA
HETATM   13  H   LIG     1      15.049  34.958  19.271  1.00  0.00     0.167 HD
ENDBRANCH  10  12
ENDBRANCH   9  10
ENDBRANCH   8   9
ENDBRANCH   1   8
TORSDOF 4
ENDMDL
MODEL 7
REMARK VINA RESULT:      -5.8      7.005      8.196
REMARK  4 active torsions:
REMARK  status: ('A' for Active; 'I' for Inactive)
REMARK    1  A    between atoms: C_2  and  C_4 
REMARK    2  A    between atoms: C_2  and  O_3 
REMARK    3  A    between atoms: C_4  and  O_5 
REMARK    4  A    between atoms: O_5  and  C_6 
ROOT
HETATM    1  C   LIG     1      15.029  32.494  17.401  1.00  0.00     0.069 A 
HETATM    2  C   LIG     1      15.772  32.483  16.214  1.00  0.00     0.038 A 
HETATM    3  C   LIG     1      15.433  31.613  15.173  1.00  0.00     0.026 A 
HETATM    4  C   LIG     1      14.344  30.748  15.309  1.00  0.00     0.034 A 
HETATM    5 CL   LIG     1      13.919  29.657  14.002  1.00  0.00    -0.084 Cl
HETATM    6  C   LIG     1      13.593  30.753  16.489  1.00  0.00     0.026 A 
HETATM    7  C   LIG     1      13.930  31.622  17.532  1.00  0.00     0.038 A 
ENDROOT
BRANCH   1   8
HETATM    8  O   LIG     1      15.413  33.387  18.416  1.00  0.00    -0.341 OA
BRANCH   8   9
HETATM    9  C   LIG     1      15.428  33.094  19.812  1.00  0.00     0.285 C 
BRANCH   9  10
HETATM   10  C   LIG     1      15.496  34.356  20.619  1.00  0.00     0.164 C 
HETATM   11  O   LIG     1      16.516  35.090  20.554  1.00  0.00    -0.648 OA
BRANCH  10  12
HETATM   12  O   LIG     1      14.448  34.714  21.461  1.00  0.00    -0.775 OA
HETATM   13  H   LIG     1      14.616  34.960  22.430  1.00  0.00     0.167 HD
ENDBRANCH  10  12
ENDBRANCH   9  10
ENDBRANCH   8   9
ENDBRANCH   1   8
TORSDOF 4
ENDMDL
MODEL 8
REMARK VINA RESULT:      -5.6      4.120      5.795
REMARK  4 active torsions:
REMARK  status: ('A' for Active; 'I' for Inactive)
REMARK    1  A    between atoms: C_2  and  C_4 
REMARK    2  A    between atoms: C_2  and  O_3 
REMARK    3  A    between atoms: C_4  and  O_5 
REMARK    4  A    between atoms: O_5  and  C_6 
ROOT
HETATM    1  C   LIG     1      16.651  35.360  21.522  1.00  0.00     0.069 A 
HETATM    2  C   LIG     1      16.763  36.739  21.304  1.00  0.00     0.038 A 
HETATM    3  C   LIG     1      17.030  37.607  22.368  1.00  0.00     0.026 A 
HETATM    4  C   LIG     1      17.189  37.102  23.661  1.00  0.00     0.034 A 
HETATM    5 CL   LIG     1      17.523  38.191  24.995  1.00  0.00    -0.084 Cl
HETATM    6  C   LIG     1      17.082  35.726  23.890  1.00  0.00     0.026 A 
HETATM    7  C   LIG     1      16.816  34.856  22.828  1.00  0.00     0.038 A 
ENDROOT
BRANCH   1   8
HETATM    8  O   LIG     1      16.382  34.533  20.419  1.00  0.00    -0.341 OA
BRANCH   8   9
HETATM    9  C   LIG     1      15.552  33.372  20.440  1.00  0.00     0.285 C 
BRANCH   9  10
HETATM   10  C   LIG     1      15.116  33.008  19.052  1.00  0.00     0.164 C 
HETATM   11  O   LIG     1      15.606  33.609  18.061  1.00  0.00    -0.648 OA
BRANCH  10  12
HETATM   12  O   LIG     1      14.151  32.026  18.849  1.00  0.00    -0.775 OA
HETATM   13  H   LIG     1      14.260  31.097  19.240  1.00  0.00     0.167 HD
ENDBRANCH  10  12
ENDBRANCH   9  10
ENDBRANCH   8   9
ENDBRANCH   1   8
TORSDOF 4
ENDMDL
MODEL 9
REMARK VINA RESULT:      -5.6      9.574     10.911
REMARK  4 active torsions:
REMARK  status: ('A' for Active; 'I' for Inactive)
REMARK    1  A    between atoms: C_2  and  C_4 
REMARK    2  A    between atoms: C_2  and  O_3 
REMARK    3  A    between atoms: C_4  and  O_5 
REMARK    4  A    between atoms: O_5  and  C_6 
ROOT
HETATM    1  C   LIG     1      15.634  31.866  15.310  1.00  0.00     0.069 A 
HETATM    2  C   LIG     1      15.835  31.121  14.142  1.00  0.00     0.038 A 
HETATM    3  C   LIG     1      14.923  30.130  13.766  1.00  0.00     0.026 A 
HETATM    4  C   LIG     1      13.799  29.876  14.557  1.00  0.00     0.034 A 
HETATM    5 CL   LIG     1      12.656  28.631  14.086  1.00  0.00    -0.084 Cl
HETATM    6  C   LIG     1      13.587  30.616  15.725  1.00  0.00     0.026 A 
HETATM    7  C   LIG     1      14.497  31.609  16.102  1.00  0.00     0.038 A 
ENDROOT
BRANCH   1   8
HETATM    8  O   LIG     1      16.580  32.850  15.641  1.00  0.00    -0.341 OA
BRANCH   8   9
HETATM    9  C   LIG     1      17.803  33.088  14.945  1.00  0.00     0.285 C 
BRANCH   9  10
HETATM   10  C   LIG     1      17.755  34.400  14.221  1.00  0.00     0.164 C 
HETATM   11  O   LIG     1      18.264  34.505  13.075  1.00  0.00    -0.648 OA
BRANCH  10  12
HETATM   12  O   LIG     1      17.172  35.515  14.816  1.00  0.00    -0.775 OA
HETATM   13  H   LIG     1      16.218  35.782  14.603  1.00  0.00     0.167 HD
ENDBRANCH  10  12
ENDBRANCH   9  10
ENDBRANCH   8   9
ENDBRANCH   1   8
TORSDOF 4
ENDMDL
MODEL 10
REMARK VINA RESULT:      -5.5     10.156     11.383
REMARK  4 active torsions:
REMARK  status: ('A' for Active; 'I' for Inactive)
REMARK    1  A    between atoms: C_2  and  C_4 
REMARK    2  A    between atoms: C_2  and  O_3 
REMARK    3  A    between atoms: C_4  and  O_5 
REMARK    4  A    between atoms: O_5  and  C_6 
ROOT
HETATM    1  C   LIG     1      16.323  32.074  14.074  1.00  0.00     0.069 A 
HETATM    2  C   LIG     1      15.549  30.996  13.626  1.00  0.00     0.038 A 
HETATM    3  C   LIG     1      14.508  30.494  14.414  1.00  0.00     0.026 A 
HETATM    4  C   LIG     1      14.231  31.067  15.658  1.00  0.00     0.034 A 
HETATM    5 CL   LIG     1      12.926  30.436  16.646  1.00  0.00    -0.084 Cl
HETATM    6  C   LIG     1      14.996  32.147  16.114  1.00  0.00     0.026 A 
HETATM    7  C   LIG     1      16.036  32.652  15.327  1.00  0.00     0.038 A 
ENDROOT
BRANCH   1   8
HETATM    8  O   LIG     1      17.355  32.540  13.243  1.00  0.00    -0.341 OA
BRANCH   8   9
HETATM    9  C   LIG     1      18.019  33.797  13.376  1.00  0.00     0.285 C 
BRANCH   9  10
HETATM   10  C   LIG     1      17.880  34.605  12.121  1.00  0.00     0.164 C 
HETATM   11  O   LIG     1      17.138  35.621  12.106  1.00  0.00    -0.648 OA
BRANCH  10  12
HETATM   12  O   LIG     1      18.546  34.226  10.959  1.00  0.00    -0.775 OA
HETATM   13  H   LIG     1      18.686  34.882  10.199  1.00  0.00     0.167 HD
ENDBRANCH  10  12
ENDBRANCH   9  10
ENDBRANCH   8   9
ENDBRANCH   1   8
TORSDOF 4
ENDMDL
MODEL 11
REMARK VINA RESULT:      -5.4      3.910      5.435
REMARK  4 active torsions:
REMARK  status: ('A' for Active; 'I' for Inactive)
REMARK    1  A    between atoms: C_2  and  C_4 
REMARK    2  A    between atoms: C_2  and  O_3 
REMARK    3  A    between atoms: C_4  and  O_5 
REMARK    4  A    between atoms: O_5  and  C_6 
ROOT
HETATM    1  C   LIG     1      18.370  37.540  20.531  1.00  0.00     0.069 A 
HETATM    2  C   LIG     1      18.537  38.666  21.348  1.00  0.00     0.038 A 
HETATM    3  C   LIG     1      17.981  38.701  22.630  1.00  0.00     0.026 A 
HETATM    4  C   LIG     1      17.252  37.608  23.108  1.00  0.00     0.034 A 
HETATM    5 CL   LIG     1      16.554  37.654  24.718  1.00  0.00    -0.084 Cl
HETATM    6  C   LIG     1      17.081  36.478  22.302  1.00  0.00     0.026 A 
HETATM    7  C   LIG     1      17.638  36.440  21.019  1.00  0.00     0.038 A 
ENDROOT
BRANCH   1   8
HETATM    8  O   LIG     1      18.950  37.556  19.251  1.00  0.00    -0.341 OA
BRANCH   8   9
HETATM    9  C   LIG     1      18.571  38.424  18.184  1.00  0.00     0.285 C 
BRANCH   9  10
HETATM   10  C   LIG     1      19.645  39.436  17.917  1.00  0.00     0.164 C 
HETATM   11  O   LIG     1      19.572  40.179  16.904  1.00  0.00    -0.648 OA
BRANCH  10  12
HETATM   12  O   LIG     1      20.741  39.545  18.768  1.00  0.00    -0.775 OA
HETATM   13  H   LIG     1      20.954  40.418  19.237  1.00  0.00     0.167 HD
ENDBRANCH  10  12
ENDBRANCH   9  10
ENDBRANCH   8   9
ENDBRANCH   1   8
TORSDOF 4
ENDMDL
MODEL 12
REMARK VINA RESULT:      -5.3      1.821      2.388
REMARK  4 active torsions:
REMARK  status: ('A' for Active; 'I' for Inactive)
REMARK    1  A    between atoms: C_2  and  C_4 
REMARK    2  A    between atoms: C_2  and  O_3 
REMARK    3  A    between atoms: C_4  and  O_5 
REMARK    4  A    between atoms: O_5  and  C_6 
ROOT
HETATM    1  C   LIG     1      18.153  37.464  21.295  1.00  0.00     0.069 A 
HETATM    2  C   LIG     1      18.458  38.830  21.254  1.00  0.00     0.038 A 
HETATM    3  C   LIG     1      18.867  39.430  20.059  1.00  0.00     0.026 A 
HETATM    4  C   LIG     1      18.974  38.668  18.892  1.00  0.00     0.034 A 
HETATM    5 CL   LIG     1      19.489  39.421  17.394  1.00  0.00    -0.084 Cl
HETATM    6  C   LIG     1      18.669  37.303  18.921  1.00  0.00     0.026 A 
HETATM    7  C   LIG     1      18.258  36.700  20.115  1.00  0.00     0.038 A 
ENDROOT
BRANCH   1   8
HETATM    8  O   LIG     1      17.745  36.911  22.521  1.00  0.00    -0.341 OA
BRANCH   8   9
HETATM    9  C   LIG     1      16.832  37.515  23.436  1.00  0.00     0.285 C 
BRANCH   9  10
HETATM   10  C   LIG     1      15.538  37.845  22.754  1.00  0.00     0.164 C 
HETATM   11  O   LIG     1      14.823  36.923  22.282  1.00  0.00    -0.648 OA
BRANCH  10  12
HETATM   12  O   LIG     1      15.130  39.168  22.615  1.00  0.00    -0.775 OA
HETATM   13  H   LIG     1      15.370  39.706  21.791  1.00  0.00     0.167 HD
ENDBRANCH  10  12
ENDBRANCH   9  10
ENDBRANCH   8   9
ENDBRANCH   1   8
TORSDOF 4
ENDMDL
MODEL 13
REMARK VINA RESULT:      -5.3      8.285      9.669
REMARK  4 active torsions:
REMARK  status: ('A' for Active; 'I' for Inactive)
REMARK    1  A    between atoms: C_2  and  C_4 
REMARK    2  A    between atoms: C_2  and  O_3 
REMARK    3  A    between atoms: C_4  and  O_5 
REMARK    4  A    between atoms: O_5  and  C_6 
ROOT
HETATM    1  C   LIG     1      15.085  31.989  15.841  1.00  0.00     0.069 A 
HETATM    2  C   LIG     1      15.687  31.318  14.769  1.00  0.00     0.038 A 
HETATM    3  C   LIG     1      15.056  30.221  14.173  1.00  0.00     0.026 A 
HETATM    4  C   LIG     1      13.815  29.786  14.645  1.00  0.00     0.034 A 
HETATM    5 CL   LIG     1      13.025  28.409  13.898  1.00  0.00    -0.084 Cl
HETATM    6  C   LIG     1      13.203  30.450  15.713  1.00  0.00     0.026 A 
HETATM    7  C   LIG     1      13.831  31.549  16.310  1.00  0.00     0.038 A 
ENDROOT
BRANCH   1   8
HETATM    8  O   LIG     1      15.761  33.085  16.402  1.00  0.00    -0.341 OA
BRANCH   8   9
HETATM    9  C   LIG     1      15.139  34.198  17.044  1.00  0.00     0.285 C 
BRANCH   9  10
HETATM   10  C   LIG     1      15.341  34.134  18.529  1.00  0.00     0.164 C 
HETATM   11  O   LIG     1      16.022  35.019  19.110  1.00  0.00    -0.648 OA
BRANCH  10  12
HETATM   12  O   LIG     1      14.803  33.087  19.271  1.00  0.00    -0.775 OA
HETATM   13  H   LIG     1      15.362  32.277  19.514  1.00  0.00     0.167 HD
ENDBRANCH  10  12
ENDBRANCH   9  10
ENDBRANCH   8   9
ENDBRANCH   1   8
TORSDOF 4
ENDMDL
MODEL 14
REMARK VINA RESULT:      -5.2      3.699      5.137
REMARK  4 active torsions:
REMARK  status: ('A' for Active; 'I' for Inactive)
REMARK    1  A    between atoms: C_2  and  C_4 
REMARK    2  A    between atoms: C_2  and  O_3 
REMARK    3  A    between atoms: C_4  and  O_5 
REMARK    4  A    between atoms: O_5  and  C_6 
ROOT
HETATM    1  C   LIG     1      15.998  35.745  21.139  1.00  0.00     0.069 A 
HETATM    2  C   LIG     1      17.156  35.935  20.374  1.00  0.00     0.038 A 
HETATM    3  C   LIG     1      18.025  36.994  20.655  1.00  0.00     0.026 A 
HETATM    4  C   LIG     1      17.745  37.872  21.705  1.00  0.00     0.034 A 
HETATM    5 CL   LIG     1      18.837  39.200  22.056  1.00  0.00    -0.084 Cl
HETATM    6  C   LIG     1      16.593  37.690  22.478  1.00  0.00     0.026 A 
HETATM    7  C   LIG     1      15.722  36.631  22.200  1.00  0.00     0.038 A 
ENDROOT
BRANCH   1   8
HETATM    8  O   LIG     1      15.158  34.666  20.815  1.00  0.00    -0.341 OA
BRANCH   8   9
HETATM    9  C   LIG     1      15.587  33.424  20.259  1.00  0.00     0.285 C 
BRANCH   9  10
HETATM   10  C   LIG     1      14.604  32.336  20.573  1.00  0.00     0.164 C 
HETATM   11  O   LIG     1      14.558  31.304  19.854  1.00  0.00    -0.648 OA
BRANCH  10  12
HETATM   12  O   LIG     1      13.721  32.467  21.640  1.00  0.00    -0.775 OA
HETATM   13  H   LIG     1      12.918  31.855  21.733  1.00  0.00     0.167 HD
ENDBRANCH  10  12
ENDBRANCH   9  10
ENDBRANCH   8   9
ENDBRANCH   1   8
TORSDOF 4
ENDMDL
MODEL 15
REMARK VINA RESULT:      -5.0      7.256      8.947
REMARK  4 active torsions:
REMARK  status: ('A' for Active; 'I' for Inactive)
REMARK    1  A    between atoms: C_2  and  C_4 
REMARK    2  A    between atoms: C_2  and  O_3 
REMARK    3  A    between atoms: C_4  and  O_5 
REMARK    4  A    between atoms: O_5  and  C_6 
ROOT
HETATM    1  C   LIG     1      14.908  32.983  17.694  1.00  0.00     0.069 A 
HETATM    2  C   LIG     1      15.231  34.339  17.826  1.00  0.00     0.038 A 
HETATM    3  C   LIG     1      15.615  34.860  19.066  1.00  0.00     0.026 A 
HETATM    4  C   LIG     1      15.682  34.027  20.186  1.00  0.00     0.034 A 
HETATM    5 CL   LIG     1      16.164  34.682  21.741  1.00  0.00    -0.084 Cl
HETATM    6  C   LIG     1      15.365  32.670  20.065  1.00  0.00     0.026 A 
HETATM    7  C   LIG     1      14.981  32.146  18.826  1.00  0.00     0.038 A 
ENDROOT
BRANCH   1   8
HETATM    8  O   LIG     1      14.529  32.510  16.427  1.00  0.00    -0.341 OA
BRANCH   8   9
HETATM    9  C   LIG     1      14.476  31.138  16.038  1.00  0.00     0.285 C 
BRANCH   9  10
HETATM   10  C   LIG     1      13.058  30.654  15.993  1.00  0.00     0.164 C 
HETATM   11  O   LIG     1      12.254  30.975  16.906  1.00  0.00    -0.648 OA
BRANCH  10  12
HETATM   12  O   LIG     1      12.626  29.827  14.960  1.00  0.00    -0.775 OA
HETATM   13  H   LIG     1      13.287  29.307  14.395  1.00  0.00     0.167 HD
ENDBRANCH  10  12
ENDBRANCH   9  10
ENDBRANCH   8   9
ENDBRANCH   1   8
TORSDOF 4
ENDMDL
MODEL 16
REMARK VINA RESULT:      -5.0      6.945      8.612
REMARK  4 active torsions:
REMARK  status: ('A' for Active; 'I' for Inactive)
REMARK    1  A    between atoms: C_2  and  C_4 
REMARK    2  A    between atoms: C_2  and  O_3 
REMARK    3  A    between atoms: C_4  and  O_5 
REMARK    4  A    between atoms: O_5  and  C_6 
ROOT
HETATM    1  C   LIG     1      14.941  33.003  17.615  1.00  0.00     0.069 A 
HETATM    2  C   LIG     1      15.241  34.360  17.783  1.00  0.00     0.038 A 
HETATM    3  C   LIG     1      15.606  34.856  19.039  1.00  0.00     0.026 A 
HETATM    4  C   LIG     1      15.676  33.997  20.138  1.00  0.00     0.034 A 
HETATM    5 CL   LIG     1      16.135  34.620  21.713  1.00  0.00    -0.084 Cl
HETATM    6  C   LIG     1      15.382  32.638  19.981  1.00  0.00     0.026 A 
HETATM    7  C   LIG     1      15.017  32.139  18.726  1.00  0.00     0.038 A 
ENDROOT
BRANCH   1   8
HETATM    8  O   LIG     1      14.580  32.556  16.333  1.00  0.00    -0.341 OA
BRANCH   8   9
HETATM    9  C   LIG     1      15.332  31.644  15.533  1.00  0.00     0.285 C 
BRANCH   9  10
HETATM   10  C   LIG     1      16.427  32.360  14.801  1.00  0.00     0.164 C 
HETATM   11  O   LIG     1      16.186  32.920  13.700  1.00  0.00    -0.648 OA
BRANCH  10  12
HETATM   12  O   LIG     1      17.720  32.389  15.315  1.00  0.00    -0.775 OA
HETATM   13  H   LIG     1      18.493  32.746  14.765  1.00  0.00     0.167 HD
ENDBRANCH  10  12
ENDBRANCH   9  10
ENDBRANCH   8   9
ENDBRANCH   1   8
TORSDOF 4
ENDMDL
MODEL 17
REMARK VINA RESULT:      -4.9      5.242      6.288
REMARK  4 active torsions:
REMARK  status: ('A' for Active; 'I' for Inactive)
REMARK    1  A    between atoms: C_2  and  C_4 
REMARK    2  A    between atoms: C_2  and  O_3 
REMARK    3  A    between atoms: C_4  and  O_5 
REMARK    4  A    between atoms: O_5  and  C_6 
ROOT
HETATM    1  C   LIG     1      15.568  33.905  19.171  1.00  0.00     0.069 A 
HETATM    2  C   LIG     1      15.225  34.208  17.848  1.00  0.00     0.038 A 
HETATM    3  C   LIG     1      14.593  33.255  17.042  1.00  0.00     0.026 A 
HETATM    4  C   LIG     1      14.298  31.989  17.555  1.00  0.00     0.034 A 
HETATM    5 CL   LIG     1      13.506  30.794  16.543  1.00  0.00    -0.084 Cl
HETATM    6  C   LIG     1      14.634  31.676  18.876  1.00  0.00     0.026 A 
HETATM    7  C   LIG     1      15.265  32.628  19.685  1.00  0.00     0.038 A 
ENDROOT
BRANCH   1   8
HETATM    8  O   LIG     1      16.201  34.898  19.937  1.00  0.00    -0.341 OA
BRANCH   8   9
HETATM    9  C   LIG     1      16.387  34.857  21.352  1.00  0.00     0.285 C 
BRANCH   9  10
HETATM   10  C   LIG     1      17.042  36.115  21.837  1.00  0.00     0.164 C 
HETATM   11  O   LIG     1      16.949  36.447  23.047  1.00  0.00    -0.648 OA
BRANCH  10  12
HETATM   12  O   LIG     1      17.734  36.938  20.953  1.00  0.00    -0.775 OA
HETATM   13  H   LIG     1      17.653  37.947  21.005  1.00  0.00     0.167 HD
ENDBRANCH  10  12
ENDBRANCH   9  10
ENDBRANCH   8   9
ENDBRANCH   1   8
TORSDOF 4
ENDMDL
MODEL 18
REMARK VINA RESULT:      -4.8      7.640      8.798
REMARK  4 active torsions:
REMARK  status: ('A' for Active; 'I' for Inactive)
REMARK    1  A    between atoms: C_2  and  C_4 
REMARK    2  A    between atoms: C_2  and  O_3 
REMARK    3  A    between atoms: C_4  and  O_5 
REMARK    4  A    between atoms: O_5  and  C_6 
ROOT
HETATM    1  C   LIG     1      15.706  32.140  15.327  1.00  0.00     0.069 A 
HETATM    2  C   LIG     1      16.570  33.183  15.684  1.00  0.00     0.038 A 
HETATM    3  C   LIG     1      17.434  33.744  14.739  1.00  0.00     0.026 A 
HETATM    4  C   LIG     1      17.440  33.268  13.425  1.00  0.00     0.034 A 
HETATM    5 CL   LIG     1      18.525  33.972  12.240  1.00  0.00    -0.084 Cl
HETATM    6  C   LIG     1      16.579  32.229  13.056  1.00  0.00     0.026 A 
HETATM    7  C   LIG     1      15.713  31.666  14.000  1.00  0.00     0.038 A 
ENDROOT
BRANCH   1   8
HETATM    8  O   LIG     1      14.858  31.612  16.315  1.00  0.00    -0.341 OA
BRANCH   8   9
HETATM    9  C   LIG     1      14.133  32.378  17.277  1.00  0.00     0.285 C 
BRANCH   9  10
HETATM   10  C   LIG     1      14.728  32.213  18.643  1.00  0.00     0.164 C 
HETATM   11  O   LIG     1      15.661  32.970  19.018  1.00  0.00    -0.648 OA
BRANCH  10  12
HETATM   12  O   LIG     1      14.276  31.210  19.496  1.00  0.00    -0.775 OA
HETATM   13  H   LIG     1      14.205  30.249  19.181  1.00  0.00     0.167 HD
ENDBRANCH  10  12
ENDBRANCH   9  10
ENDBRANCH   8   9
ENDBRANCH   1   8
TORSDOF 4
ENDMDL
MODEL 19
REMARK VINA RESULT:      -4.8      7.376      9.288
REMARK  4 active torsions:
REMARK  status: ('A' for Active; 'I' for Inactive)
REMARK    1  A    between atoms: C_2  and  C_4 
REMARK    2  A    between atoms: C_2  and  O_3 
REMARK    3  A    between atoms: C_4  and  O_5 
REMARK    4  A    between atoms: O_5  and  C_6 
ROOT
HETATM    1  C   LIG     1      15.022  32.823  17.678  1.00  0.00     0.069 A 
HETATM    2  C   LIG     1      14.994  32.046  18.843  1.00  0.00     0.038 A 
HETATM    3  C   LIG     1      15.266  32.623  20.087  1.00  0.00     0.026 A 
HETATM    4  C   LIG     1      15.567  33.985  20.178  1.00  0.00     0.034 A 
HETATM    5 CL   LIG     1      15.908  34.708  21.740  1.00  0.00    -0.084 Cl
HETATM    6  C   LIG     1      15.594  34.772  19.021  1.00  0.00     0.026 A 
HETATM    7  C   LIG     1      15.322  34.197  17.775  1.00  0.00     0.038 A 
ENDROOT
BRANCH   1   8
HETATM    8  O   LIG     1      14.741  32.195  16.453  1.00  0.00    -0.341 OA
BRANCH   8   9
HETATM    9  C   LIG     1      15.622  32.140  15.331  1.00  0.00     0.285 C 
BRANCH   9  10
HETATM   10  C   LIG     1      15.247  31.011  14.418  1.00  0.00     0.164 C 
HETATM   11  O   LIG     1      15.976  30.732  13.431  1.00  0.00    -0.648 OA
BRANCH  10  12
HETATM   12  O   LIG     1      14.083  30.281  14.637  1.00  0.00    -0.775 OA
HETATM   13  H   LIG     1      14.061  29.277  14.500  1.00  0.00     0.167 HD
ENDBRANCH  10  12
ENDBRANCH   9  10
ENDBRANCH   8   9
ENDBRANCH   1   8
TORSDOF 4
ENDMDL
MODEL 20
REMARK VINA RESULT:      -4.2      8.485     10.001
REMARK  4 active torsions:
REMARK  status: ('A' for Active; 'I' for Inactive)
REMARK    1  A    between atoms: C_2  and  C_4 
REMARK    2  A    between atoms: C_2  and  O_3 
REMARK    3  A    between atoms: C_4  and  O_5 
REMARK    4  A    between atoms: O_5  and  C_6 
ROOT
HETATM    1  C   LIG     1      15.183  32.593  15.837  1.00  0.00     0.069 A 
HETATM    2  C   LIG     1      15.686  33.444  16.830  1.00  0.00     0.038 A 
HETATM    3  C   LIG     1      15.440  33.181  18.181  1.00  0.00     0.026 A 
HETATM    4  C   LIG     1      14.690  32.061  18.552  1.00  0.00     0.034 A 
HETATM    5 CL   LIG     1      14.382  31.732  20.248  1.00  0.00    -0.084 Cl
HETATM    6  C   LIG     1      14.187  31.203  17.569  1.00  0.00     0.026 A 
HETATM    7  C   LIG     1      14.432  31.463  16.217  1.00  0.00     0.038 A 
ENDROOT
BRANCH   1   8
HETATM    8  O   LIG     1      15.459  32.903  14.495  1.00  0.00    -0.341 OA
BRANCH   8   9
HETATM    9  C   LIG     1      16.496  32.317  13.708  1.00  0.00     0.285 C 
BRANCH   9  10
HETATM   10  C   LIG     1      17.522  33.344  13.333  1.00  0.00     0.164 C 
HETATM   11  O   LIG     1      18.499  33.022  12.608  1.00  0.00    -0.648 OA
BRANCH  10  12
HETATM   12  O   LIG     1      17.417  34.651  13.800  1.00  0.00    -0.775 OA
HETATM   13  H   LIG     1      16.522  35.126  13.831  1.00  0.00     0.167 HD
ENDBRANCH  10  12
ENDBRANCH   9  10
ENDBRANCH   8   9
ENDBRANCH   1   8
TORSDOF 4
ENDMDL
