MODEL 1
REMARK VINA RESULT:      -9.0      0.000      0.000
REMARK  2 active torsions:
REMARK  status: ('A' for Active; 'I' for Inactive)
REMARK    1  A    between atoms: C_1  and  N_2 
REMARK    2  A    between atoms: N_2  and  C_3 
ROOT
HETATM    1  N   LIG     1      16.722  37.255  22.873  1.00  0.00    -0.356 N 
HETATM    2  H   LIG     1      15.693  37.424  22.785  1.00  0.00     0.166 HD
ENDROOT
BRANCH   1   3
HETATM    3  C   LIG     1      17.550  37.569  21.740  1.00  0.00     0.032 A 
HETATM    4  C   LIG     1      18.100  38.856  21.622  1.00  0.00     0.029 A 
HETATM    5  C   LIG     1      18.930  39.174  20.543  1.00  0.00     0.002 A 
HETATM    6  C   LIG     1      19.229  38.206  19.580  1.00  0.00     0.000 A 
HETATM    7  C   LIG     1      18.706  36.916  19.701  1.00  0.00     0.002 A 
HETATM    8  C   LIG     1      17.876  36.595  20.779  1.00  0.00     0.029 A 
ENDBRANCH   1   3
BRANCH   1   9
HETATM    9  C   LIG     1      17.212  36.727  24.117  1.00  0.00     0.032 A 
HETATM   10  C   LIG     1      17.115  35.349  24.367  1.00  0.00     0.029 A 
HETATM   11  C   LIG     1      17.610  34.811  25.559  1.00  0.00     0.002 A 
HETATM   12  C   LIG     1      18.218  35.641  26.504  1.00  0.00     0.000 A 
HETATM   13  C   LIG     1      18.340  37.011  26.254  1.00  0.00     0.002 A 
HETATM   14  C   LIG     1      17.846  37.553  25.063  1.00  0.00     0.029 A 
ENDBRANCH   1   9
TORSDOF 2
ENDMDL
MODEL 2
REMARK VINA RESULT:      -9.0      0.011      5.423
REMARK  2 active torsions:
REMARK  status: ('A' for Active; 'I' for Inactive)
REMARK    1  A    between atoms: C_1  and  N_2 
REMARK    2  A    between atoms: N_2  and  C_3 
ROOT
HETATM    1  N   LIG     1      16.719  37.259  22.871  1.00  0.00    -0.356 N 
HETATM    2  H   LIG     1      15.690  37.429  22.787  1.00  0.00     0.166 HD
ENDROOT
BRANCH   1   3
HETATM    3  C   LIG     1      17.209  36.728  24.115  1.00  0.00     0.032 A 
HETATM    4  C   LIG     1      17.122  35.348  24.359  1.00  0.00     0.029 A 
HETATM    5  C   LIG     1      17.617  34.808  25.550  1.00  0.00     0.002 A 
HETATM    6  C   LIG     1      18.216  35.639  26.500  1.00  0.00     0.000 A 
HETATM    7  C   LIG     1      18.330  37.010  26.256  1.00  0.00     0.002 A 
HETATM    8  C   LIG     1      17.836  37.554  25.067  1.00  0.00     0.029 A 
ENDBRANCH   1   3
BRANCH   1   9
HETATM    9  C   LIG     1      17.546  37.570  21.738  1.00  0.00     0.032 A 
HETATM   10  C   LIG     1      18.086  38.860  21.610  1.00  0.00     0.029 A 
HETATM   11  C   LIG     1      18.915  39.177  20.529  1.00  0.00     0.002 A 
HETATM   12  C   LIG     1      19.223  38.204  19.576  1.00  0.00     0.000 A 
HETATM   13  C   LIG     1      18.711  36.910  19.706  1.00  0.00     0.002 A 
HETATM   14  C   LIG     1      17.881  36.590  20.785  1.00  0.00     0.029 A 
ENDBRANCH   1   9
TORSDOF 2
ENDMDL
MODEL 3
REMARK VINA RESULT:      -8.6      0.292      5.134
REMARK  2 active torsions:
REMARK  status: ('A' for Active; 'I' for Inactive)
REMARK    1  A    between atoms: C_1  and  N_2 
REMARK    2  A    between atoms: N_2  and  C_3 
ROOT
HETATM    1  N   LIG     1      16.830  37.546  23.181  1.00  0.00    -0.356 N 
HETATM    2  H   LIG     1      15.840  37.884  23.167  1.00  0.00     0.166 HD
ENDROOT
BRANCH   1   3
HETATM    3  C   LIG     1      17.286  36.861  24.361  1.00  0.00     0.032 A 
HETATM    4  C   LIG     1      17.805  37.603  25.434  1.00  0.00     0.029 A 
HETATM    5  C   LIG     1      18.228  36.960  26.600  1.00  0.00     0.002 A 
HETATM    6  C   LIG     1      18.123  35.571  26.711  1.00  0.00     0.000 A 
HETATM    7  C   LIG     1      17.585  34.825  25.659  1.00  0.00     0.002 A 
HETATM    8  C   LIG     1      17.161  35.465  24.491  1.00  0.00     0.029 A 
ENDBRANCH   1   3
BRANCH   1   9
HETATM    9  C   LIG     1      17.642  37.797  22.022  1.00  0.00     0.032 A 
HETATM   10  C   LIG     1      17.857  36.766  21.094  1.00  0.00     0.029 A 
HETATM   11  C   LIG     1      18.622  36.997  19.945  1.00  0.00     0.002 A 
HETATM   12  C   LIG     1      19.164  38.262  19.708  1.00  0.00     0.000 A 
HETATM   13  C   LIG     1      18.936  39.301  20.614  1.00  0.00     0.002 A 
HETATM   14  C   LIG     1      18.173  39.075  21.764  1.00  0.00     0.029 A 
ENDBRANCH   1   9
TORSDOF 2
ENDMDL
MODEL 4
REMARK VINA RESULT:      -7.4      1.614      5.345
REMARK  2 active torsions:
REMARK  status: ('A' for Active; 'I' for Inactive)
REMARK    1  A    between atoms: C_1  and  N_2 
REMARK    2  A    between atoms: N_2  and  C_3 
ROOT
HETATM    1  N   LIG     1      16.531  37.344  23.513  1.00  0.00    -0.356 N 
HETATM    2  H   LIG     1      16.186  38.326  23.614  1.00  0.00     0.166 HD
ENDROOT
BRANCH   1   3
HETATM    3  C   LIG     1      17.215  36.756  24.633  1.00  0.00     0.032 A 
HETATM    4  C   LIG     1      17.162  35.366  24.822  1.00  0.00     0.029 A 
HETATM    5  C   LIG     1      17.842  34.770  25.888  1.00  0.00     0.002 A 
HETATM    6  C   LIG     1      18.593  35.557  26.766  1.00  0.00     0.000 A 
HETATM    7  C   LIG     1      18.672  36.938  26.572  1.00  0.00     0.002 A 
HETATM    8  C   LIG     1      17.993  37.537  25.507  1.00  0.00     0.029 A 
ENDBRANCH   1   3
BRANCH   1   9
HETATM    9  C   LIG     1      16.289  36.674  22.264  1.00  0.00     0.032 A 
HETATM   10  C   LIG     1      17.349  36.489  21.363  1.00  0.00     0.029 A 
HETATM   11  C   LIG     1      17.141  35.816  20.154  1.00  0.00     0.002 A 
HETATM   12  C   LIG     1      15.877  35.309  19.844  1.00  0.00     0.000 A 
HETATM   13  C   LIG     1      14.820  35.467  20.745  1.00  0.00     0.002 A 
HETATM   14  C   LIG     1      15.024  36.140  21.954  1.00  0.00     0.029 A 
ENDBRANCH   1   9
TORSDOF 2
ENDMDL
MODEL 5
REMARK VINA RESULT:      -7.4      1.645      2.398
REMARK  2 active torsions:
REMARK  status: ('A' for Active; 'I' for Inactive)
REMARK    1  A    between atoms: C_1  and  N_2 
REMARK    2  A    between atoms: N_2  and  C_3 
ROOT
HETATM    1  N   LIG     1      16.634  37.371  23.531  1.00  0.00    -0.356 N 
HETATM    2  H   LIG     1      16.364  38.378  23.612  1.00  0.00     0.166 HD
ENDROOT
BRANCH   1   3
HETATM    3  C   LIG     1      16.332  36.694  22.299  1.00  0.00     0.032 A 
HETATM    4  C   LIG     1      17.362  36.440  21.380  1.00  0.00     0.029 A 
HETATM    5  C   LIG     1      17.095  35.759  20.188  1.00  0.00     0.002 A 
HETATM    6  C   LIG     1      15.800  35.314  19.911  1.00  0.00     0.000 A 
HETATM    7  C   LIG     1      14.772  35.540  20.830  1.00  0.00     0.002 A 
HETATM    8  C   LIG     1      15.035  36.221  22.023  1.00  0.00     0.029 A 
ENDBRANCH   1   3
BRANCH   1   9
HETATM    9  C   LIG     1      17.282  36.758  24.658  1.00  0.00     0.032 A 
HETATM   10  C   LIG     1      17.171  35.372  24.849  1.00  0.00     0.029 A 
HETATM   11  C   LIG     1      17.816  34.751  25.923  1.00  0.00     0.002 A 
HETATM   12  C   LIG     1      18.589  35.508  26.807  1.00  0.00     0.000 A 
HETATM   13  C   LIG     1      18.726  36.885  26.613  1.00  0.00     0.002 A 
HETATM   14  C   LIG     1      18.082  37.509  25.540  1.00  0.00     0.029 A 
ENDBRANCH   1   9
TORSDOF 2
ENDMDL
MODEL 6
REMARK VINA RESULT:      -6.2      3.389      5.464
REMARK  2 active torsions:
REMARK  status: ('A' for Active; 'I' for Inactive)
REMARK    1  A    between atoms: C_1  and  N_2 
REMARK    2  A    between atoms: N_2  and  C_3 
ROOT
HETATM    1  N   LIG     1      16.051  34.742  21.325  1.00  0.00    -0.356 N 
HETATM    2  H   LIG     1      15.871  34.225  22.216  1.00  0.00     0.166 HD
ENDROOT
BRANCH   1   3
HETATM    3  C   LIG     1      16.636  36.053  21.419  1.00  0.00     0.032 A 
HETATM    4  C   LIG     1      16.112  36.978  22.337  1.00  0.00     0.029 A 
HETATM    5  C   LIG     1      16.682  38.248  22.464  1.00  0.00     0.002 A 
HETATM    6  C   LIG     1      17.789  38.600  21.687  1.00  0.00     0.000 A 
HETATM    7  C   LIG     1      18.332  37.679  20.788  1.00  0.00     0.002 A 
HETATM    8  C   LIG     1      17.764  36.407  20.658  1.00  0.00     0.029 A 
ENDBRANCH   1   3
BRANCH   1   9
HETATM    9  C   LIG     1      15.699  34.095  20.090  1.00  0.00     0.032 A 
HETATM   10  C   LIG     1      15.452  32.714  20.081  1.00  0.00     0.029 A 
HETATM   11  C   LIG     1      15.082  32.069  18.896  1.00  0.00     0.002 A 
HETATM   12  C   LIG     1      14.941  32.802  17.715  1.00  0.00     0.000 A 
HETATM   13  C   LIG     1      15.163  34.182  17.718  1.00  0.00     0.002 A 
HETATM   14  C   LIG     1      15.533  34.830  18.901  1.00  0.00     0.029 A 
ENDBRANCH   1   9
TORSDOF 2
ENDMDL
MODEL 7
REMARK VINA RESULT:      -6.2      3.388      5.200
REMARK  2 active torsions:
REMARK  status: ('A' for Active; 'I' for Inactive)
REMARK    1  A    between atoms: C_1  and  N_2 
REMARK    2  A    between atoms: N_2  and  C_3 
ROOT
HETATM    1  N   LIG     1      16.087  34.731  21.309  1.00  0.00    -0.356 N 
HETATM    2  H   LIG     1      15.925  34.203  22.198  1.00  0.00     0.166 HD
ENDROOT
BRANCH   1   3
HETATM    3  C   LIG     1      15.718  34.092  20.075  1.00  0.00     0.032 A 
HETATM    4  C   LIG     1      15.464  32.711  20.061  1.00  0.00     0.029 A 
HETATM    5  C   LIG     1      15.078  32.074  18.877  1.00  0.00     0.002 A 
HETATM    6  C   LIG     1      14.928  32.814  17.702  1.00  0.00     0.000 A 
HETATM    7  C   LIG     1      15.155  34.193  17.710  1.00  0.00     0.002 A 
HETATM    8  C   LIG     1      15.542  34.833  18.891  1.00  0.00     0.029 A 
ENDBRANCH   1   3
BRANCH   1   9
HETATM    9  C   LIG     1      16.662  36.045  21.405  1.00  0.00     0.032 A 
HETATM   10  C   LIG     1      16.144  36.959  22.336  1.00  0.00     0.029 A 
HETATM   11  C   LIG     1      16.705  38.233  22.464  1.00  0.00     0.002 A 
HETATM   12  C   LIG     1      17.798  38.599  21.674  1.00  0.00     0.000 A 
HETATM   13  C   LIG     1      18.336  37.689  20.761  1.00  0.00     0.002 A 
HETATM   14  C   LIG     1      17.777  36.413  20.629  1.00  0.00     0.029 A 
ENDBRANCH   1   9
TORSDOF 2
ENDMDL
MODEL 8
REMARK VINA RESULT:      -6.0      7.062      9.503
REMARK  2 active torsions:
REMARK  status: ('A' for Active; 'I' for Inactive)
REMARK    1  A    between atoms: C_1  and  N_2 
REMARK    2  A    between atoms: N_2  and  C_3 
ROOT
HETATM    1  N   LIG     1      15.217  33.222  16.401  1.00  0.00    -0.356 N 
HETATM    2  H   LIG     1      15.467  34.044  15.804  1.00  0.00     0.166 HD
ENDROOT
BRANCH   1   3
HETATM    3  C   LIG     1      15.277  33.390  17.828  1.00  0.00     0.032 A 
HETATM    4  C   LIG     1      15.209  32.260  18.660  1.00  0.00     0.029 A 
HETATM    5  C   LIG     1      15.293  32.398  20.048  1.00  0.00     0.002 A 
HETATM    6  C   LIG     1      15.461  33.663  20.618  1.00  0.00     0.000 A 
HETATM    7  C   LIG     1      15.555  34.791  19.798  1.00  0.00     0.002 A 
HETATM    8  C   LIG     1      15.470  34.657  18.409  1.00  0.00     0.029 A 
ENDBRANCH   1   3
BRANCH   1   9
HETATM    9  C   LIG     1      14.836  32.003  15.741  1.00  0.00     0.032 A 
HETATM   10  C   LIG     1      13.603  31.408  16.048  1.00  0.00     0.029 A 
HETATM   11  C   LIG     1      13.201  30.237  15.398  1.00  0.00     0.002 A 
HETATM   12  C   LIG     1      14.021  29.660  14.425  1.00  0.00     0.000 A 
HETATM   13  C   LIG     1      15.240  30.258  14.094  1.00  0.00     0.002 A 
HETATM   14  C   LIG     1      15.645  31.429  14.743  1.00  0.00     0.029 A 
ENDBRANCH   1   9
TORSDOF 2
ENDMDL
MODEL 9
REMARK VINA RESULT:      -6.0      7.107      8.745
REMARK  2 active torsions:
REMARK  status: ('A' for Active; 'I' for Inactive)
REMARK    1  A    between atoms: C_1  and  N_2 
REMARK    2  A    between atoms: N_2  and  C_3 
ROOT
HETATM    1  N   LIG     1      14.640  33.207  16.487  1.00  0.00    -0.356 N 
HETATM    2  H   LIG     1      14.391  34.081  15.969  1.00  0.00     0.166 HD
ENDROOT
BRANCH   1   3
HETATM    3  C   LIG     1      14.570  31.961  15.772  1.00  0.00     0.032 A 
HETATM    4  C   LIG     1      13.443  31.139  15.929  1.00  0.00     0.029 A 
HETATM    5  C   LIG     1      13.341  29.936  15.222  1.00  0.00     0.002 A 
HETATM    6  C   LIG     1      14.357  29.553  14.343  1.00  0.00     0.000 A 
HETATM    7  C   LIG     1      15.471  30.376  14.162  1.00  0.00     0.002 A 
HETATM    8  C   LIG     1      15.577  31.579  14.867  1.00  0.00     0.029 A 
ENDBRANCH   1   3
BRANCH   1   9
HETATM    9  C   LIG     1      15.032  33.333  17.865  1.00  0.00     0.032 A 
HETATM   10  C   LIG     1      15.320  34.604  18.387  1.00  0.00     0.029 A 
HETATM   11  C   LIG     1      15.677  34.753  19.731  1.00  0.00     0.002 A 
HETATM   12  C   LIG     1      15.732  33.635  20.568  1.00  0.00     0.000 A 
HETATM   13  C   LIG     1      15.424  32.369  20.064  1.00  0.00     0.002 A 
HETATM   14  C   LIG     1      15.068  32.216  18.720  1.00  0.00     0.029 A 
ENDBRANCH   1   9
TORSDOF 2
ENDMDL
MODEL 10
REMARK VINA RESULT:      -6.0      7.111      9.445
REMARK  2 active torsions:
REMARK  status: ('A' for Active; 'I' for Inactive)
REMARK    1  A    between atoms: C_1  and  N_2 
REMARK    2  A    between atoms: N_2  and  C_3 
ROOT
HETATM    1  N   LIG     1      14.661  33.200  16.478  1.00  0.00    -0.356 N 
HETATM    2  H   LIG     1      14.422  34.076  15.957  1.00  0.00     0.166 HD
ENDROOT
BRANCH   1   3
HETATM    3  C   LIG     1      15.044  33.327  17.858  1.00  0.00     0.032 A 
HETATM    4  C   LIG     1      15.341  34.596  18.379  1.00  0.00     0.029 A 
HETATM    5  C   LIG     1      15.689  34.746  19.724  1.00  0.00     0.002 A 
HETATM    6  C   LIG     1      15.729  33.630  20.565  1.00  0.00     0.000 A 
HETATM    7  C   LIG     1      15.411  32.366  20.063  1.00  0.00     0.002 A 
HETATM    8  C   LIG     1      15.063  32.213  18.717  1.00  0.00     0.029 A 
ENDBRANCH   1   3
BRANCH   1   9
HETATM    9  C   LIG     1      14.584  31.954  15.766  1.00  0.00     0.032 A 
HETATM   10  C   LIG     1      13.435  31.156  15.893  1.00  0.00     0.029 A 
HETATM   11  C   LIG     1      13.328  29.953  15.189  1.00  0.00     0.002 A 
HETATM   12  C   LIG     1      14.360  29.544  14.340  1.00  0.00     0.000 A 
HETATM   13  C   LIG     1      15.497  30.342  14.188  1.00  0.00     0.002 A 
HETATM   14  C   LIG     1      15.608  31.546  14.892  1.00  0.00     0.029 A 
ENDBRANCH   1   9
TORSDOF 2
ENDMDL
