REMARK  2 active torsions:
REMARK  status: ('A' for Active; 'I' for Inactive)
REMARK       I    between atoms: C_2  and  N_3 
REMARK    1  A    between atoms: N_3  and  C_4 
REMARK    2  A    between atoms: C_9  and  C_10 
ROOT
HETATM    1  C   LIG     1       0.325  -0.722   0.036  1.00  0.00     0.034 A 
HETATM    2  C   LIG     1      -0.645  -1.416  -0.702  1.00  0.00     0.030 A 
HETATM    3  C   LIG     1      -1.948  -0.918  -0.805  1.00  0.00     0.017 A 
HETATM    4  C   LIG     1      -0.039   0.459   0.705  1.00  0.00     0.030 A 
HETATM    5  C   LIG     1      -1.341   0.958   0.602  1.00  0.00     0.017 A 
HETATM    6  C   LIG     1      -2.304   0.276  -0.156  1.00  0.00     0.002 A 
ENDROOT
BRANCH   1   7
HETATM    7  N   LIG     1       1.649  -1.268   0.151  1.00  0.00    -0.328 N 
HETATM    8  C   LIG     1       2.844  -0.484   0.290  1.00  0.00     0.218 C 
HETATM    9  C   LIG     1       2.971   0.883  -0.312  1.00  0.00     0.117 C 
HETATM   10  O   LIG     1       3.837  -0.979   0.886  1.00  0.00    -0.274 OA
HETATM   11  H   LIG     1       1.754  -2.308   0.141  1.00  0.00     0.169 HD
ENDBRANCH   1   7
BRANCH   6  12
HETATM   12  C   LIG     1      -3.673   0.817  -0.253  1.00  0.00     0.269 C 
HETATM   13  O   LIG     1      -4.560   0.226  -0.924  1.00  0.00    -0.301 OA
ENDBRANCH   6  12
TORSDOF 2
