MODEL 1
REMARK VINA RESULT:      -6.4      0.000      0.000
REMARK  2 active torsions:
REMARK  status: ('A' for Active; 'I' for Inactive)
REMARK       I    between atoms: C_2  and  N_3 
REMARK    1  A    between atoms: N_3  and  C_4 
REMARK    2  A    between atoms: C_7  and  N_8 
ROOT
HETATM    1  C   LIG     1      16.817  35.618  22.469  1.00  0.00     0.034 A 
HETATM    2  C   LIG     1      16.676  36.993  22.205  1.00  0.00     0.032 A 
HETATM    3  C   LIG     1      16.819  37.928  23.235  1.00  0.00     0.031 A 
HETATM    4  C   LIG     1      17.118  37.505  24.537  1.00  0.00     0.025 A 
HETATM    5  C   LIG     1      17.282  36.138  24.799  1.00  0.00     0.031 A 
HETATM    6  C   LIG     1      17.139  35.203  23.770  1.00  0.00     0.032 A 
ENDROOT
BRANCH   1   7
HETATM    7  N   LIG     1      16.699  34.637  21.425  1.00  0.00    -0.328 N 
HETATM    8  C   LIG     1      15.460  34.029  21.025  1.00  0.00     0.218 C 
HETATM    9  C   LIG     1      15.416  33.176  19.799  1.00  0.00     0.117 C 
HETATM   10  O   LIG     1      14.418  34.174  21.718  1.00  0.00    -0.274 OA
HETATM   11  H   LIG     1      17.577  34.280  20.984  1.00  0.00     0.169 HD
ENDBRANCH   1   7
BRANCH   4  12
HETATM   12  N   LIG     1      17.266  38.463  25.589  1.00  0.00    -0.399 N 
HETATM   13  H   LIG     1      17.107  38.191  26.585  1.00  0.00     0.156 HD
HETATM   14  H   LIG     1      17.532  39.450  25.379  1.00  0.00     0.156 HD
ENDBRANCH   4  12
TORSDOF 2
ENDMDL
MODEL 2
REMARK VINA RESULT:      -6.1      4.590      8.551
REMARK  2 active torsions:
REMARK  status: ('A' for Active; 'I' for Inactive)
REMARK       I    between atoms: C_2  and  N_3 
REMARK    1  A    between atoms: N_3  and  C_4 
REMARK    2  A    between atoms: C_7  and  N_8 
ROOT
HETATM    1  C   LIG     1      14.870  32.438  17.080  1.00  0.00     0.034 A 
HETATM    2  C   LIG     1      15.815  32.472  16.038  1.00  0.00     0.032 A 
HETATM    3  C   LIG     1      15.686  31.617  14.939  1.00  0.00     0.031 A 
HETATM    4  C   LIG     1      14.606  30.728  14.859  1.00  0.00     0.025 A 
HETATM    5  C   LIG     1      13.650  30.706  15.884  1.00  0.00     0.031 A 
HETATM    6  C   LIG     1      13.779  31.561  16.983  1.00  0.00     0.032 A 
ENDROOT
BRANCH   1   7
HETATM    7  N   LIG     1      14.964  33.321  18.210  1.00  0.00    -0.328 N 
HETATM    8  C   LIG     1      15.449  32.928  19.504  1.00  0.00     0.218 C 
HETATM    9  C   LIG     1      15.698  33.967  20.548  1.00  0.00     0.117 C 
HETATM   10  O   LIG     1      15.629  31.712  19.783  1.00  0.00    -0.274 OA
HETATM   11  H   LIG     1      14.581  34.289  18.111  1.00  0.00     0.169 HD
ENDBRANCH   1   7
BRANCH   4  12
HETATM   12  N   LIG     1      14.475  29.855  13.733  1.00  0.00    -0.399 N 
HETATM   13  H   LIG     1      14.078  28.896  13.845  1.00  0.00     0.156 HD
HETATM   14  H   LIG     1      14.776  30.160  12.781  1.00  0.00     0.156 HD
ENDBRANCH   4  12
TORSDOF 2
ENDMDL
MODEL 3
REMARK VINA RESULT:      -5.9      2.308      2.793
REMARK  2 active torsions:
REMARK  status: ('A' for Active; 'I' for Inactive)
REMARK       I    between atoms: C_2  and  N_3 
REMARK    1  A    between atoms: N_3  and  C_4 
REMARK    2  A    between atoms: C_7  and  N_8 
ROOT
HETATM    1  C   LIG     1      17.045  36.102  21.155  1.00  0.00     0.034 A 
HETATM    2  C   LIG     1      18.062  36.431  20.241  1.00  0.00     0.032 A 
HETATM    3  C   LIG     1      18.676  37.687  20.289  1.00  0.00     0.031 A 
HETATM    4  C   LIG     1      18.293  38.623  21.258  1.00  0.00     0.025 A 
HETATM    5  C   LIG     1      17.295  38.290  22.185  1.00  0.00     0.031 A 
HETATM    6  C   LIG     1      16.682  37.035  22.137  1.00  0.00     0.032 A 
ENDROOT
BRANCH   1   7
HETATM    7  N   LIG     1      16.413  34.810  21.143  1.00  0.00    -0.328 N 
HETATM    8  C   LIG     1      15.808  34.218  19.983  1.00  0.00     0.218 C 
HETATM    9  C   LIG     1      15.362  32.792  20.027  1.00  0.00     0.117 C 
HETATM   10  O   LIG     1      15.613  34.897  18.940  1.00  0.00    -0.274 OA
HETATM   11  H   LIG     1      16.313  34.304  22.053  1.00  0.00     0.169 HD
ENDBRANCH   1   7
BRANCH   4  12
HETATM   12  N   LIG     1      18.922  39.907  21.307  1.00  0.00    -0.399 N 
HETATM   13  H   LIG     1      19.778  40.060  21.886  1.00  0.00     0.156 HD
HETATM   14  H   LIG     1      18.537  40.712  20.766  1.00  0.00     0.156 HD
ENDBRANCH   4  12
TORSDOF 2
ENDMDL
MODEL 4
REMARK VINA RESULT:      -5.9      3.315      4.056
REMARK  2 active torsions:
REMARK  status: ('A' for Active; 'I' for Inactive)
REMARK       I    between atoms: C_2  and  N_3 
REMARK    1  A    between atoms: N_3  and  C_4 
REMARK    2  A    between atoms: C_7  and  N_8 
ROOT
HETATM    1  C   LIG     1      17.711  37.049  20.890  1.00  0.00     0.034 A 
HETATM    2  C   LIG     1      17.835  38.402  21.253  1.00  0.00     0.032 A 
HETATM    3  C   LIG     1      18.805  39.210  20.650  1.00  0.00     0.031 A 
HETATM    4  C   LIG     1      19.653  38.681  19.669  1.00  0.00     0.025 A 
HETATM    5  C   LIG     1      19.518  37.339  19.288  1.00  0.00     0.031 A 
HETATM    6  C   LIG     1      18.548  36.531  19.890  1.00  0.00     0.032 A 
ENDROOT
BRANCH   1   7
HETATM    7  N   LIG     1      16.708  36.202  21.476  1.00  0.00    -0.328 N 
HETATM    8  C   LIG     1      15.938  35.236  20.743  1.00  0.00     0.218 C 
HETATM    9  C   LIG     1      15.070  34.268  21.479  1.00  0.00     0.117 C 
HETATM   10  O   LIG     1      15.956  35.220  19.482  1.00  0.00    -0.274 OA
HETATM   11  H   LIG     1      16.462  36.354  22.481  1.00  0.00     0.169 HD
ENDBRANCH   1   7
BRANCH   4  12
HETATM   12  N   LIG     1      20.644  39.508  19.052  1.00  0.00    -0.399 N 
HETATM   13  H   LIG     1      21.236  40.149  19.626  1.00  0.00     0.156 HD
HETATM   14  H   LIG     1      20.792  39.487  18.019  1.00  0.00     0.156 HD
ENDBRANCH   4  12
TORSDOF 2
ENDMDL
MODEL 5
REMARK VINA RESULT:      -5.8      1.786      2.359
REMARK  2 active torsions:
REMARK  status: ('A' for Active; 'I' for Inactive)
REMARK       I    between atoms: C_2  and  N_3 
REMARK    1  A    between atoms: N_3  and  C_4 
REMARK    2  A    between atoms: C_7  and  N_8 
ROOT
HETATM    1  C   LIG     1      16.717  36.067  23.202  1.00  0.00     0.034 A 
HETATM    2  C   LIG     1      17.082  35.071  24.126  1.00  0.00     0.032 A 
HETATM    3  C   LIG     1      17.768  35.410  25.297  1.00  0.00     0.031 A 
HETATM    4  C   LIG     1      18.086  36.748  25.566  1.00  0.00     0.025 A 
HETATM    5  C   LIG     1      17.705  37.746  24.659  1.00  0.00     0.031 A 
HETATM    6  C   LIG     1      17.019  37.407  23.489  1.00  0.00     0.032 A 
ENDROOT
BRANCH   1   7
HETATM    7  N   LIG     1      15.991  35.750  22.003  1.00  0.00    -0.328 N 
HETATM    8  C   LIG     1      16.597  35.585  20.711  1.00  0.00     0.218 C 
HETATM    9  C   LIG     1      15.785  35.057  19.574  1.00  0.00     0.117 C 
HETATM   10  O   LIG     1      17.798  35.917  20.516  1.00  0.00    -0.274 OA
HETATM   11  H   LIG     1      14.947  35.718  22.054  1.00  0.00     0.169 HD
ENDBRANCH   1   7
BRANCH   4  12
HETATM   12  N   LIG     1      18.787  37.094  26.764  1.00  0.00    -0.399 N 
HETATM   13  H   LIG     1      19.799  37.353  26.735  1.00  0.00     0.156 HD
HETATM   14  H   LIG     1      18.301  37.091  27.688  1.00  0.00     0.156 HD
ENDBRANCH   4  12
TORSDOF 2
ENDMDL
MODEL 6
REMARK VINA RESULT:      -5.7      2.200      4.901
REMARK  2 active torsions:
REMARK  status: ('A' for Active; 'I' for Inactive)
REMARK       I    between atoms: C_2  and  N_3 
REMARK    1  A    between atoms: N_3  and  C_4 
REMARK    2  A    between atoms: C_7  and  N_8 
ROOT
HETATM    1  C   LIG     1      16.281  36.879  22.329  1.00  0.00     0.034 A 
HETATM    2  C   LIG     1      17.311  36.627  21.405  1.00  0.00     0.032 A 
HETATM    3  C   LIG     1      17.071  35.831  20.280  1.00  0.00     0.031 A 
HETATM    4  C   LIG     1      15.798  35.289  20.057  1.00  0.00     0.025 A 
HETATM    5  C   LIG     1      14.764  35.557  20.963  1.00  0.00     0.031 A 
HETATM    6  C   LIG     1      15.003  36.353  22.087  1.00  0.00     0.032 A 
ENDROOT
BRANCH   1   7
HETATM    7  N   LIG     1      16.493  37.713  23.481  1.00  0.00    -0.328 N 
HETATM    8  C   LIG     1      17.084  37.259  24.708  1.00  0.00     0.218 C 
HETATM    9  C   LIG     1      17.445  38.250  25.767  1.00  0.00     0.117 C 
HETATM   10  O   LIG     1      17.268  36.030  24.920  1.00  0.00    -0.274 OA
HETATM   11  H   LIG     1      16.119  38.690  23.457  1.00  0.00     0.169 HD
ENDBRANCH   1   7
BRANCH   4  12
HETATM   12  N   LIG     1      15.555  34.476  18.905  1.00  0.00    -0.399 N 
HETATM   13  H   LIG     1      14.615  34.051  18.741  1.00  0.00     0.156 HD
HETATM   14  H   LIG     1      16.312  34.292  18.210  1.00  0.00     0.156 HD
ENDBRANCH   4  12
TORSDOF 2
ENDMDL
MODEL 7
REMARK VINA RESULT:      -5.7      3.108      4.029
REMARK  2 active torsions:
REMARK  status: ('A' for Active; 'I' for Inactive)
REMARK       I    between atoms: C_2  and  N_3 
REMARK    1  A    between atoms: N_3  and  C_4 
REMARK    2  A    between atoms: C_7  and  N_8 
ROOT
HETATM    1  C   LIG     1      17.327  37.230  22.850  1.00  0.00     0.034 A 
HETATM    2  C   LIG     1      17.466  37.822  24.118  1.00  0.00     0.032 A 
HETATM    3  C   LIG     1      17.399  37.039  25.275  1.00  0.00     0.031 A 
HETATM    4  C   LIG     1      17.207  35.654  25.181  1.00  0.00     0.025 A 
HETATM    5  C   LIG     1      17.091  35.057  23.918  1.00  0.00     0.031 A 
HETATM    6  C   LIG     1      17.158  35.840  22.761  1.00  0.00     0.032 A 
ENDROOT
BRANCH   1   7
HETATM    7  N   LIG     1      17.416  38.006  21.644  1.00  0.00    -0.328 N 
HETATM    8  C   LIG     1      18.516  38.870  21.319  1.00  0.00     0.218 C 
HETATM    9  C   LIG     1      18.607  39.472  19.954  1.00  0.00     0.117 C 
HETATM   10  O   LIG     1      19.386  39.159  22.183  1.00  0.00    -0.274 OA
HETATM   11  H   LIG     1      16.592  38.009  20.999  1.00  0.00     0.169 HD
ENDBRANCH   1   7
BRANCH   4  12
HETATM   12  N   LIG     1      17.139  34.855  26.365  1.00  0.00    -0.399 N 
HETATM   13  H   LIG     1      16.576  35.166  27.188  1.00  0.00     0.156 HD
HETATM   14  H   LIG     1      17.653  33.948  26.428  1.00  0.00     0.156 HD
ENDBRANCH   4  12
TORSDOF 2
ENDMDL
MODEL 8
REMARK VINA RESULT:      -5.6      8.791     10.530
REMARK  2 active torsions:
REMARK  status: ('A' for Active; 'I' for Inactive)
REMARK       I    between atoms: C_2  and  N_3 
REMARK    1  A    between atoms: N_3  and  C_4 
REMARK    2  A    between atoms: C_7  and  N_8 
ROOT
HETATM    1  C   LIG     1      14.751  29.908  14.119  1.00  0.00     0.034 A 
HETATM    2  C   LIG     1      13.465  29.670  14.635  1.00  0.00     0.032 A 
HETATM    3  C   LIG     1      12.993  30.409  15.725  1.00  0.00     0.031 A 
HETATM    4  C   LIG     1      13.793  31.404  16.303  1.00  0.00     0.025 A 
HETATM    5  C   LIG     1      15.067  31.660  15.776  1.00  0.00     0.031 A 
HETATM    6  C   LIG     1      15.538  30.921  14.687  1.00  0.00     0.032 A 
ENDROOT
BRANCH   1   7
HETATM    7  N   LIG     1      15.253  29.180  12.985  1.00  0.00    -0.328 N 
HETATM    8  C   LIG     1      15.652  27.801  13.023  1.00  0.00     0.218 C 
HETATM    9  C   LIG     1      15.963  27.085  11.749  1.00  0.00     0.117 C 
HETATM   10  O   LIG     1      15.780  27.197  14.122  1.00  0.00    -0.274 OA
HETATM   11  H   LIG     1      15.416  29.706  12.096  1.00  0.00     0.169 HD
ENDBRANCH   1   7
BRANCH   4  12
HETATM   12  N   LIG     1      13.309  32.159  17.417  1.00  0.00    -0.399 N 
HETATM   13  H   LIG     1      12.573  31.769  18.047  1.00  0.00     0.156 HD
HETATM   14  H   LIG     1      13.681  33.114  17.618  1.00  0.00     0.156 HD
ENDBRANCH   4  12
TORSDOF 2
ENDMDL
MODEL 9
REMARK VINA RESULT:      -5.5      8.570     10.367
REMARK  2 active torsions:
REMARK  status: ('A' for Active; 'I' for Inactive)
REMARK       I    between atoms: C_2  and  N_3 
REMARK    1  A    between atoms: N_3  and  C_4 
REMARK    2  A    between atoms: C_7  and  N_8 
ROOT
HETATM    1  C   LIG     1      13.429  29.949  14.617  1.00  0.00     0.034 A 
HETATM    2  C   LIG     1      14.664  30.351  14.076  1.00  0.00     0.032 A 
HETATM    3  C   LIG     1      15.461  31.282  14.750  1.00  0.00     0.031 A 
HETATM    4  C   LIG     1      15.043  31.812  15.978  1.00  0.00     0.025 A 
HETATM    5  C   LIG     1      13.824  31.397  16.531  1.00  0.00     0.031 A 
HETATM    6  C   LIG     1      13.027  30.467  15.858  1.00  0.00     0.032 A 
ENDROOT
BRANCH   1   7
HETATM    7  N   LIG     1      12.600  28.977  13.958  1.00  0.00    -0.328 N 
HETATM    8  C   LIG     1      13.029  27.649  13.618  1.00  0.00     0.218 C 
HETATM    9  C   LIG     1      12.031  26.653  13.122  1.00  0.00     0.117 C 
HETATM   10  O   LIG     1      14.244  27.324  13.695  1.00  0.00    -0.274 OA
HETATM   11  H   LIG     1      11.653  29.278  13.631  1.00  0.00     0.169 HD
ENDBRANCH   1   7
BRANCH   4  12
HETATM   12  N   LIG     1      15.860  32.763  16.666  1.00  0.00    -0.399 N 
HETATM   13  H   LIG     1      16.073  32.648  17.682  1.00  0.00     0.156 HD
HETATM   14  H   LIG     1      16.257  33.589  16.166  1.00  0.00     0.156 HD
ENDBRANCH   4  12
TORSDOF 2
ENDMDL
MODEL 10
REMARK VINA RESULT:      -5.5      8.174      9.383
REMARK  2 active torsions:
REMARK  status: ('A' for Active; 'I' for Inactive)
REMARK       I    between atoms: C_2  and  N_3 
REMARK    1  A    between atoms: N_3  and  C_4 
REMARK    2  A    between atoms: C_7  and  N_8 
ROOT
HETATM    1  C   LIG     1      16.015  32.054  15.314  1.00  0.00     0.034 A 
HETATM    2  C   LIG     1      15.381  32.643  16.423  1.00  0.00     0.032 A 
HETATM    3  C   LIG     1      14.158  32.144  16.885  1.00  0.00     0.031 A 
HETATM    4  C   LIG     1      13.561  31.044  16.254  1.00  0.00     0.025 A 
HETATM    5  C   LIG     1      14.201  30.441  15.163  1.00  0.00     0.031 A 
HETATM    6  C   LIG     1      15.423  30.939  14.702  1.00  0.00     0.032 A 
ENDROOT
BRANCH   1   7
HETATM    7  N   LIG     1      17.283  32.531  14.833  1.00  0.00    -0.328 N 
HETATM    8  C   LIG     1      17.444  33.377  13.684  1.00  0.00     0.218 C 
HETATM    9  C   LIG     1      18.779  33.981  13.390  1.00  0.00     0.117 C 
HETATM   10  O   LIG     1      16.482  33.586  12.897  1.00  0.00    -0.274 OA
HETATM   11  H   LIG     1      18.150  32.175  15.297  1.00  0.00     0.169 HD
ENDBRANCH   1   7
BRANCH   4  12
HETATM   12  N   LIG     1      12.311  30.535  16.728  1.00  0.00    -0.399 N 
HETATM   13  H   LIG     1      11.844  29.734  16.247  1.00  0.00     0.156 HD
HETATM   14  H   LIG     1      11.843  30.955  17.562  1.00  0.00     0.156 HD
ENDBRANCH   4  12
TORSDOF 2
ENDMDL
MODEL 11
REMARK VINA RESULT:      -5.5      8.188      9.397
REMARK  2 active torsions:
REMARK  status: ('A' for Active; 'I' for Inactive)
REMARK       I    between atoms: C_2  and  N_3 
REMARK    1  A    between atoms: N_3  and  C_4 
REMARK    2  A    between atoms: C_7  and  N_8 
ROOT
HETATM    1  C   LIG     1      16.035  32.000  15.319  1.00  0.00     0.034 A 
HETATM    2  C   LIG     1      15.412  30.911  14.683  1.00  0.00     0.032 A 
HETATM    3  C   LIG     1      14.186  30.426  15.152  1.00  0.00     0.031 A 
HETATM    4  C   LIG     1      13.561  31.031  16.250  1.00  0.00     0.025 A 
HETATM    5  C   LIG     1      14.168  32.131  16.872  1.00  0.00     0.031 A 
HETATM    6  C   LIG     1      15.393  32.615  16.404  1.00  0.00     0.032 A 
ENDROOT
BRANCH   1   7
HETATM    7  N   LIG     1      17.283  32.534  14.845  1.00  0.00    -0.328 N 
HETATM    8  C   LIG     1      17.413  33.378  13.690  1.00  0.00     0.218 C 
HETATM    9  C   LIG     1      18.719  34.044  13.403  1.00  0.00     0.117 C 
HETATM   10  O   LIG     1      16.448  33.535  12.894  1.00  0.00    -0.274 OA
HETATM   11  H   LIG     1      18.162  32.224  15.318  1.00  0.00     0.169 HD
ENDBRANCH   1   7
BRANCH   4  12
HETATM   12  N   LIG     1      12.307  30.535  16.727  1.00  0.00    -0.399 N 
HETATM   13  H   LIG     1      11.911  29.642  16.358  1.00  0.00     0.156 HD
HETATM   14  H   LIG     1      11.766  31.057  17.451  1.00  0.00     0.156 HD
ENDBRANCH   4  12
TORSDOF 2
ENDMDL
MODEL 12
REMARK VINA RESULT:      -5.5      3.872      5.438
REMARK  2 active torsions:
REMARK  status: ('A' for Active; 'I' for Inactive)
REMARK       I    between atoms: C_2  and  N_3 
REMARK    1  A    between atoms: N_3  and  C_4 
REMARK    2  A    between atoms: C_7  and  N_8 
ROOT
HETATM    1  C   LIG     1      17.970  37.883  21.455  1.00  0.00     0.034 A 
HETATM    2  C   LIG     1      18.326  36.995  20.424  1.00  0.00     0.032 A 
HETATM    3  C   LIG     1      18.969  37.469  19.275  1.00  0.00     0.031 A 
HETATM    4  C   LIG     1      19.276  38.830  19.148  1.00  0.00     0.025 A 
HETATM    5  C   LIG     1      18.943  39.714  20.184  1.00  0.00     0.031 A 
HETATM    6  C   LIG     1      18.301  39.241  21.332  1.00  0.00     0.032 A 
ENDROOT
BRANCH   1   7
HETATM    7  N   LIG     1      17.331  37.421  22.657  1.00  0.00    -0.328 N 
HETATM    8  C   LIG     1      17.759  37.766  23.984  1.00  0.00     0.218 C 
HETATM    9  C   LIG     1      16.906  37.402  25.155  1.00  0.00     0.117 C 
HETATM   10  O   LIG     1      18.864  38.340  24.175  1.00  0.00    -0.274 OA
HETATM   11  H   LIG     1      16.556  36.723  22.565  1.00  0.00     0.169 HD
ENDBRANCH   1   7
BRANCH   4  12
HETATM   12  N   LIG     1      19.934  39.312  17.973  1.00  0.00    -0.399 N 
HETATM   13  H   LIG     1      20.617  40.100  18.029  1.00  0.00     0.156 HD
HETATM   14  H   LIG     1      19.742  38.886  17.039  1.00  0.00     0.156 HD
ENDBRANCH   4  12
TORSDOF 2
ENDMDL
MODEL 13
REMARK VINA RESULT:      -5.4      1.645      2.291
REMARK  2 active torsions:
REMARK  status: ('A' for Active; 'I' for Inactive)
REMARK       I    between atoms: C_2  and  N_3 
REMARK    1  A    between atoms: N_3  and  C_4 
REMARK    2  A    between atoms: C_7  and  N_8 
ROOT
HETATM    1  C   LIG     1      15.587  34.995  21.623  1.00  0.00     0.034 A 
HETATM    2  C   LIG     1      16.751  34.982  22.412  1.00  0.00     0.032 A 
HETATM    3  C   LIG     1      17.129  36.120  23.132  1.00  0.00     0.031 A 
HETATM    4  C   LIG     1      16.344  37.279  23.084  1.00  0.00     0.025 A 
HETATM    5  C   LIG     1      15.171  37.288  22.317  1.00  0.00     0.031 A 
HETATM    6  C   LIG     1      14.792  36.151  21.598  1.00  0.00     0.032 A 
ENDROOT
BRANCH   1   7
HETATM    7  N   LIG     1      15.161  33.833  20.891  1.00  0.00    -0.328 N 
HETATM    8  C   LIG     1      15.402  33.627  19.490  1.00  0.00     0.218 C 
HETATM    9  C   LIG     1      15.100  32.300  18.874  1.00  0.00     0.117 C 
HETATM   10  O   LIG     1      15.829  34.566  18.766  1.00  0.00    -0.274 OA
HETATM   11  H   LIG     1      14.567  33.129  21.388  1.00  0.00     0.169 HD
ENDBRANCH   1   7
BRANCH   4  12
HETATM   12  N   LIG     1      16.731  38.442  23.822  1.00  0.00    -0.399 N 
HETATM   13  H   LIG     1      17.114  38.356  24.790  1.00  0.00     0.156 HD
HETATM   14  H   LIG     1      16.637  39.395  23.407  1.00  0.00     0.156 HD
ENDBRANCH   4  12
TORSDOF 2
ENDMDL
MODEL 14
REMARK VINA RESULT:      -5.3      1.868      2.042
REMARK  2 active torsions:
REMARK  status: ('A' for Active; 'I' for Inactive)
REMARK       I    between atoms: C_2  and  N_3 
REMARK    1  A    between atoms: N_3  and  C_4 
REMARK    2  A    between atoms: C_7  and  N_8 
ROOT
HETATM    1  C   LIG     1      16.307  35.690  21.000  1.00  0.00     0.034 A 
HETATM    2  C   LIG     1      15.225  36.180  21.753  1.00  0.00     0.032 A 
HETATM    3  C   LIG     1      15.349  37.372  22.475  1.00  0.00     0.031 A 
HETATM    4  C   LIG     1      16.548  38.095  22.444  1.00  0.00     0.025 A 
HETATM    5  C   LIG     1      17.622  37.621  21.677  1.00  0.00     0.031 A 
HETATM    6  C   LIG     1      17.498  36.431  20.955  1.00  0.00     0.032 A 
ENDROOT
BRANCH   1   7
HETATM    7  N   LIG     1      16.200  34.481  20.229  1.00  0.00    -0.328 N 
HETATM    8  C   LIG     1      15.215  33.462  20.459  1.00  0.00     0.218 C 
HETATM    9  C   LIG     1      15.061  32.346  19.477  1.00  0.00     0.117 C 
HETATM   10  O   LIG     1      14.504  33.475  21.499  1.00  0.00    -0.274 OA
HETATM   11  H   LIG     1      16.935  34.290  19.509  1.00  0.00     0.169 HD
ENDBRANCH   1   7
BRANCH   4  12
HETATM   12  N   LIG     1      16.673  39.314  23.182  1.00  0.00    -0.399 N 
HETATM   13  H   LIG     1      15.826  39.823  23.519  1.00  0.00     0.156 HD
HETATM   14  H   LIG     1      17.613  39.716  23.396  1.00  0.00     0.156 HD
ENDBRANCH   4  12
TORSDOF 2
ENDMDL
MODEL 15
REMARK VINA RESULT:      -5.3      3.186      4.888
REMARK  2 active torsions:
REMARK  status: ('A' for Active; 'I' for Inactive)
REMARK       I    between atoms: C_2  and  N_3 
REMARK    1  A    between atoms: N_3  and  C_4 
REMARK    2  A    between atoms: C_7  and  N_8 
ROOT
HETATM    1  C   LIG     1      17.444  36.111  20.522  1.00  0.00     0.034 A 
HETATM    2  C   LIG     1      17.243  35.787  21.876  1.00  0.00     0.032 A 
HETATM    3  C   LIG     1      16.139  35.019  22.262  1.00  0.00     0.031 A 
HETATM    4  C   LIG     1      15.232  34.554  21.302  1.00  0.00     0.025 A 
HETATM    5  C   LIG     1      15.441  34.855  19.949  1.00  0.00     0.031 A 
HETATM    6  C   LIG     1      16.544  35.623  19.563  1.00  0.00     0.032 A 
ENDROOT
BRANCH   1   7
HETATM    7  N   LIG     1      18.581  36.878  20.093  1.00  0.00    -0.328 N 
HETATM    8  C   LIG     1      18.783  38.265  20.405  1.00  0.00     0.218 C 
HETATM    9  C   LIG     1      20.092  38.913  20.087  1.00  0.00     0.117 C 
HETATM   10  O   LIG     1      17.856  38.954  20.910  1.00  0.00    -0.274 OA
HETATM   11  H   LIG     1      19.265  36.424  19.445  1.00  0.00     0.169 HD
ENDBRANCH   1   7
BRANCH   4  12
HETATM   12  N   LIG     1      14.105  33.768  21.699  1.00  0.00    -0.399 N 
HETATM   13  H   LIG     1      13.802  32.944  21.133  1.00  0.00     0.156 HD
HETATM   14  H   LIG     1      13.564  34.004  22.560  1.00  0.00     0.156 HD
ENDBRANCH   4  12
TORSDOF 2
ENDMDL
MODEL 16
REMARK VINA RESULT:      -5.1      5.408      9.233
REMARK  2 active torsions:
REMARK  status: ('A' for Active; 'I' for Inactive)
REMARK       I    between atoms: C_2  and  N_3 
REMARK    1  A    between atoms: N_3  and  C_4 
REMARK    2  A    between atoms: C_7  and  N_8 
ROOT
HETATM    1  C   LIG     1      14.840  31.837  16.665  1.00  0.00     0.034 A 
HETATM    2  C   LIG     1      13.575  31.248  16.841  1.00  0.00     0.032 A 
HETATM    3  C   LIG     1      13.059  30.381  15.873  1.00  0.00     0.031 A 
HETATM    4  C   LIG     1      13.804  30.080  14.725  1.00  0.00     0.025 A 
HETATM    5  C   LIG     1      15.075  30.647  14.556  1.00  0.00     0.031 A 
HETATM    6  C   LIG     1      15.591  31.514  15.524  1.00  0.00     0.032 A 
ENDROOT
BRANCH   1   7
HETATM    7  N   LIG     1      15.406  32.713  17.654  1.00  0.00    -0.328 N 
HETATM    8  C   LIG     1      15.214  34.136  17.677  1.00  0.00     0.218 C 
HETATM    9  C   LIG     1      15.673  34.927  18.858  1.00  0.00     0.117 C 
HETATM   10  O   LIG     1      14.697  34.733  16.694  1.00  0.00    -0.274 OA
HETATM   11  H   LIG     1      16.066  32.303  18.354  1.00  0.00     0.169 HD
ENDBRANCH   1   7
BRANCH   4  12
HETATM   12  N   LIG     1      13.275  29.192  13.736  1.00  0.00    -0.399 N 
HETATM   13  H   LIG     1      13.566  28.189  13.709  1.00  0.00     0.156 HD
HETATM   14  H   LIG     1      12.590  29.530  13.024  1.00  0.00     0.156 HD
ENDBRANCH   4  12
TORSDOF 2
ENDMDL
MODEL 17
REMARK VINA RESULT:      -5.1      3.457      4.330
REMARK  2 active torsions:
REMARK  status: ('A' for Active; 'I' for Inactive)
REMARK       I    between atoms: C_2  and  N_3 
REMARK    1  A    between atoms: N_3  and  C_4 
REMARK    2  A    between atoms: C_7  and  N_8 
ROOT
HETATM    1  C   LIG     1      17.710  38.079  21.659  1.00  0.00     0.034 A 
HETATM    2  C   LIG     1      17.185  36.788  21.847  1.00  0.00     0.032 A 
HETATM    3  C   LIG     1      17.008  36.278  23.137  1.00  0.00     0.031 A 
HETATM    4  C   LIG     1      17.339  37.054  24.255  1.00  0.00     0.025 A 
HETATM    5  C   LIG     1      17.842  38.350  24.073  1.00  0.00     0.031 A 
HETATM    6  C   LIG     1      18.019  38.860  22.784  1.00  0.00     0.032 A 
ENDROOT
BRANCH   1   7
HETATM    7  N   LIG     1      17.881  38.638  20.346  1.00  0.00    -0.328 N 
HETATM    8  C   LIG     1      19.154  38.953  19.761  1.00  0.00     0.218 C 
HETATM    9  C   LIG     1      19.233  39.337  18.319  1.00  0.00     0.117 C 
HETATM   10  O   LIG     1      20.203  38.947  20.460  1.00  0.00    -0.274 OA
HETATM   11  H   LIG     1      17.023  38.911  19.812  1.00  0.00     0.169 HD
ENDBRANCH   1   7
BRANCH   4  12
HETATM   12  N   LIG     1      17.157  36.531  25.574  1.00  0.00    -0.399 N 
HETATM   13  H   LIG     1      16.958  37.168  26.378  1.00  0.00     0.156 HD
HETATM   14  H   LIG     1      17.221  35.505  25.756  1.00  0.00     0.156 HD
ENDBRANCH   4  12
TORSDOF 2
ENDMDL
MODEL 18
REMARK VINA RESULT:      -5.0      8.818     10.928
REMARK  2 active torsions:
REMARK  status: ('A' for Active; 'I' for Inactive)
REMARK       I    between atoms: C_2  and  N_3 
REMARK    1  A    between atoms: N_3  and  C_4 
REMARK    2  A    between atoms: C_7  and  N_8 
ROOT
HETATM    1  C   LIG     1      15.297  30.787  14.791  1.00  0.00     0.034 A 
HETATM    2  C   LIG     1      13.978  30.908  15.265  1.00  0.00     0.032 A 
HETATM    3  C   LIG     1      13.016  29.949  14.933  1.00  0.00     0.031 A 
HETATM    4  C   LIG     1      13.362  28.849  14.136  1.00  0.00     0.025 A 
HETATM    5  C   LIG     1      14.680  28.713  13.680  1.00  0.00     0.031 A 
HETATM    6  C   LIG     1      15.642  29.672  14.012  1.00  0.00     0.032 A 
ENDROOT
BRANCH   1   7
HETATM    7  N   LIG     1      16.311  31.745  15.136  1.00  0.00    -0.328 N 
HETATM    8  C   LIG     1      16.664  32.875  14.323  1.00  0.00     0.218 C 
HETATM    9  C   LIG     1      17.584  33.920  14.866  1.00  0.00     0.117 C 
HETATM   10  O   LIG     1      16.238  32.977  13.141  1.00  0.00    -0.274 OA
HETATM   11  H   LIG     1      16.887  31.566  15.991  1.00  0.00     0.169 HD
ENDBRANCH   1   7
BRANCH   4  12
HETATM   12  N   LIG     1      12.377  27.869  13.798  1.00  0.00    -0.399 N 
HETATM   13  H   LIG     1      12.319  26.968  14.324  1.00  0.00     0.156 HD
HETATM   14  H   LIG     1      11.702  28.034  13.019  1.00  0.00     0.156 HD
ENDBRANCH   4  12
TORSDOF 2
ENDMDL
MODEL 19
REMARK VINA RESULT:      -4.9      4.375      5.917
REMARK  2 active torsions:
REMARK  status: ('A' for Active; 'I' for Inactive)
REMARK       I    between atoms: C_2  and  N_3 
REMARK    1  A    between atoms: N_3  and  C_4 
REMARK    2  A    between atoms: C_7  and  N_8 
ROOT
HETATM    1  C   LIG     1      15.077  32.987  17.650  1.00  0.00     0.034 A 
HETATM    2  C   LIG     1      15.309  34.360  17.845  1.00  0.00     0.032 A 
HETATM    3  C   LIG     1      15.538  34.863  19.130  1.00  0.00     0.031 A 
HETATM    4  C   LIG     1      15.551  34.000  20.234  1.00  0.00     0.025 A 
HETATM    5  C   LIG     1      15.343  32.627  20.041  1.00  0.00     0.031 A 
HETATM    6  C   LIG     1      15.114  32.125  18.757  1.00  0.00     0.032 A 
ENDROOT
BRANCH   1   7
HETATM    7  N   LIG     1      14.863  32.439  16.338  1.00  0.00    -0.328 N 
HETATM    8  C   LIG     1      15.916  32.108  15.420  1.00  0.00     0.218 C 
HETATM    9  C   LIG     1      15.599  31.357  14.168  1.00  0.00     0.117 C 
HETATM   10  O   LIG     1      17.102  32.477  15.638  1.00  0.00    -0.274 OA
HETATM   11  H   LIG     1      13.878  32.352  15.996  1.00  0.00     0.169 HD
ENDBRANCH   1   7
BRANCH   4  12
HETATM   12  N   LIG     1      15.786  34.516  21.547  1.00  0.00    -0.399 N 
HETATM   13  H   LIG     1      15.008  34.939  22.101  1.00  0.00     0.156 HD
HETATM   14  H   LIG     1      16.738  34.480  21.974  1.00  0.00     0.156 HD
ENDBRANCH   4  12
TORSDOF 2
ENDMDL
MODEL 20
REMARK VINA RESULT:      -4.8      6.189     10.183
REMARK  2 active torsions:
REMARK  status: ('A' for Active; 'I' for Inactive)
REMARK       I    between atoms: C_2  and  N_3 
REMARK    1  A    between atoms: N_3  and  C_4 
REMARK    2  A    between atoms: C_7  and  N_8 
ROOT
HETATM    1  C   LIG     1      14.396  31.110  15.651  1.00  0.00     0.034 A 
HETATM    2  C   LIG     1      15.357  30.459  14.857  1.00  0.00     0.032 A 
HETATM    3  C   LIG     1      15.010  29.326  14.114  1.00  0.00     0.031 A 
HETATM    4  C   LIG     1      13.696  28.839  14.142  1.00  0.00     0.025 A 
HETATM    5  C   LIG     1      12.730  29.499  14.914  1.00  0.00     0.031 A 
HETATM    6  C   LIG     1      13.077  30.631  15.657  1.00  0.00     0.032 A 
ENDROOT
BRANCH   1   7
HETATM    7  N   LIG     1      14.719  32.290  16.406  1.00  0.00    -0.328 N 
HETATM    8  C   LIG     1      14.740  32.350  17.841  1.00  0.00     0.218 C 
HETATM    9  C   LIG     1      15.286  33.561  18.524  1.00  0.00     0.117 C 
HETATM   10  O   LIG     1      14.268  31.407  18.532  1.00  0.00    -0.274 OA
HETATM   11  H   LIG     1      14.868  33.184  15.883  1.00  0.00     0.169 HD
ENDBRANCH   1   7
BRANCH   4  12
HETATM   12  N   LIG     1      13.342  27.681  13.381  1.00  0.00    -0.399 N 
HETATM   13  H   LIG     1      13.295  27.721  12.338  1.00  0.00     0.156 HD
HETATM   14  H   LIG     1      13.124  26.776  13.853  1.00  0.00     0.156 HD
ENDBRANCH   4  12
TORSDOF 2
ENDMDL
