MODEL 1
REMARK VINA RESULT:      -6.3      0.000      0.000
REMARK  4 active torsions:
REMARK  status: ('A' for Active; 'I' for Inactive)
REMARK    1  A    between atoms: O_1  and  C_2 
REMARK    2  A    between atoms: C_2  and  C_3 
REMARK    3  A    between atoms: C_3  and  O_4 
REMARK    4  A    between atoms: O_4  and  C_5 
ROOT
HETATM    1  C   LIG     1      17.215  36.273  24.251  1.00  0.00     0.068 A 
HETATM    2  C   LIG     1      17.306  34.996  24.821  1.00  0.00     0.037 A 
HETATM    3  C   LIG     1      17.892  34.820  26.077  1.00  0.00     0.003 A 
HETATM    4  C   LIG     1      18.397  35.919  26.775  1.00  0.00     0.000 A 
HETATM    5  C   LIG     1      18.319  37.196  26.215  1.00  0.00     0.003 A 
HETATM    6  C   LIG     1      17.734  37.377  24.958  1.00  0.00     0.037 A 
ENDROOT
BRANCH   1   7
HETATM    7  O   LIG     1      16.619  36.393  22.984  1.00  0.00    -0.349 OA
BRANCH   7   8
HETATM    8  C   LIG     1      16.427  35.329  22.051  1.00  0.00     0.201 C 
BRANCH   8   9
HETATM    9  C   LIG     1      15.128  35.517  21.261  1.00  0.00     0.190 C 
BRANCH   9  10
HETATM   10  O   LIG     1      14.213  34.503  21.572  1.00  0.00    -0.399 OA
HETATM   11  H   LIG     1      14.735  33.764  21.982  1.00  0.00     0.209 HD
ENDBRANCH   9  10
ENDBRANCH   8   9
ENDBRANCH   7   8
ENDBRANCH   1   7
TORSDOF 4
ENDMDL
MODEL 2
REMARK VINA RESULT:      -6.1      2.053      3.276
REMARK  4 active torsions:
REMARK  status: ('A' for Active; 'I' for Inactive)
REMARK    1  A    between atoms: O_1  and  C_2 
REMARK    2  A    between atoms: C_2  and  C_3 
REMARK    3  A    between atoms: C_3  and  O_4 
REMARK    4  A    between atoms: O_4  and  C_5 
ROOT
HETATM    1  C   LIG     1      17.170  36.888  24.366  1.00  0.00     0.068 A 
HETATM    2  C   LIG     1      17.856  37.575  25.376  1.00  0.00     0.037 A 
HETATM    3  C   LIG     1      18.440  36.878  26.438  1.00  0.00     0.003 A 
HETATM    4  C   LIG     1      18.339  35.487  26.502  1.00  0.00     0.000 A 
HETATM    5  C   LIG     1      17.652  34.791  25.505  1.00  0.00     0.003 A 
HETATM    6  C   LIG     1      17.067  35.484  24.440  1.00  0.00     0.037 A 
ENDROOT
BRANCH   1   7
HETATM    7  O   LIG     1      16.601  37.638  23.323  1.00  0.00    -0.349 OA
BRANCH   7   8
HETATM    8  C   LIG     1      17.095  38.884  22.828  1.00  0.00     0.201 C 
BRANCH   8   9
HETATM    9  C   LIG     1      18.040  38.671  21.643  1.00  0.00     0.190 C 
BRANCH   9  10
HETATM   10  O   LIG     1      18.968  39.717  21.561  1.00  0.00    -0.399 OA
HETATM   11  H   LIG     1      18.445  40.557  21.478  1.00  0.00     0.209 HD
ENDBRANCH   9  10
ENDBRANCH   8   9
ENDBRANCH   7   8
ENDBRANCH   1   7
TORSDOF 4
ENDMDL
MODEL 3
REMARK VINA RESULT:      -6.0      3.377      5.171
REMARK  4 active torsions:
REMARK  status: ('A' for Active; 'I' for Inactive)
REMARK    1  A    between atoms: O_1  and  C_2 
REMARK    2  A    between atoms: C_2  and  C_3 
REMARK    3  A    between atoms: C_3  and  O_4 
REMARK    4  A    between atoms: O_4  and  C_5 
ROOT
HETATM    1  C   LIG     1      17.724  37.545  21.427  1.00  0.00     0.068 A 
HETATM    2  C   LIG     1      18.126  36.644  20.432  1.00  0.00     0.037 A 
HETATM    3  C   LIG     1      19.064  37.023  19.468  1.00  0.00     0.003 A 
HETATM    4  C   LIG     1      19.608  38.309  19.487  1.00  0.00     0.000 A 
HETATM    5  C   LIG     1      19.211  39.219  20.469  1.00  0.00     0.003 A 
HETATM    6  C   LIG     1      18.272  38.845  21.436  1.00  0.00     0.037 A 
ENDROOT
BRANCH   1   7
HETATM    7  O   LIG     1      16.777  37.113  22.370  1.00  0.00    -0.349 OA
BRANCH   7   8
HETATM    8  C   LIG     1      16.316  37.867  23.492  1.00  0.00     0.201 C 
BRANCH   8   9
HETATM    9  C   LIG     1      17.116  37.525  24.752  1.00  0.00     0.190 C 
BRANCH   9  10
HETATM   10  O   LIG     1      17.212  38.643  25.591  1.00  0.00    -0.399 OA
HETATM   11  H   LIG     1      17.006  38.328  26.510  1.00  0.00     0.209 HD
ENDBRANCH   9  10
ENDBRANCH   8   9
ENDBRANCH   7   8
ENDBRANCH   1   7
TORSDOF 4
ENDMDL
MODEL 4
REMARK VINA RESULT:      -5.9      3.657      4.644
REMARK  4 active torsions:
REMARK  status: ('A' for Active; 'I' for Inactive)
REMARK    1  A    between atoms: O_1  and  C_2 
REMARK    2  A    between atoms: C_2  and  C_3 
REMARK    3  A    between atoms: C_3  and  O_4 
REMARK    4  A    between atoms: O_4  and  C_5 
ROOT
HETATM    1  C   LIG     1      17.992  36.881  20.771  1.00  0.00     0.068 A 
HETATM    2  C   LIG     1      17.803  38.015  21.571  1.00  0.00     0.037 A 
HETATM    3  C   LIG     1      18.493  39.200  21.298  1.00  0.00     0.003 A 
HETATM    4  C   LIG     1      19.382  39.260  20.223  1.00  0.00     0.000 A 
HETATM    5  C   LIG     1      19.585  38.135  19.422  1.00  0.00     0.003 A 
HETATM    6  C   LIG     1      18.898  36.947  19.691  1.00  0.00     0.037 A 
ENDROOT
BRANCH   1   7
HETATM    7  O   LIG     1      17.276  35.716  21.091  1.00  0.00    -0.349 OA
BRANCH   7   8
HETATM    8  C   LIG     1      16.096  35.257  20.430  1.00  0.00     0.201 C 
BRANCH   8   9
HETATM    9  C   LIG     1      14.844  35.576  21.252  1.00  0.00     0.190 C 
BRANCH   9  10
HETATM   10  O   LIG     1      14.173  34.397  21.604  1.00  0.00    -0.399 OA
HETATM   11  H   LIG     1      13.436  34.282  20.948  1.00  0.00     0.209 HD
ENDBRANCH   9  10
ENDBRANCH   8   9
ENDBRANCH   7   8
ENDBRANCH   1   7
TORSDOF 4
ENDMDL
MODEL 5
REMARK VINA RESULT:      -5.8      2.391      4.860
REMARK  4 active torsions:
REMARK  status: ('A' for Active; 'I' for Inactive)
REMARK    1  A    between atoms: O_1  and  C_2 
REMARK    2  A    between atoms: C_2  and  C_3 
REMARK    3  A    between atoms: C_3  and  O_4 
REMARK    4  A    between atoms: O_4  and  C_5 
ROOT
HETATM    1  C   LIG     1      17.019  37.532  22.977  1.00  0.00     0.068 A 
HETATM    2  C   LIG     1      17.778  38.498  22.305  1.00  0.00     0.037 A 
HETATM    3  C   LIG     1      18.313  38.229  21.042  1.00  0.00     0.003 A 
HETATM    4  C   LIG     1      18.096  36.988  20.441  1.00  0.00     0.000 A 
HETATM    5  C   LIG     1      17.347  36.013  21.103  1.00  0.00     0.003 A 
HETATM    6  C   LIG     1      16.810  36.278  22.367  1.00  0.00     0.037 A 
ENDROOT
BRANCH   1   7
HETATM    7  O   LIG     1      16.507  37.854  24.245  1.00  0.00    -0.349 OA
BRANCH   7   8
HETATM    8  C   LIG     1      17.285  38.154  25.405  1.00  0.00     0.201 C 
BRANCH   8   9
HETATM    9  C   LIG     1      18.161  36.962  25.803  1.00  0.00     0.190 C 
BRANCH   9  10
HETATM   10  O   LIG     1      17.592  36.273  26.882  1.00  0.00    -0.399 OA
HETATM   11  H   LIG     1      18.339  36.018  27.484  1.00  0.00     0.209 HD
ENDBRANCH   9  10
ENDBRANCH   8   9
ENDBRANCH   7   8
ENDBRANCH   1   7
TORSDOF 4
ENDMDL
MODEL 6
REMARK VINA RESULT:      -5.4      2.017      4.235
REMARK  4 active torsions:
REMARK  status: ('A' for Active; 'I' for Inactive)
REMARK    1  A    between atoms: O_1  and  C_2 
REMARK    2  A    between atoms: C_2  and  C_3 
REMARK    3  A    between atoms: C_3  and  O_4 
REMARK    4  A    between atoms: O_4  and  C_5 
ROOT
HETATM    1  C   LIG     1      17.152  36.776  23.591  1.00  0.00     0.068 A 
HETATM    2  C   LIG     1      16.935  35.576  22.900  1.00  0.00     0.037 A 
HETATM    3  C   LIG     1      17.117  35.512  21.516  1.00  0.00     0.003 A 
HETATM    4  C   LIG     1      17.514  36.648  20.808  1.00  0.00     0.000 A 
HETATM    5  C   LIG     1      17.727  37.852  21.484  1.00  0.00     0.003 A 
HETATM    6  C   LIG     1      17.545  37.921  22.869  1.00  0.00     0.037 A 
ENDROOT
BRANCH   1   7
HETATM    7  O   LIG     1      16.952  36.785  24.982  1.00  0.00    -0.349 OA
BRANCH   7   8
HETATM    8  C   LIG     1      17.956  36.542  25.968  1.00  0.00     0.201 C 
BRANCH   8   9
HETATM    9  C   LIG     1      18.079  35.047  26.273  1.00  0.00     0.190 C 
BRANCH   9  10
HETATM   10  O   LIG     1      16.811  34.472  26.433  1.00  0.00    -0.399 OA
HETATM   11  H   LIG     1      16.278  35.106  26.982  1.00  0.00     0.209 HD
ENDBRANCH   9  10
ENDBRANCH   8   9
ENDBRANCH   7   8
ENDBRANCH   1   7
TORSDOF 4
ENDMDL
MODEL 7
REMARK VINA RESULT:      -5.3      5.259      8.801
REMARK  4 active torsions:
REMARK  status: ('A' for Active; 'I' for Inactive)
REMARK    1  A    between atoms: O_1  and  C_2 
REMARK    2  A    between atoms: C_2  and  C_3 
REMARK    3  A    between atoms: C_3  and  O_4 
REMARK    4  A    between atoms: O_4  and  C_5 
ROOT
HETATM    1  C   LIG     1      15.010  32.426  17.402  1.00  0.00     0.068 A 
HETATM    2  C   LIG     1      15.782  32.492  16.235  1.00  0.00     0.037 A 
HETATM    3  C   LIG     1      15.451  31.716  15.120  1.00  0.00     0.003 A 
HETATM    4  C   LIG     1      14.347  30.862  15.164  1.00  0.00     0.000 A 
HETATM    5  C   LIG     1      13.573  30.782  16.324  1.00  0.00     0.003 A 
HETATM    6  C   LIG     1      13.900  31.556  17.441  1.00  0.00     0.037 A 
ENDROOT
BRANCH   1   7
HETATM    7  O   LIG     1      15.388  33.225  18.493  1.00  0.00    -0.349 OA
BRANCH   7   8
HETATM    8  C   LIG     1      15.391  32.818  19.862  1.00  0.00     0.201 C 
BRANCH   8   9
HETATM    9  C   LIG     1      15.312  34.028  20.797  1.00  0.00     0.190 C 
BRANCH   9  10
HETATM   10  O   LIG     1      14.116  34.008  21.526  1.00  0.00    -0.399 OA
HETATM   11  H   LIG     1      13.398  34.299  20.904  1.00  0.00     0.209 HD
ENDBRANCH   9  10
ENDBRANCH   8   9
ENDBRANCH   7   8
ENDBRANCH   1   7
TORSDOF 4
ENDMDL
MODEL 8
REMARK VINA RESULT:      -5.2      9.455     10.655
REMARK  4 active torsions:
REMARK  status: ('A' for Active; 'I' for Inactive)
REMARK    1  A    between atoms: O_1  and  C_2 
REMARK    2  A    between atoms: C_2  and  C_3 
REMARK    3  A    between atoms: C_3  and  O_4 
REMARK    4  A    between atoms: O_4  and  C_5 
ROOT
HETATM    1  C   LIG     1      15.522  31.529  15.105  1.00  0.00     0.068 A 
HETATM    2  C   LIG     1      15.087  32.235  16.234  1.00  0.00     0.037 A 
HETATM    3  C   LIG     1      13.853  31.942  16.822  1.00  0.00     0.003 A 
HETATM    4  C   LIG     1      13.041  30.942  16.285  1.00  0.00     0.000 A 
HETATM    5  C   LIG     1      13.459  30.235  15.156  1.00  0.00     0.003 A 
HETATM    6  C   LIG     1      14.693  30.525  14.563  1.00  0.00     0.037 A 
ENDROOT
BRANCH   1   7
HETATM    7  O   LIG     1      16.769  31.865  14.552  1.00  0.00    -0.349 OA
BRANCH   7   8
HETATM    8  C   LIG     1      17.492  33.071  14.803  1.00  0.00     0.201 C 
BRANCH   8   9
HETATM    9  C   LIG     1      17.807  33.807  13.497  1.00  0.00     0.190 C 
BRANCH   9  10
HETATM   10  O   LIG     1      16.711  33.750  12.626  1.00  0.00    -0.399 OA
HETATM   11  H   LIG     1      16.656  34.636  12.180  1.00  0.00     0.209 HD
ENDBRANCH   9  10
ENDBRANCH   8   9
ENDBRANCH   7   8
ENDBRANCH   1   7
TORSDOF 4
ENDMDL
MODEL 9
REMARK VINA RESULT:      -5.2      9.596     10.743
REMARK  4 active torsions:
REMARK  status: ('A' for Active; 'I' for Inactive)
REMARK    1  A    between atoms: O_1  and  C_2 
REMARK    2  A    between atoms: C_2  and  C_3 
REMARK    3  A    between atoms: C_3  and  O_4 
REMARK    4  A    between atoms: O_4  and  C_5 
ROOT
HETATM    1  C   LIG     1      15.667  31.610  14.919  1.00  0.00     0.068 A 
HETATM    2  C   LIG     1      14.957  30.559  14.324  1.00  0.00     0.037 A 
HETATM    3  C   LIG     1      13.758  30.106  14.884  1.00  0.00     0.003 A 
HETATM    4  C   LIG     1      13.261  30.697  16.047  1.00  0.00     0.000 A 
HETATM    5  C   LIG     1      13.963  31.741  16.654  1.00  0.00     0.003 A 
HETATM    6  C   LIG     1      15.162  32.197  16.098  1.00  0.00     0.037 A 
ENDROOT
BRANCH   1   7
HETATM    7  O   LIG     1      16.866  32.024  14.316  1.00  0.00    -0.349 OA
BRANCH   7   8
HETATM    8  C   LIG     1      17.547  33.253  14.576  1.00  0.00     0.201 C 
BRANCH   8   9
HETATM    9  C   LIG     1      18.102  33.859  13.283  1.00  0.00     0.190 C 
BRANCH   9  10
HETATM   10  O   LIG     1      17.058  34.307  12.464  1.00  0.00    -0.399 OA
HETATM   11  H   LIG     1      16.806  33.545  11.879  1.00  0.00     0.209 HD
ENDBRANCH   9  10
ENDBRANCH   8   9
ENDBRANCH   7   8
ENDBRANCH   1   7
TORSDOF 4
ENDMDL
MODEL 10
REMARK VINA RESULT:      -5.2      6.611      9.964
REMARK  4 active torsions:
REMARK  status: ('A' for Active; 'I' for Inactive)
REMARK    1  A    between atoms: O_1  and  C_2 
REMARK    2  A    between atoms: C_2  and  C_3 
REMARK    3  A    between atoms: C_3  and  O_4 
REMARK    4  A    between atoms: O_4  and  C_5 
ROOT
HETATM    1  C   LIG     1      14.340  31.656  16.339  1.00  0.00     0.068 A 
HETATM    2  C   LIG     1      13.405  30.671  15.995  1.00  0.00     0.037 A 
HETATM    3  C   LIG     1      13.569  29.912  14.833  1.00  0.00     0.003 A 
HETATM    4  C   LIG     1      14.668  30.134  14.001  1.00  0.00     0.000 A 
HETATM    5  C   LIG     1      15.604  31.117  14.328  1.00  0.00     0.003 A 
HETATM    6  C   LIG     1      15.444  31.880  15.490  1.00  0.00     0.037 A 
ENDROOT
BRANCH   1   7
HETATM    7  O   LIG     1      14.126  32.391  17.517  1.00  0.00    -0.349 OA
BRANCH   7   8
HETATM    8  C   LIG     1      15.146  32.943  18.351  1.00  0.00     0.201 C 
BRANCH   8   9
HETATM    9  C   LIG     1      15.413  32.045  19.562  1.00  0.00     0.190 C 
BRANCH   9  10
HETATM   10  O   LIG     1      14.206  31.645  20.152  1.00  0.00    -0.399 OA
HETATM   11  H   LIG     1      13.929  32.378  20.761  1.00  0.00     0.209 HD
ENDBRANCH   9  10
ENDBRANCH   8   9
ENDBRANCH   7   8
ENDBRANCH   1   7
TORSDOF 4
ENDMDL
MODEL 11
REMARK VINA RESULT:      -5.1      3.503      4.540
REMARK  4 active torsions:
REMARK  status: ('A' for Active; 'I' for Inactive)
REMARK    1  A    between atoms: O_1  and  C_2 
REMARK    2  A    between atoms: C_2  and  C_3 
REMARK    3  A    between atoms: C_3  and  O_4 
REMARK    4  A    between atoms: O_4  and  C_5 
ROOT
HETATM    1  C   LIG     1      17.706  37.317  21.560  1.00  0.00     0.068 A 
HETATM    2  C   LIG     1      17.493  35.973  21.227  1.00  0.00     0.037 A 
HETATM    3  C   LIG     1      17.053  35.064  22.194  1.00  0.00     0.003 A 
HETATM    4  C   LIG     1      16.826  35.490  23.504  1.00  0.00     0.000 A 
HETATM    5  C   LIG     1      17.041  36.826  23.850  1.00  0.00     0.003 A 
HETATM    6  C   LIG     1      17.481  37.739  22.887  1.00  0.00     0.037 A 
ENDROOT
BRANCH   1   7
HETATM    7  O   LIG     1      18.150  38.187  20.550  1.00  0.00    -0.349 OA
BRANCH   7   8
HETATM    8  C   LIG     1      19.042  37.844  19.489  1.00  0.00     0.201 C 
BRANCH   8   9
HETATM    9  C   LIG     1      19.369  39.067  18.627  1.00  0.00     0.190 C 
BRANCH   9  10
HETATM   10  O   LIG     1      20.650  39.549  18.926  1.00  0.00    -0.399 OA
HETATM   11  H   LIG     1      20.530  40.308  19.556  1.00  0.00     0.209 HD
ENDBRANCH   9  10
ENDBRANCH   8   9
ENDBRANCH   7   8
ENDBRANCH   1   7
TORSDOF 4
ENDMDL
MODEL 12
REMARK VINA RESULT:      -4.9      9.178     11.040
REMARK  4 active torsions:
REMARK  status: ('A' for Active; 'I' for Inactive)
REMARK    1  A    between atoms: O_1  and  C_2 
REMARK    2  A    between atoms: C_2  and  C_3 
REMARK    3  A    between atoms: C_3  and  O_4 
REMARK    4  A    between atoms: O_4  and  C_5 
ROOT
HETATM    1  C   LIG     1      14.367  30.708  15.157  1.00  0.00     0.068 A 
HETATM    2  C   LIG     1      15.434  31.611  15.075  1.00  0.00     0.037 A 
HETATM    3  C   LIG     1      15.538  32.671  15.980  1.00  0.00     0.003 A 
HETATM    4  C   LIG     1      14.572  32.841  16.974  1.00  0.00     0.000 A 
HETATM    5  C   LIG     1      13.499  31.951  17.063  1.00  0.00     0.003 A 
HETATM    6  C   LIG     1      13.391  30.889  16.159  1.00  0.00     0.037 A 
ENDROOT
BRANCH   1   7
HETATM    7  O   LIG     1      14.310  29.662  14.221  1.00  0.00    -0.349 OA
BRANCH   7   8
HETATM    8  C   LIG     1      15.399  28.816  13.851  1.00  0.00     0.201 C 
BRANCH   8   9
HETATM    9  C   LIG     1      14.906  27.419  13.465  1.00  0.00     0.190 C 
BRANCH   9  10
HETATM   10  O   LIG     1      13.506  27.381  13.442  1.00  0.00    -0.399 OA
HETATM   11  H   LIG     1      13.246  26.423  13.443  1.00  0.00     0.209 HD
ENDBRANCH   9  10
ENDBRANCH   8   9
ENDBRANCH   7   8
ENDBRANCH   1   7
TORSDOF 4
ENDMDL
MODEL 13
REMARK VINA RESULT:      -4.6      7.838     10.608
REMARK  4 active torsions:
REMARK  status: ('A' for Active; 'I' for Inactive)
REMARK    1  A    between atoms: O_1  and  C_2 
REMARK    2  A    between atoms: C_2  and  C_3 
REMARK    3  A    between atoms: C_3  and  O_4 
REMARK    4  A    between atoms: O_4  and  C_5 
ROOT
HETATM    1  C   LIG     1      14.832  31.230  15.703  1.00  0.00     0.068 A 
HETATM    2  C   LIG     1      15.435  30.584  14.616  1.00  0.00     0.037 A 
HETATM    3  C   LIG     1      14.724  29.644  13.865  1.00  0.00     0.003 A 
HETATM    4  C   LIG     1      13.403  29.338  14.196  1.00  0.00     0.000 A 
HETATM    5  C   LIG     1      12.791  29.970  15.282  1.00  0.00     0.003 A 
HETATM    6  C   LIG     1      13.499  30.910  16.036  1.00  0.00     0.037 A 
ENDROOT
BRANCH   1   7
HETATM    7  O   LIG     1      15.593  32.164  16.425  1.00  0.00    -0.349 OA
BRANCH   7   8
HETATM    8  C   LIG     1      15.125  32.949  17.523  1.00  0.00     0.201 C 
BRANCH   8   9
HETATM    9  C   LIG     1      15.017  34.427  17.137  1.00  0.00     0.190 C 
BRANCH   9  10
HETATM   10  O   LIG     1      16.027  34.773  16.230  1.00  0.00    -0.399 OA
HETATM   11  H   LIG     1      16.881  34.767  16.738  1.00  0.00     0.209 HD
ENDBRANCH   9  10
ENDBRANCH   8   9
ENDBRANCH   7   8
ENDBRANCH   1   7
TORSDOF 4
ENDMDL
MODEL 14
REMARK VINA RESULT:      -4.3      5.877      7.547
REMARK  4 active torsions:
REMARK  status: ('A' for Active; 'I' for Inactive)
REMARK    1  A    between atoms: O_1  and  C_2 
REMARK    2  A    between atoms: C_2  and  C_3 
REMARK    3  A    between atoms: C_3  and  O_4 
REMARK    4  A    between atoms: O_4  and  C_5 
ROOT
HETATM    1  C   LIG     1      14.927  32.968  17.632  1.00  0.00     0.068 A 
HETATM    2  C   LIG     1      14.958  32.060  18.699  1.00  0.00     0.037 A 
HETATM    3  C   LIG     1      15.287  32.491  19.988  1.00  0.00     0.003 A 
HETATM    4  C   LIG     1      15.591  33.833  20.221  1.00  0.00     0.000 A 
HETATM    5  C   LIG     1      15.571  34.747  19.165  1.00  0.00     0.003 A 
HETATM    6  C   LIG     1      15.243  34.321  17.874  1.00  0.00     0.037 A 
ENDROOT
BRANCH   1   7
HETATM    7  O   LIG     1      14.593  32.481  16.358  1.00  0.00    -0.349 OA
BRANCH   7   8
HETATM    8  C   LIG     1      14.407  31.108  16.013  1.00  0.00     0.201 C 
BRANCH   8   9
HETATM    9  C   LIG     1      12.936  30.811  15.708  1.00  0.00     0.190 C 
BRANCH   9  10
HETATM   10  O   LIG     1      12.326  30.177  16.799  1.00  0.00    -0.399 OA
HETATM   11  H   LIG     1      12.535  29.209  16.719  1.00  0.00     0.209 HD
ENDBRANCH   9  10
ENDBRANCH   8   9
ENDBRANCH   7   8
ENDBRANCH   1   7
TORSDOF 4
ENDMDL
MODEL 15
REMARK VINA RESULT:      -4.2      9.956     12.214
REMARK  4 active torsions:
REMARK  status: ('A' for Active; 'I' for Inactive)
REMARK    1  A    between atoms: O_1  and  C_2 
REMARK    2  A    between atoms: C_2  and  C_3 
REMARK    3  A    between atoms: C_3  and  O_4 
REMARK    4  A    between atoms: O_4  and  C_5 
ROOT
HETATM    1  C   LIG     1      14.672  30.036  14.442  1.00  0.00     0.068 A 
HETATM    2  C   LIG     1      15.567  29.055  13.995  1.00  0.00     0.037 A 
HETATM    3  C   LIG     1      15.104  27.796  13.604  1.00  0.00     0.003 A 
HETATM    4  C   LIG     1      13.740  27.504  13.660  1.00  0.00     0.000 A 
HETATM    5  C   LIG     1      12.837  28.470  14.109  1.00  0.00     0.003 A 
HETATM    6  C   LIG     1      13.296  29.731  14.502  1.00  0.00     0.037 A 
ENDROOT
BRANCH   1   7
HETATM    7  O   LIG     1      15.192  31.284  14.825  1.00  0.00    -0.349 OA
BRANCH   7   8
HETATM    8  C   LIG     1      16.007  32.130  14.013  1.00  0.00     0.201 C 
BRANCH   8   9
HETATM    9  C   LIG     1      16.848  33.076  14.875  1.00  0.00     0.190 C 
BRANCH   9  10
HETATM   10  O   LIG     1      18.014  32.434  15.314  1.00  0.00    -0.399 OA
HETATM   11  H   LIG     1      18.409  33.012  16.019  1.00  0.00     0.209 HD
ENDBRANCH   9  10
ENDBRANCH   8   9
ENDBRANCH   7   8
ENDBRANCH   1   7
TORSDOF 4
ENDMDL
MODEL 16
REMARK VINA RESULT:      -4.1      9.268     11.278
REMARK  4 active torsions:
REMARK  status: ('A' for Active; 'I' for Inactive)
REMARK    1  A    between atoms: O_1  and  C_2 
REMARK    2  A    between atoms: C_2  and  C_3 
REMARK    3  A    between atoms: C_3  and  O_4 
REMARK    4  A    between atoms: O_4  and  C_5 
ROOT
HETATM    1  C   LIG     1      14.232  30.680  15.329  1.00  0.00     0.068 A 
HETATM    2  C   LIG     1      14.136  31.517  16.448  1.00  0.00     0.037 A 
HETATM    3  C   LIG     1      15.027  32.581  16.618  1.00  0.00     0.003 A 
HETATM    4  C   LIG     1      16.025  32.816  15.671  1.00  0.00     0.000 A 
HETATM    5  C   LIG     1      16.136  31.985  14.554  1.00  0.00     0.003 A 
HETATM    6  C   LIG     1      15.248  30.919  14.380  1.00  0.00     0.037 A 
ENDROOT
BRANCH   1   7
HETATM    7  O   LIG     1      13.313  29.624  15.210  1.00  0.00    -0.349 OA
BRANCH   7   8
HETATM    8  C   LIG     1      12.831  29.076  13.982  1.00  0.00     0.201 C 
BRANCH   8   9
HETATM    9  C   LIG     1      13.146  27.581  13.885  1.00  0.00     0.190 C 
BRANCH   9  10
HETATM   10  O   LIG     1      12.354  26.975  12.901  1.00  0.00    -0.399 OA
HETATM   11  H   LIG     1      11.483  27.452  12.902  1.00  0.00     0.209 HD
ENDBRANCH   9  10
ENDBRANCH   8   9
ENDBRANCH   7   8
ENDBRANCH   1   7
TORSDOF 4
ENDMDL
MODEL 17
REMARK VINA RESULT:      -3.7     15.525     16.317
REMARK  4 active torsions:
REMARK  status: ('A' for Active; 'I' for Inactive)
REMARK    1  A    between atoms: O_1  and  C_2 
REMARK    2  A    between atoms: C_2  and  C_3 
REMARK    3  A    between atoms: C_3  and  O_4 
REMARK    4  A    between atoms: O_4  and  C_5 
ROOT
HETATM    1  C   LIG     1      27.071  30.663  35.595  1.00  0.00     0.068 A 
HETATM    2  C   LIG     1      25.999  31.047  36.412  1.00  0.00     0.037 A 
HETATM    3  C   LIG     1      26.223  31.793  37.573  1.00  0.00     0.003 A 
HETATM    4  C   LIG     1      27.522  32.158  37.931  1.00  0.00     0.000 A 
HETATM    5  C   LIG     1      28.600  31.776  37.130  1.00  0.00     0.003 A 
HETATM    6  C   LIG     1      28.381  31.030  35.967  1.00  0.00     0.037 A 
ENDROOT
BRANCH   1   7
HETATM    7  O   LIG     1      26.790  29.913  34.441  1.00  0.00    -0.349 OA
BRANCH   7   8
HETATM    8  C   LIG     1      26.651  28.493  34.385  1.00  0.00     0.201 C 
BRANCH   8   9
HETATM    9  C   LIG     1      26.890  27.972  32.965  1.00  0.00     0.190 C 
BRANCH   9  10
HETATM   10  O   LIG     1      25.771  27.265  32.506  1.00  0.00    -0.399 OA
HETATM   11  H   LIG     1      25.967  26.996  31.570  1.00  0.00     0.209 HD
ENDBRANCH   9  10
ENDBRANCH   8   9
ENDBRANCH   7   8
ENDBRANCH   1   7
TORSDOF 4
ENDMDL
MODEL 18
REMARK VINA RESULT:      -3.3     15.137     16.013
REMARK  4 active torsions:
REMARK  status: ('A' for Active; 'I' for Inactive)
REMARK    1  A    between atoms: O_1  and  C_2 
REMARK    2  A    between atoms: C_2  and  C_3 
REMARK    3  A    between atoms: C_3  and  O_4 
REMARK    4  A    between atoms: O_4  and  C_5 
ROOT
HETATM    1  C   LIG     1      25.075  23.053  20.223  1.00  0.00     0.068 A 
HETATM    2  C   LIG     1      25.116  22.744  18.857  1.00  0.00     0.037 A 
HETATM    3  C   LIG     1      24.029  22.122  18.237  1.00  0.00     0.003 A 
HETATM    4  C   LIG     1      22.891  21.799  18.979  1.00  0.00     0.000 A 
HETATM    5  C   LIG     1      22.839  22.096  20.343  1.00  0.00     0.003 A 
HETATM    6  C   LIG     1      23.925  22.718  20.967  1.00  0.00     0.037 A 
ENDROOT
BRANCH   1   7
HETATM    7  O   LIG     1      26.196  23.676  20.796  1.00  0.00    -0.349 OA
BRANCH   7   8
HETATM    8  C   LIG     1      27.325  24.180  20.081  1.00  0.00     0.201 C 
BRANCH   8   9
HETATM    9  C   LIG     1      27.331  25.711  20.068  1.00  0.00     0.190 C 
BRANCH   9  10
HETATM   10  O   LIG     1      26.296  26.199  19.260  1.00  0.00    -0.399 OA
HETATM   11  H   LIG     1      25.531  25.575  19.368  1.00  0.00     0.209 HD
ENDBRANCH   9  10
ENDBRANCH   8   9
ENDBRANCH   7   8
ENDBRANCH   1   7
TORSDOF 4
ENDMDL
MODEL 19
REMARK VINA RESULT:      -3.3     17.116     18.542
REMARK  4 active torsions:
REMARK  status: ('A' for Active; 'I' for Inactive)
REMARK    1  A    between atoms: O_1  and  C_2 
REMARK    2  A    between atoms: C_2  and  C_3 
REMARK    3  A    between atoms: C_3  and  O_4 
REMARK    4  A    between atoms: O_4  and  C_5 
ROOT
HETATM    1  C   LIG     1      21.465  23.568  36.035  1.00  0.00     0.068 A 
HETATM    2  C   LIG     1      20.102  23.252  36.115  1.00  0.00     0.037 A 
HETATM    3  C   LIG     1      19.383  22.917  34.964  1.00  0.00     0.003 A 
HETATM    4  C   LIG     1      20.019  22.897  33.722  1.00  0.00     0.000 A 
HETATM    5  C   LIG     1      21.375  23.217  33.627  1.00  0.00     0.003 A 
HETATM    6  C   LIG     1      22.099  23.554  34.776  1.00  0.00     0.037 A 
ENDROOT
BRANCH   1   7
HETATM    7  O   LIG     1      22.139  23.901  37.222  1.00  0.00    -0.349 OA
BRANCH   7   8
HETATM    8  C   LIG     1      22.979  23.025  37.976  1.00  0.00     0.201 C 
BRANCH   8   9
HETATM    9  C   LIG     1      24.455  23.255  37.641  1.00  0.00     0.190 C 
BRANCH   9  10
HETATM   10  O   LIG     1      24.912  22.284  36.740  1.00  0.00    -0.399 OA
HETATM   11  H   LIG     1      25.519  22.748  36.105  1.00  0.00     0.209 HD
ENDBRANCH   9  10
ENDBRANCH   8   9
ENDBRANCH   7   8
ENDBRANCH   1   7
TORSDOF 4
ENDMDL
