REMARK  4 active torsions:
REMARK  status: ('A' for Active; 'I' for Inactive)
REMARK    1  A    between atoms: O_1  and  C_2 
REMARK    2  A    between atoms: C_2  and  C_3 
REMARK    3  A    between atoms: C_3  and  O_4 
REMARK    4  A    between atoms: O_4  and  C_5 
ROOT
HETATM    1  C   LIG     1      -0.469   0.507  -0.381  1.00  0.00     0.068 A 
HETATM    2  C   LIG     1      -1.500   1.305   0.132  1.00  0.00     0.037 A 
HETATM    3  C   LIG     1      -2.768   0.764   0.364  1.00  0.00     0.003 A 
HETATM    4  C   LIG     1      -3.018  -0.580   0.081  1.00  0.00     0.000 A 
HETATM    5  C   LIG     1      -2.001  -1.385  -0.437  1.00  0.00     0.003 A 
HETATM    6  C   LIG     1      -0.731  -0.848  -0.671  1.00  0.00     0.037 A 
ENDROOT
BRANCH   1   7
HETATM    7  O   LIG     1       0.785   1.102  -0.597  1.00  0.00    -0.349 OA
BRANCH   7   8
HETATM    8  C   LIG     1       1.983   0.412  -0.956  1.00  0.00     0.201 C 
BRANCH   8   9
HETATM    9  C   LIG     1       2.538  -0.382   0.230  1.00  0.00     0.190 C 
BRANCH   9  10
HETATM   10  O   LIG     1       2.773   0.465   1.321  1.00  0.00    -0.399 OA
HETATM   11  H   LIG     1       3.604   0.969   1.117  1.00  0.00     0.209 HD
ENDBRANCH   9  10
ENDBRANCH   8   9
ENDBRANCH   7   8
ENDBRANCH   1   7
TORSDOF 4
