REMARK  4 active torsions:
REMARK  status: ('A' for Active; 'I' for Inactive)
REMARK    1  A    between atoms: O_1  and  C_2 
REMARK    2  A    between atoms: C_2  and  C_3 
REMARK    3  A    between atoms: C_3  and  C_4 
REMARK    4  A    between atoms: C_4  and  C_5 
ROOT
HETATM    1  C   LIG     1      -0.644  -0.183   0.527  1.00  0.00    -0.058 A 
HETATM    2  C   LIG     1      -1.561  -1.232   0.341  1.00  0.00     0.007 A 
HETATM    3  C   LIG     1      -2.927  -0.961   0.217  1.00  0.00     0.001 A 
HETATM    4  C   LIG     1      -3.389   0.357   0.281  1.00  0.00     0.000 A 
HETATM    5  C   LIG     1      -2.485   1.405   0.471  1.00  0.00     0.001 A 
HETATM    6  C   LIG     1      -1.118   1.139   0.595  1.00  0.00     0.007 A 
ENDROOT
BRANCH   1   7
HETATM    7  C   LIG     1       0.829  -0.469   0.666  1.00  0.00     0.041 C 
BRANCH   7   8
HETATM    8  C   LIG     1       1.601   0.014  -0.570  1.00  0.00     0.030 C 
BRANCH   8   9
HETATM    9  C   LIG     1       3.095  -0.315  -0.470  1.00  0.00     0.164 C 
BRANCH   9  10
HETATM   10  O   LIG     1       3.684   0.355   0.612  1.00  0.00    -0.401 OA
HETATM   11  H   LIG     1       3.774   1.306   0.343  1.00  0.00     0.209 HD
ENDBRANCH   9  10
ENDBRANCH   8   9
ENDBRANCH   7   8
ENDBRANCH   1   7
TORSDOF 4
