MODEL 1
REMARK VINA RESULT:      -6.7      0.000      0.000
REMARK  4 active torsions:
REMARK  status: ('A' for Active; 'I' for Inactive)
REMARK    1  A    between atoms: C_2  and  C_4 
REMARK    2  A    between atoms: C_2  and  O_3 
REMARK    3  A    between atoms: C_4  and  O_5 
REMARK    4  A    between atoms: O_5  and  C_6 
ROOT
HETATM    1  C   LIG     1      17.167  36.180  24.171  1.00  0.00     0.069 A 
HETATM    2  C   LIG     1      17.613  37.344  24.830  1.00  0.00     0.037 A 
HETATM    3  C   LIG     1      18.181  37.257  26.105  1.00  0.00     0.003 A 
HETATM    4  C   LIG     1      18.309  36.014  26.732  1.00  0.00     0.000 A 
HETATM    5  C   LIG     1      17.867  34.858  26.086  1.00  0.00     0.003 A 
HETATM    6  C   LIG     1      17.298  34.941  24.812  1.00  0.00     0.037 A 
ENDROOT
BRANCH   1   7
HETATM    7  O   LIG     1      16.590  36.208  22.891  1.00  0.00    -0.341 OA
BRANCH   7   8
HETATM    8  C   LIG     1      16.731  35.188  21.901  1.00  0.00     0.285 C 
BRANCH   8   9
HETATM    9  C   LIG     1      15.676  35.326  20.843  1.00  0.00     0.164 C 
HETATM   10  O   LIG     1      15.957  35.068  19.643  1.00  0.00    -0.648 OA
BRANCH   9  11
HETATM   11  O   LIG     1      14.380  35.710  21.175  1.00  0.00    -0.775 OA
HETATM   12  H   LIG     1      14.205  36.443  21.851  1.00  0.00     0.167 HD
ENDBRANCH   9  11
ENDBRANCH   8   9
ENDBRANCH   7   8
ENDBRANCH   1   7
TORSDOF 4
ENDMDL
MODEL 2
REMARK VINA RESULT:      -6.6      2.168      2.812
REMARK  4 active torsions:
REMARK  status: ('A' for Active; 'I' for Inactive)
REMARK    1  A    between atoms: C_2  and  C_4 
REMARK    2  A    between atoms: C_2  and  O_3 
REMARK    3  A    between atoms: C_4  and  O_5 
REMARK    4  A    between atoms: O_5  and  C_6 
ROOT
HETATM    1  C   LIG     1      17.186  36.857  24.313  1.00  0.00     0.069 A 
HETATM    2  C   LIG     1      17.881  37.558  25.320  1.00  0.00     0.037 A 
HETATM    3  C   LIG     1      18.436  36.868  26.402  1.00  0.00     0.003 A 
HETATM    4  C   LIG     1      18.305  35.479  26.491  1.00  0.00     0.000 A 
HETATM    5  C   LIG     1      17.615  34.779  25.498  1.00  0.00     0.003 A 
HETATM    6  C   LIG     1      17.058  35.465  24.416  1.00  0.00     0.037 A 
ENDROOT
BRANCH   1   7
HETATM    7  O   LIG     1      16.607  37.497  23.205  1.00  0.00    -0.341 OA
BRANCH   7   8
HETATM    8  C   LIG     1      16.929  38.813  22.753  1.00  0.00     0.285 C 
BRANCH   8   9
HETATM    9  C   LIG     1      18.002  38.767  21.706  1.00  0.00     0.164 C 
HETATM   10  O   LIG     1      18.115  37.752  20.970  1.00  0.00    -0.648 OA
BRANCH   9  11
HETATM   11  O   LIG     1      18.859  39.848  21.516  1.00  0.00    -0.775 OA
HETATM   12  H   LIG     1      19.852  39.771  21.701  1.00  0.00     0.167 HD
ENDBRANCH   9  11
ENDBRANCH   8   9
ENDBRANCH   7   8
ENDBRANCH   1   7
TORSDOF 4
ENDMDL
MODEL 3
REMARK VINA RESULT:      -6.5      3.260      5.307
REMARK  4 active torsions:
REMARK  status: ('A' for Active; 'I' for Inactive)
REMARK    1  A    between atoms: C_2  and  C_4 
REMARK    2  A    between atoms: C_2  and  O_3 
REMARK    3  A    between atoms: C_4  and  O_5 
REMARK    4  A    between atoms: O_5  and  C_6 
ROOT
HETATM    1  C   LIG     1      17.688  37.794  21.600  1.00  0.00     0.069 A 
HETATM    2  C   LIG     1      18.304  39.051  21.433  1.00  0.00     0.037 A 
HETATM    3  C   LIG     1      19.202  39.260  20.381  1.00  0.00     0.003 A 
HETATM    4  C   LIG     1      19.492  38.222  19.490  1.00  0.00     0.000 A 
HETATM    5  C   LIG     1      18.888  36.974  19.652  1.00  0.00     0.003 A 
HETATM    6  C   LIG     1      17.991  36.761  20.703  1.00  0.00     0.037 A 
ENDROOT
BRANCH   1   7
HETATM    7  O   LIG     1      16.780  37.527  22.638  1.00  0.00    -0.341 OA
BRANCH   7   8
HETATM    8  C   LIG     1      17.085  36.814  23.838  1.00  0.00     0.285 C 
BRANCH   8   9
HETATM    9  C   LIG     1      17.589  37.750  24.897  1.00  0.00     0.164 C 
HETATM   10  O   LIG     1      16.986  38.834  25.112  1.00  0.00    -0.648 OA
BRANCH   9  11
HETATM   11  O   LIG     1      18.701  37.421  25.666  1.00  0.00    -0.775 OA
HETATM   12  H   LIG     1      18.912  37.915  26.525  1.00  0.00     0.167 HD
ENDBRANCH   9  11
ENDBRANCH   8   9
ENDBRANCH   7   8
ENDBRANCH   1   7
TORSDOF 4
ENDMDL
MODEL 4
REMARK VINA RESULT:      -6.5      3.202      5.464
REMARK  4 active torsions:
REMARK  status: ('A' for Active; 'I' for Inactive)
REMARK    1  A    between atoms: C_2  and  C_4 
REMARK    2  A    between atoms: C_2  and  O_3 
REMARK    3  A    between atoms: C_4  and  O_5 
REMARK    4  A    between atoms: O_5  and  C_6 
ROOT
HETATM    1  C   LIG     1      17.663  37.658  21.606  1.00  0.00     0.069 A 
HETATM    2  C   LIG     1      17.969  36.672  20.647  1.00  0.00     0.037 A 
HETATM    3  C   LIG     1      18.859  36.955  19.606  1.00  0.00     0.003 A 
HETATM    4  C   LIG     1      19.448  38.219  19.511  1.00  0.00     0.000 A 
HETATM    5  C   LIG     1      19.147  39.202  20.456  1.00  0.00     0.003 A 
HETATM    6  C   LIG     1      18.258  38.923  21.498  1.00  0.00     0.037 A 
ENDROOT
BRANCH   1   7
HETATM    7  O   LIG     1      16.778  37.431  22.673  1.00  0.00    -0.341 OA
BRANCH   7   8
HETATM    8  C   LIG     1      17.092  36.711  23.866  1.00  0.00     0.285 C 
BRANCH   8   9
HETATM    9  C   LIG     1      17.531  37.648  24.951  1.00  0.00     0.164 C 
HETATM   10  O   LIG     1      16.821  38.646  25.242  1.00  0.00    -0.648 OA
BRANCH   9  11
HETATM   11  O   LIG     1      18.704  37.413  25.663  1.00  0.00    -0.775 OA
HETATM   12  H   LIG     1      18.966  37.991  26.453  1.00  0.00     0.167 HD
ENDBRANCH   9  11
ENDBRANCH   8   9
ENDBRANCH   7   8
ENDBRANCH   1   7
TORSDOF 4
ENDMDL
MODEL 5
REMARK VINA RESULT:      -6.3      3.404      4.220
REMARK  4 active torsions:
REMARK  status: ('A' for Active; 'I' for Inactive)
REMARK    1  A    between atoms: C_2  and  C_4 
REMARK    2  A    between atoms: C_2  and  O_3 
REMARK    3  A    between atoms: C_4  and  O_5 
REMARK    4  A    between atoms: O_5  and  C_6 
ROOT
HETATM    1  C   LIG     1      17.647  37.159  21.258  1.00  0.00     0.069 A 
HETATM    2  C   LIG     1      17.830  38.487  21.694  1.00  0.00     0.037 A 
HETATM    3  C   LIG     1      18.719  39.332  21.021  1.00  0.00     0.003 A 
HETATM    4  C   LIG     1      19.430  38.863  19.913  1.00  0.00     0.000 A 
HETATM    5  C   LIG     1      19.255  37.547  19.478  1.00  0.00     0.003 A 
HETATM    6  C   LIG     1      18.369  36.700  20.148  1.00  0.00     0.037 A 
ENDROOT
BRANCH   1   7
HETATM    7  O   LIG     1      16.769  36.266  21.894  1.00  0.00    -0.341 OA
BRANCH   7   8
HETATM    8  C   LIG     1      15.412  36.033  21.515  1.00  0.00     0.285 C 
BRANCH   8   9
HETATM    9  C   LIG     1      15.202  34.593  21.150  1.00  0.00     0.164 C 
HETATM   10  O   LIG     1      16.076  33.985  20.478  1.00  0.00    -0.648 OA
BRANCH   9  11
HETATM   11  O   LIG     1      14.064  33.911  21.569  1.00  0.00    -0.775 OA
HETATM   12  H   LIG     1      13.711  33.110  21.059  1.00  0.00     0.167 HD
ENDBRANCH   9  11
ENDBRANCH   8   9
ENDBRANCH   7   8
ENDBRANCH   1   7
TORSDOF 4
ENDMDL
MODEL 6
REMARK VINA RESULT:      -5.9      3.478      4.161
REMARK  4 active torsions:
REMARK  status: ('A' for Active; 'I' for Inactive)
REMARK    1  A    between atoms: C_2  and  C_4 
REMARK    2  A    between atoms: C_2  and  O_3 
REMARK    3  A    between atoms: C_4  and  O_5 
REMARK    4  A    between atoms: O_5  and  C_6 
ROOT
HETATM    1  C   LIG     1      17.507  37.690  22.059  1.00  0.00     0.069 A 
HETATM    2  C   LIG     1      17.509  37.987  23.437  1.00  0.00     0.037 A 
HETATM    3  C   LIG     1      17.238  36.984  24.373  1.00  0.00     0.003 A 
HETATM    4  C   LIG     1      16.965  35.681  23.947  1.00  0.00     0.000 A 
HETATM    5  C   LIG     1      16.959  35.381  22.582  1.00  0.00     0.003 A 
HETATM    6  C   LIG     1      17.228  36.381  21.644  1.00  0.00     0.037 A 
ENDROOT
BRANCH   1   7
HETATM    7  O   LIG     1      17.772  38.657  21.075  1.00  0.00    -0.341 OA
BRANCH   7   8
HETATM    8  C   LIG     1      19.017  39.332  20.896  1.00  0.00     0.285 C 
BRANCH   8   9
HETATM    9  C   LIG     1      19.771  38.756  19.734  1.00  0.00     0.164 C 
HETATM   10  O   LIG     1      19.558  37.568  19.377  1.00  0.00    -0.648 OA
BRANCH   9  11
HETATM   11  O   LIG     1      20.685  39.529  19.024  1.00  0.00    -0.775 OA
HETATM   12  H   LIG     1      21.637  39.217  18.876  1.00  0.00     0.167 HD
ENDBRANCH   9  11
ENDBRANCH   8   9
ENDBRANCH   7   8
ENDBRANCH   1   7
TORSDOF 4
ENDMDL
MODEL 7
REMARK VINA RESULT:      -5.8      9.286     10.487
REMARK  4 active torsions:
REMARK  status: ('A' for Active; 'I' for Inactive)
REMARK    1  A    between atoms: C_2  and  C_4 
REMARK    2  A    between atoms: C_2  and  O_3 
REMARK    3  A    between atoms: C_4  and  O_5 
REMARK    4  A    between atoms: O_5  and  C_6 
ROOT
HETATM    1  C   LIG     1      15.455  31.405  14.977  1.00  0.00     0.069 A 
HETATM    2  C   LIG     1      14.643  30.396  14.421  1.00  0.00     0.037 A 
HETATM    3  C   LIG     1      13.421  30.069  15.016  1.00  0.00     0.003 A 
HETATM    4  C   LIG     1      12.999  30.741  16.167  1.00  0.00     0.000 A 
HETATM    5  C   LIG     1      13.800  31.739  16.725  1.00  0.00     0.003 A 
HETATM    6  C   LIG     1      15.022  32.069  16.133  1.00  0.00     0.037 A 
ENDROOT
BRANCH   1   7
HETATM    7  O   LIG     1      16.691  31.776  14.423  1.00  0.00    -0.341 OA
BRANCH   7   8
HETATM    8  C   LIG     1      17.294  33.065  14.540  1.00  0.00     0.285 C 
BRANCH   8   9
HETATM    9  C   LIG     1      17.647  33.611  13.187  1.00  0.00     0.164 C 
HETATM   10  O   LIG     1      17.468  34.832  12.940  1.00  0.00    -0.648 OA
BRANCH   9  11
HETATM   11  O   LIG     1      18.196  32.789  12.209  1.00  0.00    -0.775 OA
HETATM   12  H   LIG     1      18.525  33.165  11.327  1.00  0.00     0.167 HD
ENDBRANCH   9  11
ENDBRANCH   8   9
ENDBRANCH   7   8
ENDBRANCH   1   7
TORSDOF 4
ENDMDL
MODEL 8
REMARK VINA RESULT:      -5.7      4.998      8.590
REMARK  4 active torsions:
REMARK  status: ('A' for Active; 'I' for Inactive)
REMARK    1  A    between atoms: C_2  and  C_4 
REMARK    2  A    between atoms: C_2  and  O_3 
REMARK    3  A    between atoms: C_4  and  O_5 
REMARK    4  A    between atoms: O_5  and  C_6 
ROOT
HETATM    1  C   LIG     1      15.035  32.273  17.041  1.00  0.00     0.069 A 
HETATM    2  C   LIG     1      15.838  32.283  15.882  1.00  0.00     0.037 A 
HETATM    3  C   LIG     1      15.496  31.492  14.781  1.00  0.00     0.003 A 
HETATM    4  C   LIG     1      14.354  30.687  14.823  1.00  0.00     0.000 A 
HETATM    5  C   LIG     1      13.555  30.670  15.969  1.00  0.00     0.003 A 
HETATM    6  C   LIG     1      13.894  31.459  17.072  1.00  0.00     0.037 A 
ENDROOT
BRANCH   1   7
HETATM    7  O   LIG     1      15.330  33.046  18.176  1.00  0.00    -0.341 OA
BRANCH   7   8
HETATM    8  C   LIG     1      15.344  32.564  19.520  1.00  0.00     0.285 C 
BRANCH   8   9
HETATM    9  C   LIG     1      15.356  33.705  20.493  1.00  0.00     0.164 C 
HETATM   10  O   LIG     1      16.290  34.548  20.459  1.00  0.00    -0.648 OA
BRANCH   9  11
HETATM   11  O   LIG     1      14.328  33.862  21.418  1.00  0.00    -0.775 OA
HETATM   12  H   LIG     1      14.480  33.704  22.407  1.00  0.00     0.167 HD
ENDBRANCH   9  11
ENDBRANCH   8   9
ENDBRANCH   7   8
ENDBRANCH   1   7
TORSDOF 4
ENDMDL
MODEL 9
REMARK VINA RESULT:      -5.6      6.081      9.608
REMARK  4 active torsions:
REMARK  status: ('A' for Active; 'I' for Inactive)
REMARK    1  A    between atoms: C_2  and  C_4 
REMARK    2  A    between atoms: C_2  and  O_3 
REMARK    3  A    between atoms: C_4  and  O_5 
REMARK    4  A    between atoms: O_5  and  C_6 
ROOT
HETATM    1  C   LIG     1      14.191  31.516  16.407  1.00  0.00     0.069 A 
HETATM    2  C   LIG     1      13.211  30.577  16.025  1.00  0.00     0.037 A 
HETATM    3  C   LIG     1      13.363  29.840  14.847  1.00  0.00     0.003 A 
HETATM    4  C   LIG     1      14.489  30.031  14.041  1.00  0.00     0.000 A 
HETATM    5  C   LIG     1      15.463  30.961  14.412  1.00  0.00     0.003 A 
HETATM    6  C   LIG     1      15.313  31.700  15.588  1.00  0.00     0.037 A 
ENDROOT
BRANCH   1   7
HETATM    7  O   LIG     1      14.090  32.284  17.578  1.00  0.00    -0.341 OA
BRANCH   7   8
HETATM    8  C   LIG     1      15.167  32.570  18.472  1.00  0.00     0.285 C 
BRANCH   8   9
HETATM    9  C   LIG     1      14.830  32.133  19.867  1.00  0.00     0.164 C 
HETATM   10  O   LIG     1      14.895  30.914  20.174  1.00  0.00    -0.648 OA
BRANCH   9  11
HETATM   11  O   LIG     1      14.470  33.063  20.837  1.00  0.00    -0.775 OA
HETATM   12  H   LIG     1      14.696  32.920  21.814  1.00  0.00     0.167 HD
ENDBRANCH   9  11
ENDBRANCH   8   9
ENDBRANCH   7   8
ENDBRANCH   1   7
TORSDOF 4
ENDMDL
MODEL 10
REMARK VINA RESULT:      -5.2     10.334     12.344
REMARK  4 active torsions:
REMARK  status: ('A' for Active; 'I' for Inactive)
REMARK    1  A    between atoms: C_2  and  C_4 
REMARK    2  A    between atoms: C_2  and  O_3 
REMARK    3  A    between atoms: C_4  and  O_5 
REMARK    4  A    between atoms: O_5  and  C_6 
ROOT
HETATM    1  C   LIG     1      13.519  29.691  14.549  1.00  0.00     0.069 A 
HETATM    2  C   LIG     1      13.112  30.419  15.686  1.00  0.00     0.037 A 
HETATM    3  C   LIG     1      13.936  31.419  16.213  1.00  0.00     0.003 A 
HETATM    4  C   LIG     1      15.168  31.701  15.615  1.00  0.00     0.000 A 
HETATM    5  C   LIG     1      15.578  30.980  14.490  1.00  0.00     0.003 A 
HETATM    6  C   LIG     1      14.758  29.980  13.961  1.00  0.00     0.037 A 
ENDROOT
BRANCH   1   7
HETATM    7  O   LIG     1      12.734  28.677  13.977  1.00  0.00    -0.341 OA
BRANCH   7   8
HETATM    8  C   LIG     1      13.160  27.332  13.752  1.00  0.00     0.285 C 
BRANCH   8   9
HETATM    9  C   LIG     1      12.236  26.636  12.796  1.00  0.00     0.164 C 
HETATM   10  O   LIG     1      11.060  26.362  13.151  1.00  0.00    -0.648 OA
BRANCH   9  11
HETATM   11  O   LIG     1      12.655  26.313  11.509  1.00  0.00    -0.775 OA
HETATM   12  H   LIG     1      13.372  25.617  11.347  1.00  0.00     0.167 HD
ENDBRANCH   9  11
ENDBRANCH   8   9
ENDBRANCH   7   8
ENDBRANCH   1   7
TORSDOF 4
ENDMDL
MODEL 11
REMARK VINA RESULT:      -5.0      9.016     10.973
REMARK  4 active torsions:
REMARK  status: ('A' for Active; 'I' for Inactive)
REMARK    1  A    between atoms: C_2  and  C_4 
REMARK    2  A    between atoms: C_2  and  O_3 
REMARK    3  A    between atoms: C_4  and  O_5 
REMARK    4  A    between atoms: O_5  and  C_6 
ROOT
HETATM    1  C   LIG     1      14.346  30.648  15.264  1.00  0.00     0.069 A 
HETATM    2  C   LIG     1      13.365  30.892  16.246  1.00  0.00     0.037 A 
HETATM    3  C   LIG     1      13.463  32.013  17.075  1.00  0.00     0.003 A 
HETATM    4  C   LIG     1      14.535  32.899  16.934  1.00  0.00     0.000 A 
HETATM    5  C   LIG     1      15.513  32.661  15.965  1.00  0.00     0.003 A 
HETATM    6  C   LIG     1      15.418  31.541  15.135  1.00  0.00     0.037 A 
ENDROOT
BRANCH   1   7
HETATM    7  O   LIG     1      14.299  29.538  14.404  1.00  0.00    -0.341 OA
BRANCH   7   8
HETATM    8  C   LIG     1      15.426  28.958  13.745  1.00  0.00     0.285 C 
BRANCH   8   9
HETATM    9  C   LIG     1      15.067  27.626  13.155  1.00  0.00     0.164 C 
HETATM   10  O   LIG     1      15.968  26.896  12.664  1.00  0.00    -0.648 OA
BRANCH   9  11
HETATM   11  O   LIG     1      13.752  27.172  13.169  1.00  0.00    -0.775 OA
HETATM   12  H   LIG     1      13.014  27.677  12.693  1.00  0.00     0.167 HD
ENDBRANCH   9  11
ENDBRANCH   8   9
ENDBRANCH   7   8
ENDBRANCH   1   7
TORSDOF 4
ENDMDL
MODEL 12
REMARK VINA RESULT:      -5.0      9.224     11.691
REMARK  4 active torsions:
REMARK  status: ('A' for Active; 'I' for Inactive)
REMARK    1  A    between atoms: C_2  and  C_4 
REMARK    2  A    between atoms: C_2  and  O_3 
REMARK    3  A    between atoms: C_4  and  O_5 
REMARK    4  A    between atoms: O_5  and  C_6 
ROOT
HETATM    1  C   LIG     1      15.230  29.736  14.216  1.00  0.00     0.069 A 
HETATM    2  C   LIG     1      15.533  28.447  13.732  1.00  0.00     0.037 A 
HETATM    3  C   LIG     1      14.515  27.503  13.564  1.00  0.00     0.003 A 
HETATM    4  C   LIG     1      13.193  27.832  13.876  1.00  0.00     0.000 A 
HETATM    5  C   LIG     1      12.888  29.106  14.360  1.00  0.00     0.003 A 
HETATM    6  C   LIG     1      13.902  30.053  14.529  1.00  0.00     0.037 A 
ENDROOT
BRANCH   1   7
HETATM    7  O   LIG     1      16.210  30.725  14.405  1.00  0.00    -0.341 OA
BRANCH   7   8
HETATM    8  C   LIG     1      16.062  32.106  14.075  1.00  0.00     0.285 C 
BRANCH   8   9
HETATM    9  C   LIG     1      16.868  32.964  15.005  1.00  0.00     0.164 C 
HETATM   10  O   LIG     1      16.295  33.844  15.698  1.00  0.00    -0.648 OA
BRANCH   9  11
HETATM   11  O   LIG     1      18.241  32.780  15.134  1.00  0.00    -0.775 OA
HETATM   12  H   LIG     1      18.662  32.554  16.027  1.00  0.00     0.167 HD
ENDBRANCH   9  11
ENDBRANCH   8   9
ENDBRANCH   7   8
ENDBRANCH   1   7
TORSDOF 4
ENDMDL
MODEL 13
REMARK VINA RESULT:      -4.8      7.295     10.050
REMARK  4 active torsions:
REMARK  status: ('A' for Active; 'I' for Inactive)
REMARK    1  A    between atoms: C_2  and  C_4 
REMARK    2  A    between atoms: C_2  and  O_3 
REMARK    3  A    between atoms: C_4  and  O_5 
REMARK    4  A    between atoms: O_5  and  C_6 
ROOT
HETATM    1  C   LIG     1      15.166  31.325  15.404  1.00  0.00     0.069 A 
HETATM    2  C   LIG     1      15.484  30.492  14.312  1.00  0.00     0.037 A 
HETATM    3  C   LIG     1      14.544  29.576  13.828  1.00  0.00     0.003 A 
HETATM    4  C   LIG     1      13.284  29.482  14.426  1.00  0.00     0.000 A 
HETATM    5  C   LIG     1      12.964  30.302  15.511  1.00  0.00     0.003 A 
HETATM    6  C   LIG     1      13.901  31.218  15.997  1.00  0.00     0.037 A 
ENDROOT
BRANCH   1   7
HETATM    7  O   LIG     1      16.069  32.262  15.932  1.00  0.00    -0.341 OA
BRANCH   7   8
HETATM    8  C   LIG     1      15.919  33.680  15.865  1.00  0.00     0.285 C 
BRANCH   8   9
HETATM    9  C   LIG     1      15.139  34.187  17.042  1.00  0.00     0.164 C 
HETATM   10  O   LIG     1      15.652  34.160  18.191  1.00  0.00    -0.648 OA
BRANCH   9  11
HETATM   11  O   LIG     1      13.862  34.715  16.876  1.00  0.00    -0.775 OA
HETATM   12  H   LIG     1      13.644  35.665  17.153  1.00  0.00     0.167 HD
ENDBRANCH   9  11
ENDBRANCH   8   9
ENDBRANCH   7   8
ENDBRANCH   1   7
TORSDOF 4
ENDMDL
MODEL 14
REMARK VINA RESULT:      -4.5      5.727      7.700
REMARK  4 active torsions:
REMARK  status: ('A' for Active; 'I' for Inactive)
REMARK    1  A    between atoms: C_2  and  C_4 
REMARK    2  A    between atoms: C_2  and  O_3 
REMARK    3  A    between atoms: C_4  and  O_5 
REMARK    4  A    between atoms: O_5  and  C_6 
ROOT
HETATM    1  C   LIG     1      14.997  32.925  17.597  1.00  0.00     0.069 A 
HETATM    2  C   LIG     1      15.291  34.284  17.833  1.00  0.00     0.037 A 
HETATM    3  C   LIG     1      15.585  34.725  19.127  1.00  0.00     0.003 A 
HETATM    4  C   LIG     1      15.590  33.821  20.193  1.00  0.00     0.000 A 
HETATM    5  C   LIG     1      15.298  32.474  19.966  1.00  0.00     0.003 A 
HETATM    6  C   LIG     1      15.002  32.029  18.674  1.00  0.00     0.037 A 
ENDROOT
BRANCH   1   7
HETATM    7  O   LIG     1      14.694  32.426  16.320  1.00  0.00    -0.341 OA
BRANCH   7   8
HETATM    8  C   LIG     1      14.123  31.145  16.050  1.00  0.00     0.285 C 
BRANCH   8   9
HETATM    9  C   LIG     1      14.761  30.523  14.843  1.00  0.00     0.164 C 
HETATM   10  O   LIG     1      14.105  29.714  14.135  1.00  0.00    -0.648 OA
BRANCH   9  11
HETATM   11  O   LIG     1      16.063  30.851  14.478  1.00  0.00    -0.775 OA
HETATM   12  H   LIG     1      16.354  31.815  14.370  1.00  0.00     0.167 HD
ENDBRANCH   9  11
ENDBRANCH   8   9
ENDBRANCH   7   8
ENDBRANCH   1   7
TORSDOF 4
ENDMDL
MODEL 15
REMARK VINA RESULT:      -4.0     15.946     16.857
REMARK  4 active torsions:
REMARK  status: ('A' for Active; 'I' for Inactive)
REMARK    1  A    between atoms: C_2  and  C_4 
REMARK    2  A    between atoms: C_2  and  O_3 
REMARK    3  A    between atoms: C_4  and  O_5 
REMARK    4  A    between atoms: O_5  and  C_6 
ROOT
HETATM    1  C   LIG     1      26.739  30.560  35.933  1.00  0.00     0.069 A 
HETATM    2  C   LIG     1      28.092  30.949  36.015  1.00  0.00     0.037 A 
HETATM    3  C   LIG     1      28.532  31.743  37.079  1.00  0.00     0.003 A 
HETATM    4  C   LIG     1      27.633  32.155  38.067  1.00  0.00     0.000 A 
HETATM    5  C   LIG     1      26.290  31.776  37.989  1.00  0.00     0.003 A 
HETATM    6  C   LIG     1      25.847  30.983  36.927  1.00  0.00     0.037 A 
ENDROOT
BRANCH   1   7
HETATM    7  O   LIG     1      26.241  29.765  34.889  1.00  0.00    -0.341 OA
BRANCH   7   8
HETATM    8  C   LIG     1      27.039  29.054  33.941  1.00  0.00     0.285 C 
BRANCH   8   9
HETATM    9  C   LIG     1      26.484  27.680  33.704  1.00  0.00     0.164 C 
HETATM   10  O   LIG     1      26.590  26.800  34.598  1.00  0.00    -0.648 OA
BRANCH   9  11
HETATM   11  O   LIG     1      25.826  27.373  32.517  1.00  0.00    -0.775 OA
HETATM   12  H   LIG     1      26.188  26.676  31.878  1.00  0.00     0.167 HD
ENDBRANCH   9  11
ENDBRANCH   8   9
ENDBRANCH   7   8
ENDBRANCH   1   7
TORSDOF 4
ENDMDL
