MODEL 1
REMARK VINA RESULT:      -6.7      0.000      0.000
REMARK  4 active torsions:
REMARK  status: ('A' for Active; 'I' for Inactive)
REMARK    1  A    between atoms: O_1  and  C_2 
REMARK    2  A    between atoms: C_2  and  C_3 
REMARK    3  A    between atoms: C_3  and  C_4 
REMARK    4  A    between atoms: C_4  and  C_5 
ROOT
HETATM    1  C   LIG     1      17.274  36.388  24.181  1.00  0.00    -0.058 A 
HETATM    2  C   LIG     1      17.285  35.069  24.666  1.00  0.00     0.007 A 
HETATM    3  C   LIG     1      17.813  34.787  25.930  1.00  0.00     0.001 A 
HETATM    4  C   LIG     1      18.336  35.816  26.717  1.00  0.00     0.000 A 
HETATM    5  C   LIG     1      18.334  37.130  26.241  1.00  0.00     0.001 A 
HETATM    6  C   LIG     1      17.806  37.417  24.978  1.00  0.00     0.007 A 
ENDROOT
BRANCH   1   7
HETATM    7  C   LIG     1      16.711  36.698  22.818  1.00  0.00     0.041 C 
BRANCH   7   8
HETATM    8  C   LIG     1      16.411  35.409  22.042  1.00  0.00     0.030 C 
BRANCH   8   9
HETATM    9  C   LIG     1      15.097  35.510  21.259  1.00  0.00     0.164 C 
BRANCH   9  10
HETATM   10  O   LIG     1      14.239  34.449  21.581  1.00  0.00    -0.401 OA
HETATM   11  H   LIG     1      14.775  33.617  21.509  1.00  0.00     0.209 HD
ENDBRANCH   9  10
ENDBRANCH   8   9
ENDBRANCH   7   8
ENDBRANCH   1   7
TORSDOF 4
ENDMDL
MODEL 2
REMARK VINA RESULT:      -6.5      2.587      3.302
REMARK  4 active torsions:
REMARK  status: ('A' for Active; 'I' for Inactive)
REMARK    1  A    between atoms: O_1  and  C_2 
REMARK    2  A    between atoms: C_2  and  C_3 
REMARK    3  A    between atoms: C_3  and  C_4 
REMARK    4  A    between atoms: C_4  and  C_5 
ROOT
HETATM    1  C   LIG     1      17.184  36.809  24.232  1.00  0.00    -0.058 A 
HETATM    2  C   LIG     1      17.866  37.580  25.190  1.00  0.00     0.007 A 
HETATM    3  C   LIG     1      18.439  36.969  26.309  1.00  0.00     0.001 A 
HETATM    4  C   LIG     1      18.333  35.586  26.484  1.00  0.00     0.000 A 
HETATM    5  C   LIG     1      17.653  34.813  25.540  1.00  0.00     0.001 A 
HETATM    6  C   LIG     1      17.079  35.420  24.419  1.00  0.00     0.007 A 
ENDROOT
BRANCH   1   7
HETATM    7  C   LIG     1      16.561  37.462  23.026  1.00  0.00     0.041 C 
BRANCH   7   8
HETATM    8  C   LIG     1      17.175  38.846  22.772  1.00  0.00     0.030 C 
BRANCH   8   9
HETATM    9  C   LIG     1      18.179  38.817  21.614  1.00  0.00     0.164 C 
BRANCH   9  10
HETATM   10  O   LIG     1      19.403  39.383  21.998  1.00  0.00    -0.401 OA
HETATM   11  H   LIG     1      19.654  38.960  22.860  1.00  0.00     0.209 HD
ENDBRANCH   9  10
ENDBRANCH   8   9
ENDBRANCH   7   8
ENDBRANCH   1   7
TORSDOF 4
ENDMDL
MODEL 3
REMARK VINA RESULT:      -6.4      2.998      4.377
REMARK  4 active torsions:
REMARK  status: ('A' for Active; 'I' for Inactive)
REMARK    1  A    between atoms: O_1  and  C_2 
REMARK    2  A    between atoms: C_2  and  C_3 
REMARK    3  A    between atoms: C_3  and  C_4 
REMARK    4  A    between atoms: C_4  and  C_5 
ROOT
HETATM    1  C   LIG     1      17.626  37.337  21.282  1.00  0.00    -0.058 A 
HETATM    2  C   LIG     1      18.253  36.647  20.230  1.00  0.00     0.007 A 
HETATM    3  C   LIG     1      19.245  37.273  19.469  1.00  0.00     0.001 A 
HETATM    4  C   LIG     1      19.617  38.591  19.749  1.00  0.00     0.000 A 
HETATM    5  C   LIG     1      18.995  39.286  20.790  1.00  0.00     0.001 A 
HETATM    6  C   LIG     1      18.003  38.664  21.554  1.00  0.00     0.007 A 
ENDROOT
BRANCH   1   7
HETATM    7  C   LIG     1      16.553  36.670  22.103  1.00  0.00     0.041 C 
BRANCH   7   8
HETATM    8  C   LIG     1      16.585  35.146  21.915  1.00  0.00     0.030 C 
BRANCH   8   9
HETATM    9  C   LIG     1      15.251  34.613  21.380  1.00  0.00     0.164 C 
BRANCH   9  10
HETATM   10  O   LIG     1      14.311  35.646  21.258  1.00  0.00    -0.401 OA
HETATM   11  H   LIG     1      14.531  36.133  20.421  1.00  0.00     0.209 HD
ENDBRANCH   9  10
ENDBRANCH   8   9
ENDBRANCH   7   8
ENDBRANCH   1   7
TORSDOF 4
ENDMDL
MODEL 4
REMARK VINA RESULT:      -6.4      3.542      5.174
REMARK  4 active torsions:
REMARK  status: ('A' for Active; 'I' for Inactive)
REMARK    1  A    between atoms: O_1  and  C_2 
REMARK    2  A    between atoms: C_2  and  C_3 
REMARK    3  A    between atoms: C_3  and  C_4 
REMARK    4  A    between atoms: C_4  and  C_5 
ROOT
HETATM    1  C   LIG     1      17.733  37.523  21.327  1.00  0.00    -0.058 A 
HETATM    2  C   LIG     1      18.198  36.635  20.342  1.00  0.00     0.007 A 
HETATM    3  C   LIG     1      19.192  37.035  19.444  1.00  0.00     0.001 A 
HETATM    4  C   LIG     1      19.727  38.324  19.519  1.00  0.00     0.000 A 
HETATM    5  C   LIG     1      19.267  39.216  20.491  1.00  0.00     0.001 A 
HETATM    6  C   LIG     1      18.273  38.820  21.392  1.00  0.00     0.007 A 
ENDROOT
BRANCH   1   7
HETATM    7  C   LIG     1      16.659  37.100  22.295  1.00  0.00     0.041 C 
BRANCH   7   8
HETATM    8  C   LIG     1      16.500  38.128  23.424  1.00  0.00     0.030 C 
BRANCH   8   9
HETATM    9  C   LIG     1      17.095  37.619  24.742  1.00  0.00     0.164 C 
BRANCH   9  10
HETATM   10  O   LIG     1      17.223  38.663  25.670  1.00  0.00    -0.401 OA
HETATM   11  H   LIG     1      16.682  38.408  26.462  1.00  0.00     0.209 HD
ENDBRANCH   9  10
ENDBRANCH   8   9
ENDBRANCH   7   8
ENDBRANCH   1   7
TORSDOF 4
ENDMDL
MODEL 5
REMARK VINA RESULT:      -6.4      2.883      4.667
REMARK  4 active torsions:
REMARK  status: ('A' for Active; 'I' for Inactive)
REMARK    1  A    between atoms: O_1  and  C_2 
REMARK    2  A    between atoms: C_2  and  C_3 
REMARK    3  A    between atoms: C_3  and  C_4 
REMARK    4  A    between atoms: C_4  and  C_5 
ROOT
HETATM    1  C   LIG     1      17.749  37.540  21.325  1.00  0.00    -0.058 A 
HETATM    2  C   LIG     1      18.231  38.858  21.395  1.00  0.00     0.007 A 
HETATM    3  C   LIG     1      19.203  39.303  20.494  1.00  0.00     0.001 A 
HETATM    4  C   LIG     1      19.705  38.435  19.519  1.00  0.00     0.000 A 
HETATM    5  C   LIG     1      19.236  37.121  19.446  1.00  0.00     0.001 A 
HETATM    6  C   LIG     1      18.263  36.672  20.345  1.00  0.00     0.007 A 
ENDROOT
BRANCH   1   7
HETATM    7  C   LIG     1      16.705  37.053  22.297  1.00  0.00     0.041 C 
BRANCH   7   8
HETATM    8  C   LIG     1      16.253  35.628  21.949  1.00  0.00     0.030 C 
BRANCH   8   9
HETATM    9  C   LIG     1      14.858  35.615  21.314  1.00  0.00     0.164 C 
BRANCH   9  10
HETATM   10  O   LIG     1      14.207  34.397  21.562  1.00  0.00    -0.401 OA
HETATM   11  H   LIG     1      14.660  33.986  22.343  1.00  0.00     0.209 HD
ENDBRANCH   9  10
ENDBRANCH   8   9
ENDBRANCH   7   8
ENDBRANCH   1   7
TORSDOF 4
ENDMDL
MODEL 6
REMARK VINA RESULT:      -6.1      3.431      5.390
REMARK  4 active torsions:
REMARK  status: ('A' for Active; 'I' for Inactive)
REMARK    1  A    between atoms: O_1  and  C_2 
REMARK    2  A    between atoms: C_2  and  C_3 
REMARK    3  A    between atoms: C_3  and  C_4 
REMARK    4  A    between atoms: C_4  and  C_5 
ROOT
HETATM    1  C   LIG     1      17.665  37.476  21.307  1.00  0.00    -0.058 A 
HETATM    2  C   LIG     1      18.030  38.833  21.280  1.00  0.00     0.007 A 
HETATM    3  C   LIG     1      18.840  39.325  20.252  1.00  0.00     0.001 A 
HETATM    4  C   LIG     1      19.296  38.467  19.247  1.00  0.00     0.000 A 
HETATM    5  C   LIG     1      18.942  37.116  19.269  1.00  0.00     0.001 A 
HETATM    6  C   LIG     1      18.132  36.619  20.294  1.00  0.00     0.007 A 
ENDROOT
BRANCH   1   7
HETATM    7  C   LIG     1      16.796  36.939  22.415  1.00  0.00     0.041 C 
BRANCH   7   8
HETATM    8  C   LIG     1      17.142  37.602  23.755  1.00  0.00     0.030 C 
BRANCH   8   9
HETATM    9  C   LIG     1      17.334  36.566  24.868  1.00  0.00     0.164 C 
BRANCH   9  10
HETATM   10  O   LIG     1      17.342  37.180  26.129  1.00  0.00    -0.401 OA
HETATM   11  H   LIG     1      16.901  38.063  26.018  1.00  0.00     0.209 HD
ENDBRANCH   9  10
ENDBRANCH   8   9
ENDBRANCH   7   8
ENDBRANCH   1   7
TORSDOF 4
ENDMDL
MODEL 7
REMARK VINA RESULT:      -6.0      3.751      4.844
REMARK  4 active torsions:
REMARK  status: ('A' for Active; 'I' for Inactive)
REMARK    1  A    between atoms: O_1  and  C_2 
REMARK    2  A    between atoms: C_2  and  C_3 
REMARK    3  A    between atoms: C_3  and  C_4 
REMARK    4  A    between atoms: C_4  and  C_5 
ROOT
HETATM    1  C   LIG     1      17.721  37.851  21.889  1.00  0.00    -0.058 A 
HETATM    2  C   LIG     1      17.401  37.644  23.242  1.00  0.00     0.007 A 
HETATM    3  C   LIG     1      16.980  36.385  23.683  1.00  0.00     0.001 A 
HETATM    4  C   LIG     1      16.871  35.326  22.777  1.00  0.00     0.000 A 
HETATM    5  C   LIG     1      17.182  35.524  21.430  1.00  0.00     0.001 A 
HETATM    6  C   LIG     1      17.604  36.780  20.985  1.00  0.00     0.007 A 
ENDROOT
BRANCH   1   7
HETATM    7  C   LIG     1      18.170  39.206  21.407  1.00  0.00     0.041 C 
BRANCH   7   8
HETATM    8  C   LIG     1      18.682  39.132  19.961  1.00  0.00     0.030 C 
BRANCH   8   9
HETATM    9  C   LIG     1      20.185  38.832  19.906  1.00  0.00     0.164 C 
BRANCH   9  10
HETATM   10  O   LIG     1      20.796  39.528  18.853  1.00  0.00    -0.401 OA
HETATM   11  H   LIG     1      20.275  39.320  18.035  1.00  0.00     0.209 HD
ENDBRANCH   9  10
ENDBRANCH   8   9
ENDBRANCH   7   8
ENDBRANCH   1   7
TORSDOF 4
ENDMDL
MODEL 8
REMARK VINA RESULT:      -5.7      4.123      5.076
REMARK  4 active torsions:
REMARK  status: ('A' for Active; 'I' for Inactive)
REMARK    1  A    between atoms: O_1  and  C_2 
REMARK    2  A    between atoms: C_2  and  C_3 
REMARK    3  A    between atoms: C_3  and  C_4 
REMARK    4  A    between atoms: C_4  and  C_5 
ROOT
HETATM    1  C   LIG     1      18.149  37.483  20.691  1.00  0.00    -0.058 A 
HETATM    2  C   LIG     1      17.422  36.351  21.099  1.00  0.00     0.007 A 
HETATM    3  C   LIG     1      16.496  36.445  22.141  1.00  0.00     0.001 A 
HETATM    4  C   LIG     1      16.289  37.667  22.788  1.00  0.00     0.000 A 
HETATM    5  C   LIG     1      17.011  38.796  22.393  1.00  0.00     0.001 A 
HETATM    6  C   LIG     1      17.938  38.707  21.350  1.00  0.00     0.007 A 
ENDROOT
BRANCH   1   7
HETATM    7  C   LIG     1      19.152  37.387  19.571  1.00  0.00     0.041 C 
BRANCH   7   8
HETATM    8  C   LIG     1      19.563  38.783  19.081  1.00  0.00     0.030 C 
BRANCH   8   9
HETATM    9  C   LIG     1      18.970  39.098  17.703  1.00  0.00     0.164 C 
BRANCH   9  10
HETATM   10  O   LIG     1      18.269  40.313  17.726  1.00  0.00    -0.401 OA
HETATM   11  H   LIG     1      18.702  40.903  17.056  1.00  0.00     0.209 HD
ENDBRANCH   9  10
ENDBRANCH   8   9
ENDBRANCH   7   8
ENDBRANCH   1   7
TORSDOF 4
ENDMDL
MODEL 9
REMARK VINA RESULT:      -5.6      6.797     10.240
REMARK  4 active torsions:
REMARK  status: ('A' for Active; 'I' for Inactive)
REMARK    1  A    between atoms: O_1  and  C_2 
REMARK    2  A    between atoms: C_2  and  C_3 
REMARK    3  A    between atoms: C_3  and  C_4 
REMARK    4  A    between atoms: C_4  and  C_5 
ROOT
HETATM    1  C   LIG     1      14.323  31.383  16.080  1.00  0.00    -0.058 A 
HETATM    2  C   LIG     1      15.432  31.897  15.386  1.00  0.00     0.007 A 
HETATM    3  C   LIG     1      15.807  31.354  14.154  1.00  0.00     0.001 A 
HETATM    4  C   LIG     1      15.080  30.293  13.605  1.00  0.00     0.000 A 
HETATM    5  C   LIG     1      13.979  29.773  14.290  1.00  0.00     0.001 A 
HETATM    6  C   LIG     1      13.601  30.313  15.523  1.00  0.00     0.007 A 
ENDROOT
BRANCH   1   7
HETATM    7  C   LIG     1      13.917  31.961  17.411  1.00  0.00     0.041 C 
BRANCH   7   8
HETATM    8  C   LIG     1      15.080  32.731  18.052  1.00  0.00     0.030 C 
BRANCH   8   9
HETATM    9  C   LIG     1      15.217  32.412  19.546  1.00  0.00     0.164 C 
BRANCH   9  10
HETATM   10  O   LIG     1      14.268  31.459  19.943  1.00  0.00    -0.401 OA
HETATM   11  H   LIG     1      13.487  31.567  19.342  1.00  0.00     0.209 HD
ENDBRANCH   9  10
ENDBRANCH   8   9
ENDBRANCH   7   8
ENDBRANCH   1   7
TORSDOF 4
ENDMDL
MODEL 10
REMARK VINA RESULT:      -5.5      6.523      9.902
REMARK  4 active torsions:
REMARK  status: ('A' for Active; 'I' for Inactive)
REMARK    1  A    between atoms: O_1  and  C_2 
REMARK    2  A    between atoms: C_2  and  C_3 
REMARK    3  A    between atoms: C_3  and  C_4 
REMARK    4  A    between atoms: C_4  and  C_5 
ROOT
HETATM    1  C   LIG     1      14.602  31.750  16.210  1.00  0.00    -0.058 A 
HETATM    2  C   LIG     1      13.639  30.752  15.984  1.00  0.00     0.007 A 
HETATM    3  C   LIG     1      13.717  29.941  14.847  1.00  0.00     0.001 A 
HETATM    4  C   LIG     1      14.754  30.123  13.927  1.00  0.00     0.000 A 
HETATM    5  C   LIG     1      15.712  31.116  14.142  1.00  0.00     0.001 A 
HETATM    6  C   LIG     1      15.638  31.929  15.277  1.00  0.00     0.007 A 
ENDROOT
BRANCH   1   7
HETATM    7  C   LIG     1      14.520  32.630  17.431  1.00  0.00     0.041 C 
BRANCH   7   8
HETATM    8  C   LIG     1      14.682  31.805  18.715  1.00  0.00     0.030 C 
BRANCH   8   9
HETATM    9  C   LIG     1      15.434  32.584  19.800  1.00  0.00     0.164 C 
BRANCH   9  10
HETATM   10  O   LIG     1      14.539  33.167  20.709  1.00  0.00    -0.401 OA
HETATM   11  H   LIG     1      14.574  34.146  20.554  1.00  0.00     0.209 HD
ENDBRANCH   9  10
ENDBRANCH   8   9
ENDBRANCH   7   8
ENDBRANCH   1   7
TORSDOF 4
ENDMDL
MODEL 11
REMARK VINA RESULT:      -5.5      8.916     10.954
REMARK  4 active torsions:
REMARK  status: ('A' for Active; 'I' for Inactive)
REMARK    1  A    between atoms: O_1  and  C_2 
REMARK    2  A    between atoms: C_2  and  C_3 
REMARK    3  A    between atoms: C_3  and  C_4 
REMARK    4  A    between atoms: C_4  and  C_5 
ROOT
HETATM    1  C   LIG     1      14.293  30.740  15.251  1.00  0.00    -0.058 A 
HETATM    2  C   LIG     1      13.427  30.979  16.333  1.00  0.00     0.007 A 
HETATM    3  C   LIG     1      13.664  32.048  17.203  1.00  0.00     0.001 A 
HETATM    4  C   LIG     1      14.767  32.884  17.003  1.00  0.00     0.000 A 
HETATM    5  C   LIG     1      15.635  32.650  15.933  1.00  0.00     0.001 A 
HETATM    6  C   LIG     1      15.402  31.583  15.060  1.00  0.00     0.007 A 
ENDROOT
BRANCH   1   7
HETATM    7  C   LIG     1      14.045  29.587  14.313  1.00  0.00     0.041 C 
BRANCH   7   8
HETATM    8  C   LIG     1      15.369  28.997  13.808  1.00  0.00     0.030 C 
BRANCH   8   9
HETATM    9  C   LIG     1      15.241  27.501  13.496  1.00  0.00     0.164 C 
BRANCH   9  10
HETATM   10  O   LIG     1      13.947  27.191  13.054  1.00  0.00    -0.401 OA
HETATM   11  H   LIG     1      13.895  26.202  12.994  1.00  0.00     0.209 HD
ENDBRANCH   9  10
ENDBRANCH   8   9
ENDBRANCH   7   8
ENDBRANCH   1   7
TORSDOF 4
ENDMDL
MODEL 12
REMARK VINA RESULT:      -5.4      9.142     10.484
REMARK  4 active torsions:
REMARK  status: ('A' for Active; 'I' for Inactive)
REMARK    1  A    between atoms: O_1  and  C_2 
REMARK    2  A    between atoms: C_2  and  C_3 
REMARK    3  A    between atoms: C_3  and  C_4 
REMARK    4  A    between atoms: C_4  and  C_5 
ROOT
HETATM    1  C   LIG     1      15.681  32.133  15.393  1.00  0.00    -0.058 A 
HETATM    2  C   LIG     1      15.183  31.035  14.671  1.00  0.00     0.007 A 
HETATM    3  C   LIG     1      14.033  30.368  15.106  1.00  0.00     0.001 A 
HETATM    4  C   LIG     1      13.375  30.789  16.265  1.00  0.00     0.000 A 
HETATM    5  C   LIG     1      13.867  31.876  16.991  1.00  0.00     0.001 A 
HETATM    6  C   LIG     1      15.015  32.546  16.560  1.00  0.00     0.007 A 
ENDROOT
BRANCH   1   7
HETATM    7  C   LIG     1      16.922  32.853  14.932  1.00  0.00     0.041 C 
BRANCH   7   8
HETATM    8  C   LIG     1      16.992  32.900  13.399  1.00  0.00     0.030 C 
BRANCH   8   9
HETATM    9  C   LIG     1      17.939  34.001  12.908  1.00  0.00     0.164 C 
BRANCH   9  10
HETATM   10  O   LIG     1      17.232  35.006  12.232  1.00  0.00    -0.401 OA
HETATM   11  H   LIG     1      17.729  35.852  12.379  1.00  0.00     0.209 HD
ENDBRANCH   9  10
ENDBRANCH   8   9
ENDBRANCH   7   8
ENDBRANCH   1   7
TORSDOF 4
ENDMDL
MODEL 13
REMARK VINA RESULT:      -5.1      7.680     10.505
REMARK  4 active torsions:
REMARK  status: ('A' for Active; 'I' for Inactive)
REMARK    1  A    between atoms: O_1  and  C_2 
REMARK    2  A    between atoms: C_2  and  C_3 
REMARK    3  A    between atoms: C_3  and  C_4 
REMARK    4  A    between atoms: C_4  and  C_5 
ROOT
HETATM    1  C   LIG     1      13.956  31.179  15.874  1.00  0.00    -0.058 A 
HETATM    2  C   LIG     1      13.053  30.192  15.442  1.00  0.00     0.007 A 
HETATM    3  C   LIG     1      13.391  29.340  14.387  1.00  0.00     0.001 A 
HETATM    4  C   LIG     1      14.630  29.468  13.752  1.00  0.00     0.000 A 
HETATM    5  C   LIG     1      15.531  30.449  14.171  1.00  0.00     0.001 A 
HETATM    6  C   LIG     1      15.198  31.304  15.226  1.00  0.00     0.007 A 
ENDROOT
BRANCH   1   7
HETATM    7  C   LIG     1      13.596  32.104  17.008  1.00  0.00     0.041 C 
BRANCH   7   8
HETATM    8  C   LIG     1      14.849  32.769  17.593  1.00  0.00     0.030 C 
BRANCH   8   9
HETATM    9  C   LIG     1      14.953  34.243  17.184  1.00  0.00     0.164 C 
BRANCH   9  10
HETATM   10  O   LIG     1      15.857  34.929  18.008  1.00  0.00    -0.401 OA
HETATM   11  H   LIG     1      15.329  35.603  18.510  1.00  0.00     0.209 HD
ENDBRANCH   9  10
ENDBRANCH   8   9
ENDBRANCH   7   8
ENDBRANCH   1   7
TORSDOF 4
ENDMDL
MODEL 14
REMARK VINA RESULT:      -4.6      9.630     11.141
REMARK  4 active torsions:
REMARK  status: ('A' for Active; 'I' for Inactive)
REMARK    1  A    between atoms: O_1  and  C_2 
REMARK    2  A    between atoms: C_2  and  C_3 
REMARK    3  A    between atoms: C_3  and  C_4 
REMARK    4  A    between atoms: C_4  and  C_5 
ROOT
HETATM    1  C   LIG     1      15.416  31.588  14.844  1.00  0.00    -0.058 A 
HETATM    2  C   LIG     1      15.809  31.650  13.496  1.00  0.00     0.007 A 
HETATM    3  C   LIG     1      16.794  32.555  13.088  1.00  0.00     0.001 A 
HETATM    4  C   LIG     1      17.391  33.408  14.021  1.00  0.00     0.000 A 
HETATM    5  C   LIG     1      17.003  33.357  15.362  1.00  0.00     0.001 A 
HETATM    6  C   LIG     1      16.019  32.453  15.775  1.00  0.00     0.007 A 
ENDROOT
BRANCH   1   7
HETATM    7  C   LIG     1      14.352  30.618  15.288  1.00  0.00     0.041 C 
BRANCH   7   8
HETATM    8  C   LIG     1      14.198  29.472  14.278  1.00  0.00     0.030 C 
BRANCH   8   9
HETATM    9  C   LIG     1      12.735  29.034  14.137  1.00  0.00     0.164 C 
BRANCH   9  10
HETATM   10  O   LIG     1      12.636  27.637  14.068  1.00  0.00    -0.401 OA
HETATM   11  H   LIG     1      13.081  27.361  13.225  1.00  0.00     0.209 HD
ENDBRANCH   9  10
ENDBRANCH   8   9
ENDBRANCH   7   8
ENDBRANCH   1   7
TORSDOF 4
ENDMDL
MODEL 15
REMARK VINA RESULT:      -4.6     10.735     12.687
REMARK  4 active torsions:
REMARK  status: ('A' for Active; 'I' for Inactive)
REMARK    1  A    between atoms: O_1  and  C_2 
REMARK    2  A    between atoms: C_2  and  C_3 
REMARK    3  A    between atoms: C_3  and  C_4 
REMARK    4  A    between atoms: C_4  and  C_5 
ROOT
HETATM    1  C   LIG     1      14.365  29.104  14.201  1.00  0.00    -0.058 A 
HETATM    2  C   LIG     1      13.259  29.504  14.970  1.00  0.00     0.007 A 
HETATM    3  C   LIG     1      13.286  30.716  15.667  1.00  0.00     0.001 A 
HETATM    4  C   LIG     1      14.417  31.536  15.605  1.00  0.00     0.000 A 
HETATM    5  C   LIG     1      15.523  31.143  14.847  1.00  0.00     0.001 A 
HETATM    6  C   LIG     1      15.500  29.932  14.148  1.00  0.00     0.007 A 
ENDROOT
BRANCH   1   7
HETATM    7  C   LIG     1      14.344  27.797  13.451  1.00  0.00     0.041 C 
BRANCH   7   8
HETATM    8  C   LIG     1      15.769  27.306  13.164  1.00  0.00     0.030 C 
BRANCH   8   9
HETATM    9  C   LIG     1      15.953  26.929  11.689  1.00  0.00     0.164 C 
BRANCH   9  10
HETATM   10  O   LIG     1      14.732  26.550  11.113  1.00  0.00    -0.401 OA
HETATM   11  H   LIG     1      14.596  27.136  10.323  1.00  0.00     0.209 HD
ENDBRANCH   9  10
ENDBRANCH   8   9
ENDBRANCH   7   8
ENDBRANCH   1   7
TORSDOF 4
ENDMDL
MODEL 16
REMARK VINA RESULT:      -4.6      6.553      8.570
REMARK  4 active torsions:
REMARK  status: ('A' for Active; 'I' for Inactive)
REMARK    1  A    between atoms: O_1  and  C_2 
REMARK    2  A    between atoms: C_2  and  C_3 
REMARK    3  A    between atoms: C_3  and  C_4 
REMARK    4  A    between atoms: C_4  and  C_5 
ROOT
HETATM    1  C   LIG     1      14.385  32.041  17.543  1.00  0.00    -0.058 A 
HETATM    2  C   LIG     1      14.643  31.699  18.882  1.00  0.00     0.007 A 
HETATM    3  C   LIG     1      15.209  32.635  19.753  1.00  0.00     0.001 A 
HETATM    4  C   LIG     1      15.526  33.917  19.294  1.00  0.00     0.000 A 
HETATM    5  C   LIG     1      15.278  34.264  17.964  1.00  0.00     0.001 A 
HETATM    6  C   LIG     1      14.711  33.332  17.089  1.00  0.00     0.007 A 
ENDROOT
BRANCH   1   7
HETATM    7  C   LIG     1      13.780  31.035  16.599  1.00  0.00     0.041 C 
BRANCH   7   8
HETATM    8  C   LIG     1      14.582  30.957  15.292  1.00  0.00     0.030 C 
BRANCH   8   9
HETATM    9  C   LIG     1      14.103  29.805  14.401  1.00  0.00     0.164 C 
BRANCH   9  10
HETATM   10  O   LIG     1      15.005  29.575  13.352  1.00  0.00    -0.401 OA
HETATM   11  H   LIG     1      15.847  29.253  13.766  1.00  0.00     0.209 HD
ENDBRANCH   9  10
ENDBRANCH   8   9
ENDBRANCH   7   8
ENDBRANCH   1   7
TORSDOF 4
ENDMDL
MODEL 17
REMARK VINA RESULT:      -4.5      9.184     10.393
REMARK  4 active torsions:
REMARK  status: ('A' for Active; 'I' for Inactive)
REMARK    1  A    between atoms: O_1  and  C_2 
REMARK    2  A    between atoms: C_2  and  C_3 
REMARK    3  A    between atoms: C_3  and  C_4 
REMARK    4  A    between atoms: C_4  and  C_5 
ROOT
HETATM    1  C   LIG     1      15.559  31.619  14.647  1.00  0.00    -0.058 A 
HETATM    2  C   LIG     1      16.042  31.825  13.343  1.00  0.00     0.007 A 
HETATM    3  C   LIG     1      17.006  32.806  13.094  1.00  0.00     0.001 A 
HETATM    4  C   LIG     1      17.494  33.592  14.143  1.00  0.00     0.000 A 
HETATM    5  C   LIG     1      17.015  33.398  15.441  1.00  0.00     0.001 A 
HETATM    6  C   LIG     1      16.051  32.417  15.694  1.00  0.00     0.007 A 
ENDROOT
BRANCH   1   7
HETATM    7  C   LIG     1      14.516  30.566  14.920  1.00  0.00     0.041 C 
BRANCH   7   8
HETATM    8  C   LIG     1      13.956  30.705  16.343  1.00  0.00     0.030 C 
BRANCH   8   9
HETATM    9  C   LIG     1      12.486  31.137  16.334  1.00  0.00     0.164 C 
BRANCH   9  10
HETATM   10  O   LIG     1      12.268  32.192  17.233  1.00  0.00    -0.401 OA
HETATM   11  H   LIG     1      12.466  33.031  16.741  1.00  0.00     0.209 HD
ENDBRANCH   9  10
ENDBRANCH   8   9
ENDBRANCH   7   8
ENDBRANCH   1   7
TORSDOF 4
ENDMDL
MODEL 18
REMARK VINA RESULT:      -4.4      3.284      4.681
REMARK  4 active torsions:
REMARK  status: ('A' for Active; 'I' for Inactive)
REMARK    1  A    between atoms: O_1  and  C_2 
REMARK    2  A    between atoms: C_2  and  C_3 
REMARK    3  A    between atoms: C_3  and  C_4 
REMARK    4  A    between atoms: C_4  and  C_5 
ROOT
HETATM    1  C   LIG     1      17.415  36.575  21.022  1.00  0.00    -0.058 A 
HETATM    2  C   LIG     1      17.218  36.006  22.292  1.00  0.00     0.007 A 
HETATM    3  C   LIG     1      16.355  34.918  22.451  1.00  0.00     0.001 A 
HETATM    4  C   LIG     1      15.679  34.392  21.346  1.00  0.00     0.000 A 
HETATM    5  C   LIG     1      15.865  34.955  20.081  1.00  0.00     0.001 A 
HETATM    6  C   LIG     1      16.728  36.043  19.918  1.00  0.00     0.007 A 
ENDROOT
BRANCH   1   7
HETATM    7  C   LIG     1      18.341  37.751  20.846  1.00  0.00     0.041 C 
BRANCH   7   8
HETATM    8  C   LIG     1      18.339  38.644  22.094  1.00  0.00     0.030 C 
BRANCH   8   9
HETATM    9  C   LIG     1      16.949  39.228  22.371  1.00  0.00     0.164 C 
BRANCH   9  10
HETATM   10  O   LIG     1      16.640  39.158  23.737  1.00  0.00    -0.401 OA
HETATM   11  H   LIG     1      16.592  40.093  24.066  1.00  0.00     0.209 HD
ENDBRANCH   9  10
ENDBRANCH   8   9
ENDBRANCH   7   8
ENDBRANCH   1   7
TORSDOF 4
ENDMDL
MODEL 19
REMARK VINA RESULT:      -4.0     15.610     16.409
REMARK  4 active torsions:
REMARK  status: ('A' for Active; 'I' for Inactive)
REMARK    1  A    between atoms: O_1  and  C_2 
REMARK    2  A    between atoms: C_2  and  C_3 
REMARK    3  A    between atoms: C_3  and  C_4 
REMARK    4  A    between atoms: C_4  and  C_5 
ROOT
HETATM    1  C   LIG     1      27.403  30.881  35.558  1.00  0.00    -0.058 A 
HETATM    2  C   LIG     1      28.619  31.299  36.124  1.00  0.00     0.007 A 
HETATM    3  C   LIG     1      28.635  31.934  37.370  1.00  0.00     0.001 A 
HETATM    4  C   LIG     1      27.439  32.160  38.057  1.00  0.00     0.000 A 
HETATM    5  C   LIG     1      26.225  31.753  37.499  1.00  0.00     0.001 A 
HETATM    6  C   LIG     1      26.204  31.117  36.254  1.00  0.00     0.007 A 
ENDROOT
BRANCH   1   7
HETATM    7  C   LIG     1      27.378  30.200  34.214  1.00  0.00     0.041 C 
BRANCH   7   8
HETATM    8  C   LIG     1      26.571  28.895  34.274  1.00  0.00     0.030 C 
BRANCH   8   9
HETATM    9  C   LIG     1      26.884  27.979  33.085  1.00  0.00     0.164 C 
BRANCH   9  10
HETATM   10  O   LIG     1      25.717  27.370  32.602  1.00  0.00    -0.401 OA
HETATM   11  H   LIG     1      25.942  26.419  32.430  1.00  0.00     0.209 HD
ENDBRANCH   9  10
ENDBRANCH   8   9
ENDBRANCH   7   8
ENDBRANCH   1   7
TORSDOF 4
ENDMDL
MODEL 20
REMARK VINA RESULT:      -3.8     15.351     16.313
REMARK  4 active torsions:
REMARK  status: ('A' for Active; 'I' for Inactive)
REMARK    1  A    between atoms: O_1  and  C_2 
REMARK    2  A    between atoms: C_2  and  C_3 
REMARK    3  A    between atoms: C_3  and  C_4 
REMARK    4  A    between atoms: C_4  and  C_5 
ROOT
HETATM    1  C   LIG     1      26.834  28.972  35.552  1.00  0.00    -0.058 A 
HETATM    2  C   LIG     1      26.357  30.152  34.956  1.00  0.00     0.007 A 
HETATM    3  C   LIG     1      25.891  31.205  35.749  1.00  0.00     0.001 A 
HETATM    4  C   LIG     1      25.894  31.088  37.142  1.00  0.00     0.000 A 
HETATM    5  C   LIG     1      26.362  29.916  37.743  1.00  0.00     0.001 A 
HETATM    6  C   LIG     1      26.829  28.861  36.954  1.00  0.00     0.007 A 
ENDROOT
BRANCH   1   7
HETATM    7  C   LIG     1      27.333  27.832  34.702  1.00  0.00     0.041 C 
BRANCH   7   8
HETATM    8  C   LIG     1      27.725  28.322  33.301  1.00  0.00     0.030 C 
BRANCH   8   9
HETATM    9  C   LIG     1      26.958  27.575  32.204  1.00  0.00     0.164 C 
BRANCH   9  10
HETATM   10  O   LIG     1      25.640  27.311  32.605  1.00  0.00    -0.401 OA
HETATM   11  H   LIG     1      25.051  27.627  31.872  1.00  0.00     0.209 HD
ENDBRANCH   9  10
ENDBRANCH   8   9
ENDBRANCH   7   8
ENDBRANCH   1   7
TORSDOF 4
ENDMDL
