MODEL 1
REMARK VINA RESULT:      -9.2      0.000      0.000
REMARK  3 active torsions:
REMARK  status: ('A' for Active; 'I' for Inactive)
REMARK    1  A    between atoms: C_1  and  N_2 
REMARK    2  A    between atoms: N_2  and  N_3 
REMARK    3  A    between atoms: N_3  and  C_4 
ROOT
HETATM    1  N   LIG     1      16.578  38.174  22.692  1.00  0.00    -0.300 N 
HETATM    2  H   LIG     1      15.578  38.184  22.392  1.00  0.00     0.187 HD
ENDROOT
BRANCH   1   3
HETATM    3  C   LIG     1      17.578  38.089  21.662  1.00  0.00     0.048 A 
HETATM    4  C   LIG     1      18.383  39.208  21.392  1.00  0.00     0.031 A 
HETATM    5  C   LIG     1      19.356  39.158  20.390  1.00  0.00     0.002 A 
HETATM    6  C   LIG     1      19.527  37.993  19.639  1.00  0.00     0.000 A 
HETATM    7  C   LIG     1      18.720  36.879  19.885  1.00  0.00     0.002 A 
HETATM    8  C   LIG     1      17.745  36.925  20.887  1.00  0.00     0.031 A 
ENDBRANCH   1   3
BRANCH   1   9
HETATM    9  N   LIG     1      16.904  38.290  24.058  1.00  0.00    -0.300 N 
HETATM   10  H   LIG     1      16.873  39.223  24.524  1.00  0.00     0.187 HD
BRANCH   9  11
HETATM   11  C   LIG     1      17.334  37.167  24.848  1.00  0.00     0.048 A 
HETATM   12  C   LIG     1      17.055  35.866  24.401  1.00  0.00     0.031 A 
HETATM   13  C   LIG     1      17.470  34.757  25.144  1.00  0.00     0.002 A 
HETATM   14  C   LIG     1      18.178  34.936  26.334  1.00  0.00     0.000 A 
HETATM   15  C   LIG     1      18.479  36.226  26.778  1.00  0.00     0.002 A 
HETATM   16  C   LIG     1      18.065  37.339  26.040  1.00  0.00     0.031 A 
ENDBRANCH   9  11
ENDBRANCH   1   9
TORSDOF 3
ENDMDL
MODEL 2
REMARK VINA RESULT:      -9.2      0.045      5.361
REMARK  3 active torsions:
REMARK  status: ('A' for Active; 'I' for Inactive)
REMARK    1  A    between atoms: C_1  and  N_2 
REMARK    2  A    between atoms: N_2  and  N_3 
REMARK    3  A    between atoms: N_3  and  C_4 
ROOT
HETATM    1  N   LIG     1      16.947  38.325  24.061  1.00  0.00    -0.300 N 
HETATM    2  H   LIG     1      16.892  39.236  24.569  1.00  0.00     0.187 HD
ENDROOT
BRANCH   1   3
HETATM    3  C   LIG     1      17.343  37.167  24.817  1.00  0.00     0.048 A 
HETATM    4  C   LIG     1      18.052  37.340  26.016  1.00  0.00     0.031 A 
HETATM    5  C   LIG     1      18.459  36.233  26.767  1.00  0.00     0.002 A 
HETATM    6  C   LIG     1      18.171  34.941  26.319  1.00  0.00     0.000 A 
HETATM    7  C   LIG     1      17.481  34.756  25.118  1.00  0.00     0.002 A 
HETATM    8  C   LIG     1      17.073  35.861  24.365  1.00  0.00     0.031 A 
ENDBRANCH   1   3
BRANCH   1   9
HETATM    9  N   LIG     1      16.595  38.257  22.699  1.00  0.00    -0.300 N 
HETATM   10  H   LIG     1      15.589  38.249  22.420  1.00  0.00     0.187 HD
BRANCH   9  11
HETATM   11  C   LIG     1      17.575  38.148  21.651  1.00  0.00     0.048 A 
HETATM   12  C   LIG     1      18.436  39.229  21.402  1.00  0.00     0.031 A 
HETATM   13  C   LIG     1      19.405  39.147  20.397  1.00  0.00     0.002 A 
HETATM   14  C   LIG     1      19.531  37.981  19.640  1.00  0.00     0.000 A 
HETATM   15  C   LIG     1      18.692  36.892  19.891  1.00  0.00     0.002 A 
HETATM   16  C   LIG     1      17.721  36.969  20.894  1.00  0.00     0.031 A 
ENDBRANCH   9  11
ENDBRANCH   1   9
TORSDOF 3
ENDMDL
MODEL 3
REMARK VINA RESULT:      -9.2      0.052      1.295
REMARK  3 active torsions:
REMARK  status: ('A' for Active; 'I' for Inactive)
REMARK    1  A    between atoms: C_1  and  N_2 
REMARK    2  A    between atoms: N_2  and  N_3 
REMARK    3  A    between atoms: N_3  and  C_4 
ROOT
HETATM    1  N   LIG     1      16.548  38.152  22.629  1.00  0.00    -0.300 N 
HETATM    2  H   LIG     1      15.553  38.110  22.318  1.00  0.00     0.187 HD
ENDROOT
BRANCH   1   3
HETATM    3  C   LIG     1      17.563  38.121  21.611  1.00  0.00     0.048 A 
HETATM    4  C   LIG     1      17.758  36.944  20.871  1.00  0.00     0.031 A 
HETATM    5  C   LIG     1      18.744  36.881  19.882  1.00  0.00     0.002 A 
HETATM    6  C   LIG     1      19.554  37.992  19.631  1.00  0.00     0.000 A 
HETATM    7  C   LIG     1      19.382  39.163  20.374  1.00  0.00     0.002 A 
HETATM    8  C   LIG     1      18.397  39.229  21.363  1.00  0.00     0.031 A 
ENDBRANCH   1   3
BRANCH   1   9
HETATM    9  N   LIG     1      16.852  38.282  23.999  1.00  0.00    -0.300 N 
HETATM   10  H   LIG     1      16.793  39.217  24.459  1.00  0.00     0.187 HD
BRANCH   9  11
HETATM   11  C   LIG     1      17.296  37.174  24.802  1.00  0.00     0.048 A 
HETATM   12  C   LIG     1      17.044  35.864  24.363  1.00  0.00     0.031 A 
HETATM   13  C   LIG     1      17.473  34.768  25.117  1.00  0.00     0.002 A 
HETATM   14  C   LIG     1      18.168  34.970  26.311  1.00  0.00     0.000 A 
HETATM   15  C   LIG     1      18.442  36.268  26.748  1.00  0.00     0.002 A 
HETATM   16  C   LIG     1      18.014  37.368  25.998  1.00  0.00     0.031 A 
ENDBRANCH   9  11
ENDBRANCH   1   9
TORSDOF 3
ENDMDL
MODEL 4
REMARK VINA RESULT:      -7.8      1.408      2.460
REMARK  3 active torsions:
REMARK  status: ('A' for Active; 'I' for Inactive)
REMARK    1  A    between atoms: C_1  and  N_2 
REMARK    2  A    between atoms: N_2  and  N_3 
REMARK    3  A    between atoms: N_3  and  C_4 
ROOT
HETATM    1  N   LIG     1      15.903  38.188  23.321  1.00  0.00    -0.300 N 
HETATM    2  H   LIG     1      15.097  38.846  23.241  1.00  0.00     0.187 HD
ENDROOT
BRANCH   1   3
HETATM    3  C   LIG     1      16.084  37.229  22.264  1.00  0.00     0.048 A 
HETATM    4  C   LIG     1      17.308  37.188  21.578  1.00  0.00     0.031 A 
HETATM    5  C   LIG     1      17.510  36.274  20.539  1.00  0.00     0.002 A 
HETATM    6  C   LIG     1      16.485  35.401  20.168  1.00  0.00     0.000 A 
HETATM    7  C   LIG     1      15.256  35.445  20.831  1.00  0.00     0.002 A 
HETATM    8  C   LIG     1      15.050  36.358  21.870  1.00  0.00     0.031 A 
ENDBRANCH   1   3
BRANCH   1   9
HETATM    9  N   LIG     1      16.790  38.291  24.411  1.00  0.00    -0.300 N 
HETATM   10  H   LIG     1      17.113  39.230  24.732  1.00  0.00     0.187 HD
BRANCH   9  11
HETATM   11  C   LIG     1      17.321  37.139  25.088  1.00  0.00     0.048 A 
HETATM   12  C   LIG     1      18.215  37.322  26.155  1.00  0.00     0.031 A 
HETATM   13  C   LIG     1      18.739  36.220  26.838  1.00  0.00     0.002 A 
HETATM   14  C   LIG     1      18.367  34.926  26.470  1.00  0.00     0.000 A 
HETATM   15  C   LIG     1      17.463  34.732  25.422  1.00  0.00     0.002 A 
HETATM   16  C   LIG     1      16.937  35.831  24.735  1.00  0.00     0.031 A 
ENDBRANCH   9  11
ENDBRANCH   1   9
TORSDOF 3
ENDMDL
MODEL 5
REMARK VINA RESULT:      -7.0      3.818      6.150
REMARK  3 active torsions:
REMARK  status: ('A' for Active; 'I' for Inactive)
REMARK    1  A    between atoms: C_1  and  N_2 
REMARK    2  A    between atoms: N_2  and  N_3 
REMARK    3  A    between atoms: N_3  and  C_4 
ROOT
HETATM    1  N   LIG     1      15.967  35.372  20.008  1.00  0.00    -0.300 N 
HETATM    2  H   LIG     1      15.299  36.171  20.074  1.00  0.00     0.187 HD
ENDROOT
BRANCH   1   3
HETATM    3  C   LIG     1      15.508  34.176  19.353  1.00  0.00     0.048 A 
HETATM    4  C   LIG     1      15.353  32.999  20.102  1.00  0.00     0.031 A 
HETATM    5  C   LIG     1      14.919  31.820  19.491  1.00  0.00     0.002 A 
HETATM    6  C   LIG     1      14.647  31.802  18.121  1.00  0.00     0.000 A 
HETATM    7  C   LIG     1      14.814  32.962  17.361  1.00  0.00     0.002 A 
HETATM    8  C   LIG     1      15.248  34.144  17.969  1.00  0.00     0.031 A 
ENDBRANCH   1   3
BRANCH   1   9
HETATM    9  N   LIG     1      17.277  35.507  20.508  1.00  0.00    -0.300 N 
HETATM   10  H   LIG     1      17.748  34.693  20.962  1.00  0.00     0.187 HD
BRANCH   9  11
HETATM   11  C   LIG     1      17.997  36.751  20.466  1.00  0.00     0.048 A 
HETATM   12  C   LIG     1      17.719  37.738  21.425  1.00  0.00     0.031 A 
HETATM   13  C   LIG     1      18.411  38.953  21.415  1.00  0.00     0.002 A 
HETATM   14  C   LIG     1      19.395  39.189  20.454  1.00  0.00     0.000 A 
HETATM   15  C   LIG     1      19.694  38.207  19.506  1.00  0.00     0.002 A 
HETATM   16  C   LIG     1      19.005  36.991  19.512  1.00  0.00     0.031 A 
ENDBRANCH   9  11
ENDBRANCH   1   9
TORSDOF 3
ENDMDL
MODEL 6
REMARK VINA RESULT:      -6.9      4.153      5.904
REMARK  3 active torsions:
REMARK  status: ('A' for Active; 'I' for Inactive)
REMARK    1  A    between atoms: C_1  and  N_2 
REMARK    2  A    between atoms: N_2  and  N_3 
REMARK    3  A    between atoms: N_3  and  C_4 
ROOT
HETATM    1  N   LIG     1      16.926  35.281  20.402  1.00  0.00    -0.300 N 
HETATM    2  H   LIG     1      17.085  34.514  21.092  1.00  0.00     0.187 HD
ENDROOT
BRANCH   1   3
HETATM    3  C   LIG     1      17.598  36.531  20.633  1.00  0.00     0.048 A 
HETATM    4  C   LIG     1      17.224  37.318  21.734  1.00  0.00     0.031 A 
HETATM    5  C   LIG     1      17.853  38.543  21.978  1.00  0.00     0.002 A 
HETATM    6  C   LIG     1      18.854  38.998  21.117  1.00  0.00     0.000 A 
HETATM    7  C   LIG     1      19.222  38.232  20.008  1.00  0.00     0.002 A 
HETATM    8  C   LIG     1      18.596  37.007  19.760  1.00  0.00     0.031 A 
ENDBRANCH   1   3
BRANCH   1   9
HETATM    9  N   LIG     1      16.115  35.054  19.272  1.00  0.00    -0.300 N 
HETATM   10  H   LIG     1      15.917  35.834  18.608  1.00  0.00     0.187 HD
BRANCH   9  11
HETATM   11  C   LIG     1      15.494  33.784  19.008  1.00  0.00     0.048 A 
HETATM   12  C   LIG     1      15.011  33.511  17.718  1.00  0.00     0.031 A 
HETATM   13  C   LIG     1      14.413  32.281  17.429  1.00  0.00     0.002 A 
HETATM   14  C   LIG     1      14.302  31.307  18.423  1.00  0.00     0.000 A 
HETATM   15  C   LIG     1      14.796  31.559  19.705  1.00  0.00     0.002 A 
HETATM   16  C   LIG     1      15.395  32.788  19.999  1.00  0.00     0.031 A 
ENDBRANCH   9  11
ENDBRANCH   1   9
TORSDOF 3
ENDMDL
MODEL 7
REMARK VINA RESULT:      -6.9      5.660      7.986
REMARK  3 active torsions:
REMARK  status: ('A' for Active; 'I' for Inactive)
REMARK    1  A    between atoms: C_1  and  N_2 
REMARK    2  A    between atoms: N_2  and  N_3 
REMARK    3  A    between atoms: N_3  and  C_4 
ROOT
HETATM    1  N   LIG     1      15.264  33.735  19.403  1.00  0.00    -0.300 N 
HETATM    2  H   LIG     1      14.792  32.902  19.821  1.00  0.00     0.187 HD
ENDROOT
BRANCH   1   3
HETATM    3  C   LIG     1      15.916  34.649  20.302  1.00  0.00     0.048 A 
HETATM    4  C   LIG     1      16.785  35.621  19.780  1.00  0.00     0.031 A 
HETATM    5  C   LIG     1      17.441  36.516  20.630  1.00  0.00     0.002 A 
HETATM    6  C   LIG     1      17.244  36.441  22.011  1.00  0.00     0.000 A 
HETATM    7  C   LIG     1      16.396  35.466  22.543  1.00  0.00     0.002 A 
HETATM    8  C   LIG     1      15.738  34.569  21.696  1.00  0.00     0.031 A 
ENDBRANCH   1   3
BRANCH   1   9
HETATM    9  N   LIG     1      15.284  33.902  18.004  1.00  0.00    -0.300 N 
HETATM   10  H   LIG     1      15.519  34.833  17.594  1.00  0.00     0.187 HD
BRANCH   9  11
HETATM   11  C   LIG     1      14.945  32.842  17.093  1.00  0.00     0.048 A 
HETATM   12  C   LIG     1      15.742  32.633  15.956  1.00  0.00     0.031 A 
HETATM   13  C   LIG     1      15.442  31.604  15.059  1.00  0.00     0.002 A 
HETATM   14  C   LIG     1      14.350  30.766  15.294  1.00  0.00     0.000 A 
HETATM   15  C   LIG     1      13.561  30.952  16.432  1.00  0.00     0.002 A 
HETATM   16  C   LIG     1      13.857  31.981  17.332  1.00  0.00     0.031 A 
ENDBRANCH   9  11
ENDBRANCH   1   9
TORSDOF 3
ENDMDL
MODEL 8
REMARK VINA RESULT:      -6.8      5.761      8.156
REMARK  3 active torsions:
REMARK  status: ('A' for Active; 'I' for Inactive)
REMARK    1  A    between atoms: C_1  and  N_2 
REMARK    2  A    between atoms: N_2  and  N_3 
REMARK    3  A    between atoms: N_3  and  C_4 
ROOT
HETATM    1  N   LIG     1      15.482  34.509  18.496  1.00  0.00    -0.300 N 
HETATM    2  H   LIG     1      15.623  35.118  17.659  1.00  0.00     0.187 HD
ENDROOT
BRANCH   1   3
HETATM    3  C   LIG     1      16.019  34.968  19.748  1.00  0.00     0.048 A 
HETATM    4  C   LIG     1      15.525  34.428  20.946  1.00  0.00     0.031 A 
HETATM    5  C   LIG     1      16.020  34.862  22.179  1.00  0.00     0.002 A 
HETATM    6  C   LIG     1      17.006  35.850  22.227  1.00  0.00     0.000 A 
HETATM    7  C   LIG     1      17.493  36.409  21.043  1.00  0.00     0.002 A 
HETATM    8  C   LIG     1      17.000  35.977  19.807  1.00  0.00     0.031 A 
ENDBRANCH   1   3
BRANCH   1   9
HETATM    9  N   LIG     1      14.747  33.313  18.379  1.00  0.00    -0.300 N 
HETATM   10  H   LIG     1      14.179  32.969  19.184  1.00  0.00     0.187 HD
BRANCH   9  11
HETATM   11  C   LIG     1      14.778  32.498  17.194  1.00  0.00     0.048 A 
HETATM   12  C   LIG     1      13.813  31.492  17.026  1.00  0.00     0.031 A 
HETATM   13  C   LIG     1      13.813  30.692  15.880  1.00  0.00     0.002 A 
HETATM   14  C   LIG     1      14.770  30.896  14.885  1.00  0.00     0.000 A 
HETATM   15  C   LIG     1      15.724  31.906  15.031  1.00  0.00     0.002 A 
HETATM   16  C   LIG     1      15.729  32.708  16.176  1.00  0.00     0.031 A 
ENDBRANCH   9  11
ENDBRANCH   1   9
TORSDOF 3
ENDMDL
MODEL 9
REMARK VINA RESULT:      -6.5      9.778     12.109
REMARK  3 active torsions:
REMARK  status: ('A' for Active; 'I' for Inactive)
REMARK    1  A    between atoms: C_1  and  N_2 
REMARK    2  A    between atoms: N_2  and  N_3 
REMARK    3  A    between atoms: N_3  and  C_4 
ROOT
HETATM    1  N   LIG     1      17.289  33.137  13.977  1.00  0.00    -0.300 N 
HETATM    2  H   LIG     1      17.915  33.524  14.717  1.00  0.00     0.187 HD
ENDROOT
BRANCH   1   3
HETATM    3  C   LIG     1      16.232  32.257  14.395  1.00  0.00     0.048 A 
HETATM    4  C   LIG     1      15.650  32.436  15.660  1.00  0.00     0.031 A 
HETATM    5  C   LIG     1      14.628  31.589  16.098  1.00  0.00     0.002 A 
HETATM    6  C   LIG     1      14.185  30.547  15.281  1.00  0.00     0.000 A 
HETATM    7  C   LIG     1      14.768  30.347  14.027  1.00  0.00     0.002 A 
HETATM    8  C   LIG     1      15.791  31.192  13.585  1.00  0.00     0.031 A 
ENDBRANCH   1   3
BRANCH   1   9
HETATM    9  N   LIG     1      17.470  33.520  12.633  1.00  0.00    -0.300 N 
HETATM   10  H   LIG     1      16.673  33.455  11.961  1.00  0.00     0.187 HD
BRANCH   9  11
HETATM   11  C   LIG     1      18.739  33.959  12.117  1.00  0.00     0.048 A 
HETATM   12  C   LIG     1      18.798  34.527  10.834  1.00  0.00     0.031 A 
HETATM   13  C   LIG     1      20.016  34.973  10.312  1.00  0.00     0.002 A 
HETATM   14  C   LIG     1      21.183  34.867  11.070  1.00  0.00     0.000 A 
HETATM   15  C   LIG     1      21.133  34.322  12.355  1.00  0.00     0.002 A 
HETATM   16  C   LIG     1      19.918  33.874  12.882  1.00  0.00     0.031 A 
ENDBRANCH   9  11
ENDBRANCH   1   9
TORSDOF 3
ENDMDL
MODEL 10
REMARK VINA RESULT:      -6.5      9.963     11.172
REMARK  3 active torsions:
REMARK  status: ('A' for Active; 'I' for Inactive)
REMARK    1  A    between atoms: C_1  and  N_2 
REMARK    2  A    between atoms: N_2  and  N_3 
REMARK    3  A    between atoms: N_3  and  C_4 
ROOT
HETATM    1  N   LIG     1      17.883  33.539  13.353  1.00  0.00    -0.300 N 
HETATM    2  H   LIG     1      17.862  33.911  14.329  1.00  0.00     0.187 HD
ENDROOT
BRANCH   1   3
HETATM    3  C   LIG     1      18.951  33.982  12.497  1.00  0.00     0.048 A 
HETATM    4  C   LIG     1      18.642  34.529  11.242  1.00  0.00     0.031 A 
HETATM    5  C   LIG     1      19.659  34.958  10.385  1.00  0.00     0.002 A 
HETATM    6  C   LIG     1      20.996  34.833  10.769  1.00  0.00     0.000 A 
HETATM    7  C   LIG     1      21.317  34.273  12.008  1.00  0.00     0.002 A 
HETATM    8  C   LIG     1      20.303  33.843  12.868  1.00  0.00     0.031 A 
ENDBRANCH   1   3
BRANCH   1   9
HETATM    9  N   LIG     1      16.917  32.602  12.937  1.00  0.00    -0.300 N 
HETATM   10  H   LIG     1      16.817  32.372  11.923  1.00  0.00     0.187 HD
BRANCH   9  11
HETATM   11  C   LIG     1      16.007  31.969  13.854  1.00  0.00     0.048 A 
HETATM   12  C   LIG     1      15.357  30.786  13.468  1.00  0.00     0.031 A 
HETATM   13  C   LIG     1      14.477  30.142  14.343  1.00  0.00     0.002 A 
HETATM   14  C   LIG     1      14.245  30.668  15.615  1.00  0.00     0.000 A 
HETATM   15  C   LIG     1      14.901  31.835  16.017  1.00  0.00     0.002 A 
HETATM   16  C   LIG     1      15.782  32.482  15.146  1.00  0.00     0.031 A 
ENDBRANCH   9  11
ENDBRANCH   1   9
TORSDOF 3
ENDMDL
MODEL 11
REMARK VINA RESULT:      -6.5      3.391      5.654
REMARK  3 active torsions:
REMARK  status: ('A' for Active; 'I' for Inactive)
REMARK    1  A    between atoms: C_1  and  N_2 
REMARK    2  A    between atoms: N_2  and  N_3 
REMARK    3  A    between atoms: N_3  and  C_4 
ROOT
HETATM    1  N   LIG     1      16.410  34.813  21.207  1.00  0.00    -0.300 N 
HETATM    2  H   LIG     1      16.831  34.231  21.964  1.00  0.00     0.187 HD
ENDROOT
BRANCH   1   3
HETATM    3  C   LIG     1      15.868  34.126  20.065  1.00  0.00     0.048 A 
HETATM    4  C   LIG     1      15.638  34.842  18.879  1.00  0.00     0.031 A 
HETATM    5  C   LIG     1      15.103  34.204  17.756  1.00  0.00     0.002 A 
HETATM    6  C   LIG     1      14.782  32.846  17.812  1.00  0.00     0.000 A 
HETATM    7  C   LIG     1      14.989  32.127  18.992  1.00  0.00     0.002 A 
HETATM    8  C   LIG     1      15.524  32.762  20.117  1.00  0.00     0.031 A 
ENDBRANCH   1   3
BRANCH   1   9
HETATM    9  N   LIG     1      16.346  36.213  21.350  1.00  0.00    -0.300 N 
HETATM   10  H   LIG     1      15.469  36.663  21.692  1.00  0.00     0.187 HD
BRANCH   9  11
HETATM   11  C   LIG     1      17.439  37.078  20.994  1.00  0.00     0.048 A 
HETATM   12  C   LIG     1      17.607  38.291  21.680  1.00  0.00     0.031 A 
HETATM   13  C   LIG     1      18.666  39.146  21.363  1.00  0.00     0.002 A 
HETATM   14  C   LIG     1      19.576  38.792  20.365  1.00  0.00     0.000 A 
HETATM   15  C   LIG     1      19.431  37.579  19.688  1.00  0.00     0.002 A 
HETATM   16  C   LIG     1      18.372  36.720  20.001  1.00  0.00     0.031 A 
ENDBRANCH   9  11
ENDBRANCH   1   9
TORSDOF 3
ENDMDL
MODEL 12
REMARK VINA RESULT:      -6.4      4.510      5.974
REMARK  3 active torsions:
REMARK  status: ('A' for Active; 'I' for Inactive)
REMARK    1  A    between atoms: C_1  and  N_2 
REMARK    2  A    between atoms: N_2  and  N_3 
REMARK    3  A    between atoms: N_3  and  C_4 
ROOT
HETATM    1  N   LIG     1      15.887  33.682  20.280  1.00  0.00    -0.300 N 
HETATM    2  H   LIG     1      16.741  33.213  20.653  1.00  0.00     0.187 HD
ENDROOT
BRANCH   1   3
HETATM    3  C   LIG     1      15.308  33.146  19.076  1.00  0.00     0.048 A 
HETATM    4  C   LIG     1      15.272  33.942  17.920  1.00  0.00     0.031 A 
HETATM    5  C   LIG     1      14.706  33.452  16.739  1.00  0.00     0.002 A 
HETATM    6  C   LIG     1      14.161  32.166  16.705  1.00  0.00     0.000 A 
HETATM    7  C   LIG     1      14.176  31.372  17.855  1.00  0.00     0.002 A 
HETATM    8  C   LIG     1      14.740  31.858  19.038  1.00  0.00     0.031 A 
ENDBRANCH   1   3
BRANCH   1   9
HETATM    9  N   LIG     1      15.317  34.766  20.977  1.00  0.00    -0.300 N 
HETATM   10  H   LIG     1      14.305  34.747  21.232  1.00  0.00     0.187 HD
BRANCH   9  11
HETATM   11  C   LIG     1      16.067  35.944  21.321  1.00  0.00     0.048 A 
HETATM   12  C   LIG     1      17.297  36.183  20.689  1.00  0.00     0.031 A 
HETATM   13  C   LIG     1      18.042  37.326  20.996  1.00  0.00     0.002 A 
HETATM   14  C   LIG     1      17.560  38.246  21.929  1.00  0.00     0.000 A 
HETATM   15  C   LIG     1      16.328  38.028  22.550  1.00  0.00     0.002 A 
HETATM   16  C   LIG     1      15.579  36.887  22.247  1.00  0.00     0.031 A 
ENDBRANCH   9  11
ENDBRANCH   1   9
TORSDOF 3
ENDMDL
MODEL 13
REMARK VINA RESULT:      -6.2      9.132     10.444
REMARK  3 active torsions:
REMARK  status: ('A' for Active; 'I' for Inactive)
REMARK    1  A    between atoms: C_1  and  N_2 
REMARK    2  A    between atoms: N_2  and  N_3 
REMARK    3  A    between atoms: N_3  and  C_4 
ROOT
HETATM    1  N   LIG     1      18.257  33.236  14.731  1.00  0.00    -0.300 N 
HETATM    2  H   LIG     1      18.938  32.621  15.228  1.00  0.00     0.187 HD
ENDROOT
BRANCH   1   3
HETATM    3  C   LIG     1      18.638  33.741  13.439  1.00  0.00     0.048 A 
HETATM    4  C   LIG     1      19.982  33.666  13.043  1.00  0.00     0.031 A 
HETATM    5  C   LIG     1      20.384  34.158  11.797  1.00  0.00     0.002 A 
HETATM    6  C   LIG     1      19.446  34.740  10.940  1.00  0.00     0.000 A 
HETATM    7  C   LIG     1      18.108  34.837  11.332  1.00  0.00     0.002 A 
HETATM    8  C   LIG     1      17.703  34.346  12.577  1.00  0.00     0.031 A 
ENDBRANCH   1   3
BRANCH   1   9
HETATM    9  N   LIG     1      17.000  33.505  15.310  1.00  0.00    -0.300 N 
HETATM   10  H   LIG     1      16.808  34.443  15.725  1.00  0.00     0.187 HD
BRANCH   9  11
HETATM   11  C   LIG     1      15.962  32.514  15.401  1.00  0.00     0.048 A 
HETATM   12  C   LIG     1      15.087  32.536  16.498  1.00  0.00     0.031 A 
HETATM   13  C   LIG     1      14.062  31.591  16.607  1.00  0.00     0.002 A 
HETATM   14  C   LIG     1      13.895  30.622  15.616  1.00  0.00     0.000 A 
HETATM   15  C   LIG     1      14.749  30.602  14.510  1.00  0.00     0.002 A 
HETATM   16  C   LIG     1      15.775  31.544  14.397  1.00  0.00     0.031 A 
ENDBRANCH   9  11
ENDBRANCH   1   9
TORSDOF 3
ENDMDL
MODEL 14
REMARK VINA RESULT:      -6.2      7.229      9.630
REMARK  3 active torsions:
REMARK  status: ('A' for Active; 'I' for Inactive)
REMARK    1  A    between atoms: C_1  and  N_2 
REMARK    2  A    between atoms: N_2  and  N_3 
REMARK    3  A    between atoms: N_3  and  C_4 
ROOT
HETATM    1  N   LIG     1      15.427  33.821  16.851  1.00  0.00    -0.300 N 
HETATM    2  H   LIG     1      14.934  34.582  16.334  1.00  0.00     0.187 HD
ENDROOT
BRANCH   1   3
HETATM    3  C   LIG     1      15.423  33.883  18.288  1.00  0.00     0.048 A 
HETATM    4  C   LIG     1      15.121  32.726  19.024  1.00  0.00     0.031 A 
HETATM    5  C   LIG     1      15.099  32.759  20.421  1.00  0.00     0.002 A 
HETATM    6  C   LIG     1      15.368  33.952  21.097  1.00  0.00     0.000 A 
HETATM    7  C   LIG     1      15.653  35.114  20.375  1.00  0.00     0.002 A 
HETATM    8  C   LIG     1      15.675  35.085  18.977  1.00  0.00     0.031 A 
ENDBRANCH   1   3
BRANCH   1   9
HETATM    9  N   LIG     1      16.023  32.760  16.139  1.00  0.00    -0.300 N 
HETATM   10  H   LIG     1      17.058  32.734  16.013  1.00  0.00     0.187 HD
BRANCH   9  11
HETATM   11  C   LIG     1      15.253  31.712  15.524  1.00  0.00     0.048 A 
HETATM   12  C   LIG     1      15.774  31.044  14.405  1.00  0.00     0.031 A 
HETATM   13  C   LIG     1      15.053  30.015  13.793  1.00  0.00     0.002 A 
HETATM   14  C   LIG     1      13.809  29.635  14.300  1.00  0.00     0.000 A 
HETATM   15  C   LIG     1      13.288  30.279  15.425  1.00  0.00     0.002 A 
HETATM   16  C   LIG     1      14.005  31.310  16.040  1.00  0.00     0.031 A 
ENDBRANCH   9  11
ENDBRANCH   1   9
TORSDOF 3
ENDMDL
MODEL 15
REMARK VINA RESULT:      -6.2      7.192      8.762
REMARK  3 active torsions:
REMARK  status: ('A' for Active; 'I' for Inactive)
REMARK    1  A    between atoms: C_1  and  N_2 
REMARK    2  A    between atoms: N_2  and  N_3 
REMARK    3  A    between atoms: N_3  and  C_4 
ROOT
HETATM    1  N   LIG     1      16.044  32.795  16.167  1.00  0.00    -0.300 N 
HETATM    2  H   LIG     1      17.086  32.746  16.115  1.00  0.00     0.187 HD
ENDROOT
BRANCH   1   3
HETATM    3  C   LIG     1      15.298  31.750  15.519  1.00  0.00     0.048 A 
HETATM    4  C   LIG     1      14.070  31.343  16.065  1.00  0.00     0.031 A 
HETATM    5  C   LIG     1      13.328  30.323  15.463  1.00  0.00     0.002 A 
HETATM    6  C   LIG     1      13.812  29.690  14.315  1.00  0.00     0.000 A 
HETATM    7  C   LIG     1      15.041  30.074  13.773  1.00  0.00     0.002 A 
HETATM    8  C   LIG     1      15.786  31.094  14.372  1.00  0.00     0.031 A 
ENDBRANCH   1   3
BRANCH   1   9
HETATM    9  N   LIG     1      15.424  33.831  16.893  1.00  0.00    -0.300 N 
HETATM   10  H   LIG     1      14.980  34.629  16.386  1.00  0.00     0.187 HD
BRANCH   9  11
HETATM   11  C   LIG     1      15.412  33.870  18.330  1.00  0.00     0.048 A 
HETATM   12  C   LIG     1      15.662  35.086  18.986  1.00  0.00     0.031 A 
HETATM   13  C   LIG     1      15.646  35.155  20.383  1.00  0.00     0.002 A 
HETATM   14  C   LIG     1      15.370  34.013  21.137  1.00  0.00     0.000 A 
HETATM   15  C   LIG     1      15.101  32.802  20.495  1.00  0.00     0.002 A 
HETATM   16  C   LIG     1      15.116  32.727  19.099  1.00  0.00     0.031 A 
ENDBRANCH   9  11
ENDBRANCH   1   9
TORSDOF 3
ENDMDL
