REMARK  2 active torsions:
REMARK  status: ('A' for Active; 'I' for Inactive)
REMARK    1  A    between atoms: C_1  and  N_2 
REMARK    2  A    between atoms: N_2  and  C_3 
ROOT
HETATM    1  N   LIG     1       0.046  -0.738   1.005  1.00  0.00    -0.356 N 
HETATM    2  H   LIG     1       0.086  -1.367   1.840  1.00  0.00     0.166 HD
ENDROOT
BRANCH   1   3
HETATM    3  C   LIG     1       1.278  -0.460   0.317  1.00  0.00     0.032 A 
HETATM    4  C   LIG     1       2.485  -0.463   1.034  1.00  0.00     0.029 A 
HETATM    5  C   LIG     1       3.697  -0.222   0.380  1.00  0.00     0.002 A 
HETATM    6  C   LIG     1       3.715   0.009  -0.998  1.00  0.00     0.000 A 
HETATM    7  C   LIG     1       2.522  -0.010  -1.725  1.00  0.00     0.002 A 
HETATM    8  C   LIG     1       1.308  -0.250  -1.074  1.00  0.00     0.029 A 
ENDBRANCH   1   3
BRANCH   1   9
HETATM    9  C   LIG     1      -1.236  -0.211   0.623  1.00  0.00     0.032 A 
HETATM   10  C   LIG     1      -2.396  -0.953   0.895  1.00  0.00     0.029 A 
HETATM   11  C   LIG     1      -3.655  -0.447   0.556  1.00  0.00     0.002 A 
HETATM   12  C   LIG     1      -3.766   0.810  -0.043  1.00  0.00     0.000 A 
HETATM   13  C   LIG     1      -2.619   1.567  -0.297  1.00  0.00     0.002 A 
HETATM   14  C   LIG     1      -1.358   1.064   0.040  1.00  0.00     0.029 A 
ENDBRANCH   1   9
TORSDOF 2
