MODEL 1
REMARK VINA RESULT:      -6.7      0.000      0.000
REMARK  4 active torsions:
REMARK  status: ('A' for Active; 'I' for Inactive)
REMARK    1  A    between atoms: C_2  and  N_3 
REMARK    2  A    between atoms: N_3  and  C_4 
REMARK    3  A    between atoms: C_6  and  N_7 
REMARK    4  A    between atoms: N_7  and  C_8 
ROOT
HETATM    1  C   LIG     1      18.069  38.514  22.471  1.00  0.00     0.741 A 
HETATM    2  N   LIG     1      18.144  38.380  23.820  1.00  0.00     0.130 NA
HETATM    3  C   LIG     1      17.317  37.520  24.473  1.00  0.00     0.741 A 
HETATM    4  N   LIG     1      16.416  36.790  23.767  1.00  0.00    -0.030 NA
HETATM    5  C   LIG     1      16.338  36.920  22.419  1.00  0.00     0.259 A 
HETATM    6 CL   LIG     1      15.173  35.978  21.515  1.00  0.00    -0.040 Cl
HETATM    7  N   LIG     1      17.163  37.781  21.772  1.00  0.00    -0.030 NA
ENDROOT
BRANCH   1   8
HETATM    8  N   LIG     1      18.944  39.425  21.798  1.00  0.00    -0.222 N 
HETATM    9  H   LIG     1      19.569  40.031  22.378  1.00  0.00     0.177 HD
BRANCH   8  10
HETATM   10  C   LIG     1      18.977  39.522  20.339  1.00  0.00     0.134 C 
HETATM   11  C   LIG     1      20.163  38.754  19.766  1.00  0.00     0.027 C 
ENDBRANCH   8  10
ENDBRANCH   1   8
BRANCH   3  12
HETATM   12  N   LIG     1      17.393  37.371  25.897  1.00  0.00    -0.222 N 
HETATM   13  H   LIG     1      16.662  37.827  26.487  1.00  0.00     0.177 HD
BRANCH  12  14
HETATM   14  C   LIG     1      18.407  36.548  26.554  1.00  0.00     0.134 C 
HETATM   15  C   LIG     1      18.153  35.067  26.290  1.00  0.00     0.027 C 
ENDBRANCH  12  14
ENDBRANCH   3  12
TORSDOF 4
ENDMDL
MODEL 2
REMARK VINA RESULT:      -6.7      0.054      4.684
REMARK  4 active torsions:
REMARK  status: ('A' for Active; 'I' for Inactive)
REMARK    1  A    between atoms: C_2  and  N_3 
REMARK    2  A    between atoms: N_3  and  C_4 
REMARK    3  A    between atoms: C_6  and  N_7 
REMARK    4  A    between atoms: N_7  and  C_8 
ROOT
HETATM    1  C   LIG     1      17.280  37.518  24.440  1.00  0.00     0.741 A 
HETATM    2  N   LIG     1      18.113  38.375  23.794  1.00  0.00     0.130 NA
HETATM    3  C   LIG     1      18.060  38.495  22.440  1.00  0.00     0.741 A 
HETATM    4  N   LIG     1      17.166  37.756  21.735  1.00  0.00    -0.030 NA
HETATM    5  C   LIG     1      16.332  36.900  22.376  1.00  0.00     0.259 A 
HETATM    6 CL   LIG     1      15.183  35.949  21.462  1.00  0.00    -0.040 Cl
HETATM    7  N   LIG     1      16.389  36.781  23.726  1.00  0.00    -0.030 NA
ENDROOT
BRANCH   1   8
HETATM    8  N   LIG     1      17.349  37.401  25.864  1.00  0.00    -0.222 N 
HETATM    9  H   LIG     1      16.634  37.904  26.438  1.00  0.00     0.177 HD
BRANCH   8  10
HETATM   10  C   LIG     1      18.386  36.603  26.520  1.00  0.00     0.134 C 
HETATM   11  C   LIG     1      18.151  35.113  26.300  1.00  0.00     0.027 C 
ENDBRANCH   8  10
ENDBRANCH   1   8
BRANCH   3  12
HETATM   12  N   LIG     1      18.934  39.400  21.752  1.00  0.00    -0.222 N 
HETATM   13  H   LIG     1      19.621  39.955  22.311  1.00  0.00     0.177 HD
BRANCH  12  14
HETATM   14  C   LIG     1      18.955  39.528  20.296  1.00  0.00     0.134 C 
HETATM   15  C   LIG     1      20.124  38.748  19.704  1.00  0.00     0.027 C 
ENDBRANCH  12  14
ENDBRANCH   3  12
TORSDOF 4
ENDMDL
MODEL 3
REMARK VINA RESULT:      -6.4      2.595      4.780
REMARK  4 active torsions:
REMARK  status: ('A' for Active; 'I' for Inactive)
REMARK    1  A    between atoms: C_2  and  N_3 
REMARK    2  A    between atoms: N_3  and  C_4 
REMARK    3  A    between atoms: C_6  and  N_7 
REMARK    4  A    between atoms: N_7  and  C_8 
ROOT
HETATM    1  C   LIG     1      16.959  37.625  23.048  1.00  0.00     0.741 A 
HETATM    2  N   LIG     1      16.572  36.493  22.407  1.00  0.00     0.130 NA
HETATM    3  C   LIG     1      17.038  36.215  21.160  1.00  0.00     0.741 A 
HETATM    4  N   LIG     1      17.900  37.075  20.558  1.00  0.00    -0.030 NA
HETATM    5  C   LIG     1      18.290  38.206  21.196  1.00  0.00     0.259 A 
HETATM    6 CL   LIG     1      19.399  39.312  20.416  1.00  0.00    -0.040 Cl
HETATM    7  N   LIG     1      17.821  38.481  22.439  1.00  0.00    -0.030 NA
ENDROOT
BRANCH   1   8
HETATM    8  N   LIG     1      16.458  37.904  24.359  1.00  0.00    -0.222 N 
HETATM    9  H   LIG     1      15.423  37.973  24.490  1.00  0.00     0.177 HD
BRANCH   8  10
HETATM   10  C   LIG     1      17.355  38.094  25.500  1.00  0.00     0.134 C 
HETATM   11  C   LIG     1      18.132  36.818  25.803  1.00  0.00     0.027 C 
ENDBRANCH   8  10
ENDBRANCH   1   8
BRANCH   3  12
HETATM   12  N   LIG     1      16.635  35.019  20.478  1.00  0.00    -0.222 N 
HETATM   13  H   LIG     1      17.204  34.693  19.664  1.00  0.00     0.177 HD
BRANCH  12  14
HETATM   14  C   LIG     1      15.508  34.199  20.915  1.00  0.00     0.134 C 
HETATM   15  C   LIG     1      15.394  32.941  20.060  1.00  0.00     0.027 C 
ENDBRANCH  12  14
ENDBRANCH   3  12
TORSDOF 4
ENDMDL
MODEL 4
REMARK VINA RESULT:      -6.4      2.574      3.896
REMARK  4 active torsions:
REMARK  status: ('A' for Active; 'I' for Inactive)
REMARK    1  A    between atoms: C_2  and  N_3 
REMARK    2  A    between atoms: N_3  and  C_4 
REMARK    3  A    between atoms: C_6  and  N_7 
REMARK    4  A    between atoms: N_7  and  C_8 
ROOT
HETATM    1  C   LIG     1      17.064  36.220  21.189  1.00  0.00     0.741 A 
HETATM    2  N   LIG     1      16.607  36.467  22.444  1.00  0.00     0.130 NA
HETATM    3  C   LIG     1      16.956  37.611  23.091  1.00  0.00     0.741 A 
HETATM    4  N   LIG     1      17.763  38.511  22.473  1.00  0.00    -0.030 NA
HETATM    5  C   LIG     1      18.221  38.269  21.220  1.00  0.00     0.259 A 
HETATM    6 CL   LIG     1      19.263  39.432  20.429  1.00  0.00    -0.040 Cl
HETATM    7  N   LIG     1      17.873  37.125  20.579  1.00  0.00    -0.030 NA
ENDROOT
BRANCH   1   8
HETATM    8  N   LIG     1      16.689  35.010  20.523  1.00  0.00    -0.222 N 
HETATM    9  H   LIG     1      17.282  34.679  19.727  1.00  0.00     0.177 HD
BRANCH   8  10
HETATM   10  C   LIG     1      15.511  34.244  20.927  1.00  0.00     0.134 C 
HETATM   11  C   LIG     1      15.371  32.975  20.094  1.00  0.00     0.027 C 
ENDBRANCH   8  10
ENDBRANCH   1   8
BRANCH   3  12
HETATM   12  N   LIG     1      16.473  37.880  24.414  1.00  0.00    -0.222 N 
HETATM   13  H   LIG     1      15.442  37.871  24.582  1.00  0.00     0.177 HD
BRANCH  12  14
HETATM   14  C   LIG     1      17.363  38.094  25.553  1.00  0.00     0.134 C 
HETATM   15  C   LIG     1      18.184  36.840  25.839  1.00  0.00     0.027 C 
ENDBRANCH  12  14
ENDBRANCH   3  12
TORSDOF 4
ENDMDL
MODEL 5
REMARK VINA RESULT:      -6.0      2.095      3.538
REMARK  4 active torsions:
REMARK  status: ('A' for Active; 'I' for Inactive)
REMARK    1  A    between atoms: C_2  and  N_3 
REMARK    2  A    between atoms: N_3  and  C_4 
REMARK    3  A    between atoms: C_6  and  N_7 
REMARK    4  A    between atoms: N_7  and  C_8 
ROOT
HETATM    1  C   LIG     1      18.107  38.610  22.229  1.00  0.00     0.741 A 
HETATM    2  N   LIG     1      17.300  37.722  21.594  1.00  0.00     0.130 NA
HETATM    3  C   LIG     1      16.562  36.831  22.307  1.00  0.00     0.741 A 
HETATM    4  N   LIG     1      16.630  36.836  23.664  1.00  0.00    -0.030 NA
HETATM    5  C   LIG     1      17.434  37.722  24.302  1.00  0.00     0.259 A 
HETATM    6 CL   LIG     1      17.520  37.723  26.050  1.00  0.00    -0.040 Cl
HETATM    7  N   LIG     1      18.171  38.608  23.587  1.00  0.00    -0.030 NA
ENDROOT
BRANCH   1   8
HETATM    8  N   LIG     1      18.879  39.540  21.464  1.00  0.00    -0.222 N 
HETATM    9  H   LIG     1      19.385  40.301  21.972  1.00  0.00     0.177 HD
BRANCH   8  10
HETATM   10  C   LIG     1      18.970  39.447  20.006  1.00  0.00     0.134 C 
HETATM   11  C   LIG     1      20.269  38.770  19.582  1.00  0.00     0.027 C 
ENDBRANCH   8  10
ENDBRANCH   1   8
BRANCH   3  12
HETATM   12  N   LIG     1      15.705  35.892  21.644  1.00  0.00    -0.222 N 
HETATM   13  H   LIG     1      14.756  35.713  22.042  1.00  0.00     0.177 HD
BRANCH  12  14
HETATM   14  C   LIG     1      16.073  35.229  20.395  1.00  0.00     0.134 C 
HETATM   15  C   LIG     1      15.627  33.771  20.407  1.00  0.00     0.027 C 
ENDBRANCH  12  14
ENDBRANCH   3  12
TORSDOF 4
ENDMDL
MODEL 6
REMARK VINA RESULT:      -6.0      2.089      4.798
REMARK  4 active torsions:
REMARK  status: ('A' for Active; 'I' for Inactive)
REMARK    1  A    between atoms: C_2  and  N_3 
REMARK    2  A    between atoms: N_3  and  C_4 
REMARK    3  A    between atoms: C_6  and  N_7 
REMARK    4  A    between atoms: N_7  and  C_8 
ROOT
HETATM    1  C   LIG     1      16.528  36.809  22.327  1.00  0.00     0.741 A 
HETATM    2  N   LIG     1      17.271  37.702  21.622  1.00  0.00     0.130 NA
HETATM    3  C   LIG     1      18.119  38.549  22.263  1.00  0.00     0.741 A 
HETATM    4  N   LIG     1      18.226  38.495  23.616  1.00  0.00    -0.030 NA
HETATM    5  C   LIG     1      17.487  37.605  24.323  1.00  0.00     0.259 A 
HETATM    6 CL   LIG     1      17.626  37.542  26.067  1.00  0.00    -0.040 Cl
HETATM    7  N   LIG     1      16.639  36.764  23.680  1.00  0.00    -0.030 NA
ENDROOT
BRANCH   1   8
HETATM    8  N   LIG     1      15.638  35.926  21.637  1.00  0.00    -0.222 N 
HETATM    9  H   LIG     1      14.683  35.775  22.036  1.00  0.00     0.177 HD
BRANCH   8  10
HETATM   10  C   LIG     1      16.035  35.241  20.407  1.00  0.00     0.134 C 
HETATM   11  C   LIG     1      15.637  33.770  20.447  1.00  0.00     0.027 C 
ENDBRANCH   8  10
ENDBRANCH   1   8
BRANCH   3  12
HETATM   12  N   LIG     1      18.909  39.491  21.525  1.00  0.00    -0.222 N 
HETATM   13  H   LIG     1      19.487  40.182  22.054  1.00  0.00     0.177 HD
BRANCH  12  14
HETATM   14  C   LIG     1      18.996  39.481  20.066  1.00  0.00     0.134 C 
HETATM   15  C   LIG     1      20.252  38.748  19.607  1.00  0.00     0.027 C 
ENDBRANCH  12  14
ENDBRANCH   3  12
TORSDOF 4
ENDMDL
MODEL 7
REMARK VINA RESULT:      -5.9      3.268      4.607
REMARK  4 active torsions:
REMARK  status: ('A' for Active; 'I' for Inactive)
REMARK    1  A    between atoms: C_2  and  N_3 
REMARK    2  A    between atoms: N_3  and  C_4 
REMARK    3  A    between atoms: C_6  and  N_7 
REMARK    4  A    between atoms: N_7  and  C_8 
ROOT
HETATM    1  C   LIG     1      15.945  34.745  20.887  1.00  0.00     0.741 A 
HETATM    2  N   LIG     1      16.071  34.941  22.225  1.00  0.00     0.130 NA
HETATM    3  C   LIG     1      16.991  35.818  22.707  1.00  0.00     0.741 A 
HETATM    4  N   LIG     1      17.784  36.503  21.842  1.00  0.00    -0.030 NA
HETATM    5  C   LIG     1      17.660  36.310  20.505  1.00  0.00     0.259 A 
HETATM    6 CL   LIG     1      18.685  37.193  19.396  1.00  0.00    -0.040 Cl
HETATM    7  N   LIG     1      16.742  35.432  20.028  1.00  0.00    -0.030 NA
ENDROOT
BRANCH   1   8
HETATM    8  N   LIG     1      14.973  33.816  20.395  1.00  0.00    -0.222 N 
HETATM    9  H   LIG     1      14.025  33.811  20.837  1.00  0.00     0.177 HD
BRANCH   8  10
HETATM   10  C   LIG     1      15.279  32.890  19.305  1.00  0.00     0.134 C 
HETATM   11  C   LIG     1      15.683  31.523  19.846  1.00  0.00     0.027 C 
ENDBRANCH   8  10
ENDBRANCH   1   8
BRANCH   3  12
HETATM   12  N   LIG     1      17.128  36.034  24.118  1.00  0.00    -0.222 N 
HETATM   13  H   LIG     1      17.079  37.012  24.482  1.00  0.00     0.177 HD
BRANCH  12  14
HETATM   14  C   LIG     1      17.261  34.940  25.078  1.00  0.00     0.134 C 
HETATM   15  C   LIG     1      18.214  35.324  26.204  1.00  0.00     0.027 C 
ENDBRANCH  12  14
ENDBRANCH   3  12
TORSDOF 4
ENDMDL
MODEL 8
REMARK VINA RESULT:      -5.9      3.383      5.319
REMARK  4 active torsions:
REMARK  status: ('A' for Active; 'I' for Inactive)
REMARK    1  A    between atoms: C_2  and  N_3 
REMARK    2  A    between atoms: N_3  and  C_4 
REMARK    3  A    between atoms: C_6  and  N_7 
REMARK    4  A    between atoms: N_7  and  C_8 
ROOT
HETATM    1  C   LIG     1      16.826  35.813  22.556  1.00  0.00     0.741 A 
HETATM    2  N   LIG     1      15.951  34.879  22.104  1.00  0.00     0.130 NA
HETATM    3  C   LIG     1      15.855  34.614  20.774  1.00  0.00     0.741 A 
HETATM    4  N   LIG     1      16.644  35.286  19.896  1.00  0.00    -0.030 NA
HETATM    5  C   LIG     1      17.520  36.219  20.345  1.00  0.00     0.259 A 
HETATM    6 CL   LIG     1      18.534  37.084  19.210  1.00  0.00    -0.040 Cl
HETATM    7  N   LIG     1      17.611  36.483  21.672  1.00  0.00    -0.030 NA
ENDROOT
BRANCH   1   8
HETATM    8  N   LIG     1      16.913  36.083  23.959  1.00  0.00    -0.222 N 
HETATM    9  H   LIG     1      17.073  35.280  24.609  1.00  0.00     0.177 HD
BRANCH   8  10
HETATM   10  C   LIG     1      16.783  37.440  24.490  1.00  0.00     0.134 C 
HETATM   11  C   LIG     1      18.107  37.933  25.063  1.00  0.00     0.027 C 
ENDBRANCH   8  10
ENDBRANCH   1   8
BRANCH   3  12
HETATM   12  N   LIG     1      14.935  33.626  20.289  1.00  0.00    -0.222 N 
HETATM   13  H   LIG     1      13.916  33.754  20.480  1.00  0.00     0.177 HD
BRANCH  12  14
HETATM   14  C   LIG     1      15.354  32.485  19.476  1.00  0.00     0.134 C 
HETATM   15  C   LIG     1      14.838  31.181  20.074  1.00  0.00     0.027 C 
ENDBRANCH  12  14
ENDBRANCH   3  12
TORSDOF 4
ENDMDL
MODEL 9
REMARK VINA RESULT:      -5.8      9.229     10.681
REMARK  4 active torsions:
REMARK  status: ('A' for Active; 'I' for Inactive)
REMARK    1  A    between atoms: C_2  and  N_3 
REMARK    2  A    between atoms: N_3  and  C_4 
REMARK    3  A    between atoms: C_6  and  N_7 
REMARK    4  A    between atoms: N_7  and  C_8 
ROOT
HETATM    1  C   LIG     1      15.671  31.393  14.016  1.00  0.00     0.741 A 
HETATM    2  N   LIG     1      15.296  31.738  15.274  1.00  0.00     0.130 NA
HETATM    3  C   LIG     1      15.892  32.782  15.908  1.00  0.00     0.741 A 
HETATM    4  N   LIG     1      16.866  33.485  15.274  1.00  0.00    -0.030 NA
HETATM    5  C   LIG     1      17.244  33.144  14.017  1.00  0.00     0.259 A 
HETATM    6 CL   LIG     1      18.501  34.052  13.205  1.00  0.00    -0.040 Cl
HETATM    7  N   LIG     1      16.648  32.100  13.388  1.00  0.00    -0.030 NA
ENDROOT
BRANCH   1   8
HETATM    8  N   LIG     1      15.035  30.290  13.362  1.00  0.00    -0.222 N 
HETATM    9  H   LIG     1      14.885  30.346  12.329  1.00  0.00     0.177 HD
BRANCH   8  10
HETATM   10  C   LIG     1      14.598  29.107  14.104  1.00  0.00     0.134 C 
HETATM   11  C   LIG     1      15.334  27.860  13.627  1.00  0.00     0.027 C 
ENDBRANCH   8  10
ENDBRANCH   1   8
BRANCH   3  12
HETATM   12  N   LIG     1      15.498  33.155  17.236  1.00  0.00    -0.222 N 
HETATM   13  H   LIG     1      15.694  34.128  17.561  1.00  0.00     0.177 HD
BRANCH  12  14
HETATM   14  C   LIG     1      14.770  32.255  18.128  1.00  0.00     0.134 C 
HETATM   15  C   LIG     1      15.387  32.264  19.522  1.00  0.00     0.027 C 
ENDBRANCH  12  14
ENDBRANCH   3  12
TORSDOF 4
ENDMDL
MODEL 10
REMARK VINA RESULT:      -5.8      9.206     11.026
REMARK  4 active torsions:
REMARK  status: ('A' for Active; 'I' for Inactive)
REMARK    1  A    between atoms: C_2  and  N_3 
REMARK    2  A    between atoms: N_3  and  C_4 
REMARK    3  A    between atoms: C_6  and  N_7 
REMARK    4  A    between atoms: N_7  and  C_8 
ROOT
HETATM    1  C   LIG     1      15.832  32.773  15.982  1.00  0.00     0.741 A 
HETATM    2  N   LIG     1      15.237  31.736  15.338  1.00  0.00     0.130 NA
HETATM    3  C   LIG     1      15.640  31.380  14.089  1.00  0.00     0.741 A 
HETATM    4  N   LIG     1      16.647  32.066  13.488  1.00  0.00    -0.030 NA
HETATM    5  C   LIG     1      17.244  33.102  14.128  1.00  0.00     0.259 A 
HETATM    6 CL   LIG     1      18.539  33.983  13.348  1.00  0.00    -0.040 Cl
HETATM    7  N   LIG     1      16.837  33.455  15.373  1.00  0.00    -0.030 NA
ENDROOT
BRANCH   1   8
HETATM    8  N   LIG     1      15.394  33.137  17.295  1.00  0.00    -0.222 N 
HETATM    9  H   LIG     1      15.557  34.118  17.618  1.00  0.00     0.177 HD
BRANCH   8  10
HETATM   10  C   LIG     1      14.737  32.174  18.180  1.00  0.00     0.134 C 
HETATM   11  C   LIG     1      15.423  32.125  19.540  1.00  0.00     0.027 C 
ENDBRANCH   8  10
ENDBRANCH   1   8
BRANCH   3  12
HETATM   12  N   LIG     1      15.020  30.284  13.404  1.00  0.00    -0.222 N 
HETATM   13  H   LIG     1      14.950  30.320  12.362  1.00  0.00     0.177 HD
BRANCH  12  14
HETATM   14  C   LIG     1      14.547  29.085  14.093  1.00  0.00     0.134 C 
HETATM   15  C   LIG     1      15.322  27.856  13.630  1.00  0.00     0.027 C 
ENDBRANCH  12  14
ENDBRANCH   3  12
TORSDOF 4
ENDMDL
MODEL 11
REMARK VINA RESULT:      -5.7      8.233      9.331
REMARK  4 active torsions:
REMARK  status: ('A' for Active; 'I' for Inactive)
REMARK    1  A    between atoms: C_2  and  N_3 
REMARK    2  A    between atoms: N_3  and  C_4 
REMARK    3  A    between atoms: C_6  and  N_7 
REMARK    4  A    between atoms: N_7  and  C_8 
ROOT
HETATM    1  C   LIG     1      16.581  32.542  15.182  1.00  0.00     0.741 A 
HETATM    2  N   LIG     1      16.056  32.907  16.380  1.00  0.00     0.130 NA
HETATM    3  C   LIG     1      14.961  32.271  16.874  1.00  0.00     0.741 A 
HETATM    4  N   LIG     1      14.393  31.262  16.163  1.00  0.00    -0.030 NA
HETATM    5  C   LIG     1      14.914  30.895  14.966  1.00  0.00     0.259 A 
HETATM    6 CL   LIG     1      14.178  29.596  14.053  1.00  0.00    -0.040 Cl
HETATM    7  N   LIG     1      16.006  31.533  14.476  1.00  0.00    -0.030 NA
ENDROOT
BRANCH   1   8
HETATM    8  N   LIG     1      17.733  33.223  14.674  1.00  0.00    -0.222 N 
HETATM    9  H   LIG     1      18.471  33.521  15.352  1.00  0.00     0.177 HD
BRANCH   8  10
HETATM   10  C   LIG     1      17.891  33.507  13.248  1.00  0.00     0.134 C 
HETATM   11  C   LIG     1      19.332  33.883  12.922  1.00  0.00     0.027 C 
ENDBRANCH   8  10
ENDBRANCH   1   8
BRANCH   3  12
HETATM   12  N   LIG     1      14.404  32.648  18.140  1.00  0.00    -0.222 N 
HETATM   13  H   LIG     1      13.406  32.955  18.176  1.00  0.00     0.177 HD
BRANCH  12  14
HETATM   14  C   LIG     1      15.149  32.553  19.393  1.00  0.00     0.134 C 
HETATM   15  C   LIG     1      14.881  31.217  20.079  1.00  0.00     0.027 C 
ENDBRANCH  12  14
ENDBRANCH   3  12
TORSDOF 4
ENDMDL
MODEL 12
REMARK VINA RESULT:      -5.7      8.234     10.414
REMARK  4 active torsions:
REMARK  status: ('A' for Active; 'I' for Inactive)
REMARK    1  A    between atoms: C_2  and  N_3 
REMARK    2  A    between atoms: N_3  and  C_4 
REMARK    3  A    between atoms: C_6  and  N_7 
REMARK    4  A    between atoms: N_7  and  C_8 
ROOT
HETATM    1  C   LIG     1      14.989  32.329  16.819  1.00  0.00     0.741 A 
HETATM    2  N   LIG     1      16.071  32.983  16.323  1.00  0.00     0.130 NA
HETATM    3  C   LIG     1      16.613  32.612  15.133  1.00  0.00     0.741 A 
HETATM    4  N   LIG     1      16.065  31.583  14.437  1.00  0.00    -0.030 NA
HETATM    5  C   LIG     1      14.984  30.927  14.929  1.00  0.00     0.259 A 
HETATM    6 CL   LIG     1      14.282  29.600  14.029  1.00  0.00    -0.040 Cl
HETATM    7  N   LIG     1      14.447  31.299  16.118  1.00  0.00    -0.030 NA
ENDROOT
BRANCH   1   8
HETATM    8  N   LIG     1      14.431  32.730  18.074  1.00  0.00    -0.222 N 
HETATM    9  H   LIG     1      13.459  33.115  18.084  1.00  0.00     0.177 HD
BRANCH   8  10
HETATM   10  C   LIG     1      15.185  32.614  19.323  1.00  0.00     0.134 C 
HETATM   11  C   LIG     1      14.843  31.318  20.050  1.00  0.00     0.027 C 
ENDBRANCH   8  10
ENDBRANCH   1   8
BRANCH   3  12
HETATM   12  N   LIG     1      17.753  33.301  14.602  1.00  0.00    -0.222 N 
HETATM   13  H   LIG     1      18.485  33.642  15.265  1.00  0.00     0.177 HD
BRANCH  12  14
HETATM   14  C   LIG     1      17.971  33.483  13.168  1.00  0.00     0.134 C 
HETATM   15  C   LIG     1      19.428  33.834  12.886  1.00  0.00     0.027 C 
ENDBRANCH  12  14
ENDBRANCH   3  12
TORSDOF 4
ENDMDL
MODEL 13
REMARK VINA RESULT:      -5.6      8.327     10.596
REMARK  4 active torsions:
REMARK  status: ('A' for Active; 'I' for Inactive)
REMARK    1  A    between atoms: C_2  and  N_3 
REMARK    2  A    between atoms: N_3  and  C_4 
REMARK    3  A    between atoms: C_6  and  N_7 
REMARK    4  A    between atoms: N_7  and  C_8 
ROOT
HETATM    1  C   LIG     1      15.786  32.896  16.126  1.00  0.00     0.741 A 
HETATM    2  N   LIG     1      16.746  33.649  15.529  1.00  0.00     0.130 NA
HETATM    3  C   LIG     1      17.216  33.314  14.298  1.00  0.00     0.741 A 
HETATM    4  N   LIG     1      16.717  32.221  13.664  1.00  0.00    -0.030 NA
HETATM    5  C   LIG     1      15.758  31.467  14.257  1.00  0.00     0.259 A 
HETATM    6 CL   LIG     1      15.120  30.060  13.435  1.00  0.00    -0.040 Cl
HETATM    7  N   LIG     1      15.293  31.804  15.486  1.00  0.00    -0.030 NA
ENDROOT
BRANCH   1   8
HETATM    8  N   LIG     1      15.303  33.261  17.423  1.00  0.00    -0.222 N 
HETATM    9  H   LIG     1      15.352  34.266  17.706  1.00  0.00     0.177 HD
BRANCH   8  10
HETATM   10  C   LIG     1      14.752  32.267  18.345  1.00  0.00     0.134 C 
HETATM   11  C   LIG     1      15.508  32.270  19.669  1.00  0.00     0.027 C 
ENDBRANCH   8  10
ENDBRANCH   1   8
BRANCH   3  12
HETATM   12  N   LIG     1      18.226  34.106  13.660  1.00  0.00    -0.222 N 
HETATM   13  H   LIG     1      18.480  35.027  14.082  1.00  0.00     0.177 HD
BRANCH  12  14
HETATM   14  C   LIG     1      18.968  33.649  12.487  1.00  0.00     0.134 C 
HETATM   15  C   LIG     1      20.450  33.979  12.624  1.00  0.00     0.027 C 
ENDBRANCH  12  14
ENDBRANCH   3  12
TORSDOF 4
ENDMDL
MODEL 14
REMARK VINA RESULT:      -5.6     10.085     11.534
REMARK  4 active torsions:
REMARK  status: ('A' for Active; 'I' for Inactive)
REMARK    1  A    between atoms: C_2  and  N_3 
REMARK    2  A    between atoms: N_3  and  C_4 
REMARK    3  A    between atoms: C_6  and  N_7 
REMARK    4  A    between atoms: N_7  and  C_8 
ROOT
HETATM    1  C   LIG     1      13.492  29.997  14.739  1.00  0.00     0.741 A 
HETATM    2  N   LIG     1      13.260  30.448  15.999  1.00  0.00     0.130 NA
HETATM    3  C   LIG     1      14.047  31.416  16.539  1.00  0.00     0.741 A 
HETATM    4  N   LIG     1      15.068  31.935  15.810  1.00  0.00    -0.030 NA
HETATM    5  C   LIG     1      15.304  31.488  14.551  1.00  0.00     0.259 A 
HETATM    6 CL   LIG     1      16.622  32.159  13.617  1.00  0.00    -0.040 Cl
HETATM    7  N   LIG     1      14.517  30.521  14.017  1.00  0.00    -0.030 NA
ENDROOT
BRANCH   1   8
HETATM    8  N   LIG     1      12.656  28.977  14.185  1.00  0.00    -0.222 N 
HETATM    9  H   LIG     1      11.649  29.200  14.014  1.00  0.00     0.177 HD
BRANCH   8  10
HETATM   10  C   LIG     1      13.177  27.649  13.861  1.00  0.00     0.134 C 
HETATM   11  C   LIG     1      12.158  26.840  13.065  1.00  0.00     0.027 C 
ENDBRANCH   8  10
ENDBRANCH   1   8
BRANCH   3  12
HETATM   12  N   LIG     1      13.805  31.899  17.867  1.00  0.00    -0.222 N 
HETATM   13  H   LIG     1      12.817  31.986  18.196  1.00  0.00     0.177 HD
BRANCH  12  14
HETATM   14  C   LIG     1      14.881  32.208  18.807  1.00  0.00     0.134 C 
HETATM   15  C   LIG     1      14.807  31.298  20.028  1.00  0.00     0.027 C 
ENDBRANCH  12  14
ENDBRANCH   3  12
TORSDOF 4
ENDMDL
MODEL 15
REMARK VINA RESULT:      -5.5      9.499     11.566
REMARK  4 active torsions:
REMARK  status: ('A' for Active; 'I' for Inactive)
REMARK    1  A    between atoms: C_2  and  N_3 
REMARK    2  A    between atoms: N_3  and  C_4 
REMARK    3  A    between atoms: C_6  and  N_7 
REMARK    4  A    between atoms: N_7  and  C_8 
ROOT
HETATM    1  C   LIG     1      15.712  31.334  14.038  1.00  0.00     0.741 A 
HETATM    2  N   LIG     1      16.686  32.098  13.480  1.00  0.00     0.130 NA
HETATM    3  C   LIG     1      17.164  33.190  14.135  1.00  0.00     0.741 A 
HETATM    4  N   LIG     1      16.664  33.512  15.356  1.00  0.00    -0.030 NA
HETATM    5  C   LIG     1      15.692  32.750  15.917  1.00  0.00     0.259 A 
HETATM    6 CL   LIG     1      15.050  33.171  17.490  1.00  0.00    -0.040 Cl
HETATM    7  N   LIG     1      15.216  31.664  15.259  1.00  0.00    -0.030 NA
ENDROOT
BRANCH   1   8
HETATM    8  N   LIG     1      15.218  30.189  13.335  1.00  0.00    -0.222 N 
HETATM    9  H   LIG     1      15.258  30.194  12.290  1.00  0.00     0.177 HD
BRANCH   8  10
HETATM   10  C   LIG     1      14.666  29.033  14.042  1.00  0.00     0.134 C 
HETATM   11  C   LIG     1      15.337  27.742  13.586  1.00  0.00     0.027 C 
ENDBRANCH   8  10
ENDBRANCH   1   8
BRANCH   3  12
HETATM   12  N   LIG     1      18.195  33.999  13.554  1.00  0.00    -0.222 N 
HETATM   13  H   LIG     1      18.411  34.924  13.990  1.00  0.00     0.177 HD
BRANCH  12  14
HETATM   14  C   LIG     1      19.006  33.557  12.422  1.00  0.00     0.134 C 
HETATM   15  C   LIG     1      20.484  33.829  12.679  1.00  0.00     0.027 C 
ENDBRANCH  12  14
ENDBRANCH   3  12
TORSDOF 4
ENDMDL
MODEL 16
REMARK VINA RESULT:      -5.3      2.643      4.099
REMARK  4 active torsions:
REMARK  status: ('A' for Active; 'I' for Inactive)
REMARK    1  A    between atoms: C_2  and  N_3 
REMARK    2  A    between atoms: N_3  and  C_4 
REMARK    3  A    between atoms: C_6  and  N_7 
REMARK    4  A    between atoms: N_7  and  C_8 
ROOT
HETATM    1  C   LIG     1      17.002  37.496  23.737  1.00  0.00     0.741 A 
HETATM    2  N   LIG     1      16.361  36.717  22.828  1.00  0.00     0.130 NA
HETATM    3  C   LIG     1      16.320  35.367  22.987  1.00  0.00     0.741 A 
HETATM    4  N   LIG     1      16.921  34.800  24.064  1.00  0.00    -0.030 NA
HETATM    5  C   LIG     1      17.562  35.575  24.975  1.00  0.00     0.259 A 
HETATM    6 CL   LIG     1      18.336  34.838  26.360  1.00  0.00    -0.040 Cl
HETATM    7  N   LIG     1      17.603  36.921  24.811  1.00  0.00    -0.030 NA
ENDROOT
BRANCH   1   8
HETATM    8  N   LIG     1      17.039  38.915  23.554  1.00  0.00    -0.222 N 
HETATM    9  H   LIG     1      16.912  39.527  24.393  1.00  0.00     0.177 HD
BRANCH   8  10
HETATM   10  C   LIG     1      17.245  39.515  22.236  1.00  0.00     0.134 C 
HETATM   11  C   LIG     1      18.643  39.212  21.709  1.00  0.00     0.027 C 
ENDBRANCH   8  10
ENDBRANCH   1   8
BRANCH   3  12
HETATM   12  N   LIG     1      15.642  34.538  22.033  1.00  0.00    -0.222 N 
HETATM   13  H   LIG     1      14.765  34.052  22.327  1.00  0.00     0.177 HD
BRANCH  12  14
HETATM   14  C   LIG     1      16.084  34.401  20.647  1.00  0.00     0.134 C 
HETATM   15  C   LIG     1      15.510  33.134  20.022  1.00  0.00     0.027 C 
ENDBRANCH  12  14
ENDBRANCH   3  12
TORSDOF 4
ENDMDL
MODEL 17
REMARK VINA RESULT:      -5.2      3.310      4.758
REMARK  4 active torsions:
REMARK  status: ('A' for Active; 'I' for Inactive)
REMARK    1  A    between atoms: C_2  and  N_3 
REMARK    2  A    between atoms: N_3  and  C_4 
REMARK    3  A    between atoms: C_6  and  N_7 
REMARK    4  A    between atoms: N_7  and  C_8 
ROOT
HETATM    1  C   LIG     1      17.507  36.557  21.112  1.00  0.00     0.741 A 
HETATM    2  N   LIG     1      16.734  35.789  20.302  1.00  0.00     0.130 NA
HETATM    3  C   LIG     1      16.026  34.746  20.813  1.00  0.00     0.741 A 
HETATM    4  N   LIG     1      16.094  34.477  22.142  1.00  0.00    -0.030 NA
HETATM    5  C   LIG     1      16.865  35.242  22.954  1.00  0.00     0.259 A 
HETATM    6 CL   LIG     1      16.949  34.889  24.667  1.00  0.00    -0.040 Cl
HETATM    7  N   LIG     1      17.571  36.280  22.441  1.00  0.00    -0.030 NA
ENDROOT
BRANCH   1   8
HETATM    8  N   LIG     1      18.247  37.650  20.558  1.00  0.00    -0.222 N 
HETATM    9  H   LIG     1      18.062  38.611  20.926  1.00  0.00     0.177 HD
BRANCH   8  10
HETATM   10  C   LIG     1      19.241  37.448  19.503  1.00  0.00     0.134 C 
HETATM   11  C   LIG     1      19.907  38.765  19.121  1.00  0.00     0.027 C 
ENDBRANCH   8  10
ENDBRANCH   1   8
BRANCH   3  12
HETATM   12  N   LIG     1      15.204  33.934  19.964  1.00  0.00    -0.222 N 
HETATM   13  H   LIG     1      14.423  34.388  19.440  1.00  0.00     0.177 HD
BRANCH  12  14
HETATM   14  C   LIG     1      15.456  32.511  19.744  1.00  0.00     0.134 C 
HETATM   15  C   LIG     1      14.856  32.057  18.417  1.00  0.00     0.027 C 
ENDBRANCH  12  14
ENDBRANCH   3  12
TORSDOF 4
ENDMDL
MODEL 18
REMARK VINA RESULT:      -4.8      9.818     11.740
REMARK  4 active torsions:
REMARK  status: ('A' for Active; 'I' for Inactive)
REMARK    1  A    between atoms: C_2  and  N_3 
REMARK    2  A    between atoms: N_3  and  C_4 
REMARK    3  A    between atoms: C_6  and  N_7 
REMARK    4  A    between atoms: N_7  and  C_8 
ROOT
HETATM    1  C   LIG     1      14.402  30.621  15.363  1.00  0.00     0.741 A 
HETATM    2  N   LIG     1      15.017  31.681  14.777  1.00  0.00     0.130 NA
HETATM    3  C   LIG     1      15.758  31.510  13.650  1.00  0.00     0.741 A 
HETATM    4  N   LIG     1      15.878  30.271  13.107  1.00  0.00    -0.030 NA
HETATM    5  C   LIG     1      15.265  29.210  13.689  1.00  0.00     0.259 A 
HETATM    6 CL   LIG     1      15.425  27.615  12.986  1.00  0.00    -0.040 Cl
HETATM    7  N   LIG     1      14.529  29.384  14.814  1.00  0.00    -0.030 NA
ENDROOT
BRANCH   1   8
HETATM    8  N   LIG     1      13.628  30.817  16.550  1.00  0.00    -0.222 N 
HETATM    9  H   LIG     1      12.999  30.043  16.865  1.00  0.00     0.177 HD
BRANCH   8  10
HETATM   10  C   LIG     1      13.698  32.061  17.316  1.00  0.00     0.134 C 
HETATM   11  C   LIG     1      14.635  31.916  18.510  1.00  0.00     0.027 C 
ENDBRANCH   8  10
ENDBRANCH   1   8
BRANCH   3  12
HETATM   12  N   LIG     1      16.407  32.625  13.025  1.00  0.00    -0.222 N 
HETATM   13  H   LIG     1      15.905  33.132  12.261  1.00  0.00     0.177 HD
BRANCH  12  14
HETATM   14  C   LIG     1      17.708  33.130  13.458  1.00  0.00     0.134 C 
HETATM   15  C   LIG     1      17.550  34.093  14.629  1.00  0.00     0.027 C 
ENDBRANCH  12  14
ENDBRANCH   3  12
TORSDOF 4
ENDMDL
MODEL 19
REMARK VINA RESULT:      -4.5     11.102     12.810
REMARK  4 active torsions:
REMARK  status: ('A' for Active; 'I' for Inactive)
REMARK    1  A    between atoms: C_2  and  N_3 
REMARK    2  A    between atoms: N_3  and  C_4 
REMARK    3  A    between atoms: C_6  and  N_7 
REMARK    4  A    between atoms: N_7  and  C_8 
ROOT
HETATM    1  C   LIG     1      15.208  29.006  13.959  1.00  0.00     0.741 A 
HETATM    2  N   LIG     1      15.922  29.992  13.357  1.00  0.00     0.130 NA
HETATM    3  C   LIG     1      15.706  31.294  13.681  1.00  0.00     0.741 A 
HETATM    4  N   LIG     1      14.773  31.607  14.617  1.00  0.00    -0.030 NA
HETATM    5  C   LIG     1      14.058  30.626  15.222  1.00  0.00     0.259 A 
HETATM    6 CL   LIG     1      12.855  31.035  16.425  1.00  0.00    -0.040 Cl
HETATM    7  N   LIG     1      14.275  29.328  14.893  1.00  0.00    -0.030 NA
ENDROOT
BRANCH   1   8
HETATM    8  N   LIG     1      15.445  27.640  13.606  1.00  0.00    -0.222 N 
HETATM    9  H   LIG     1      15.820  26.996  14.339  1.00  0.00     0.177 HD
BRANCH   8  10
HETATM   10  C   LIG     1      15.180  27.139  12.257  1.00  0.00     0.134 C 
HETATM   11  C   LIG     1      16.468  26.687  11.578  1.00  0.00     0.027 C 
ENDBRANCH   8  10
ENDBRANCH   1   8
BRANCH   3  12
HETATM   12  N   LIG     1      16.459  32.340  13.052  1.00  0.00    -0.222 N 
HETATM   13  H   LIG     1      16.297  32.531  12.037  1.00  0.00     0.177 HD
BRANCH  12  14
HETATM   14  C   LIG     1      17.388  33.197  13.784  1.00  0.00     0.134 C 
HETATM   15  C   LIG     1      18.386  33.847  12.830  1.00  0.00     0.027 C 
ENDBRANCH  12  14
ENDBRANCH   3  12
TORSDOF 4
ENDMDL
MODEL 20
REMARK VINA RESULT:      -4.3      7.225      8.385
REMARK  4 active torsions:
REMARK  status: ('A' for Active; 'I' for Inactive)
REMARK    1  A    between atoms: C_2  and  N_3 
REMARK    2  A    between atoms: N_3  and  C_4 
REMARK    3  A    between atoms: C_6  and  N_7 
REMARK    4  A    between atoms: N_7  and  C_8 
ROOT
HETATM    1  C   LIG     1      15.560  32.270  15.871  1.00  0.00     0.741 A 
HETATM    2  N   LIG     1      16.020  32.605  17.104  1.00  0.00     0.130 NA
HETATM    3  C   LIG     1      15.320  32.260  18.217  1.00  0.00     0.741 A 
HETATM    4  N   LIG     1      14.155  31.572  18.091  1.00  0.00    -0.030 NA
HETATM    5  C   LIG     1      13.693  31.235  16.862  1.00  0.00     0.259 A 
HETATM    6 CL   LIG     1      12.191  30.350  16.705  1.00  0.00    -0.040 Cl
HETATM    7  N   LIG     1      14.393  31.583  15.754  1.00  0.00    -0.030 NA
ENDROOT
BRANCH   1   8
HETATM    8  N   LIG     1      16.308  32.642  14.709  1.00  0.00    -0.222 N 
HETATM    9  H   LIG     1      15.889  32.456  13.770  1.00  0.00     0.177 HD
BRANCH   8  10
HETATM   10  C   LIG     1      17.627  33.266  14.813  1.00  0.00     0.134 C 
HETATM   11  C   LIG     1      17.520  34.786  14.747  1.00  0.00     0.027 C 
ENDBRANCH   8  10
ENDBRANCH   1   8
BRANCH   3  12
HETATM   12  N   LIG     1      15.801  32.608  19.522  1.00  0.00    -0.222 N 
HETATM   13  H   LIG     1      16.673  32.150  19.872  1.00  0.00     0.177 HD
BRANCH  12  14
HETATM   14  C   LIG     1      15.166  33.627  20.356  1.00  0.00     0.134 C 
HETATM   15  C   LIG     1      15.743  35.006  20.053  1.00  0.00     0.027 C 
ENDBRANCH  12  14
ENDBRANCH   3  12
TORSDOF 4
ENDMDL
