MODEL 1
REMARK VINA RESULT:      -6.7      0.000      0.000
REMARK  2 active torsions:
REMARK  status: ('A' for Active; 'I' for Inactive)
REMARK       I    between atoms: N_2  and  C_3 
REMARK    1  A    between atoms: C_3  and  O_4 
REMARK    2  A    between atoms: O_4  and  C_5 
ROOT
HETATM    1  C   LIG     1      16.639  37.460  22.698  1.00  0.00     0.062 C 
HETATM    2  C   LIG     1      17.755  37.999  22.174  1.00  0.00     0.083 C 
HETATM    3  C   LIG     1      18.215  37.646  20.822  1.00  0.00     0.152 C 
HETATM    4  C   LIG     1      17.426  36.691  19.971  1.00  0.00     0.092 C 
HETATM    5  C   LIG     1      16.602  35.705  20.837  1.00  0.00    -0.035 C 
HETATM    6  C   LIG     1      17.536  34.685  21.531  1.00  0.00     0.015 C 
HETATM    7  C   LIG     1      15.792  36.501  21.895  1.00  0.00     0.074 C 
HETATM    8  C   LIG     1      15.624  34.931  19.928  1.00  0.00     0.015 C 
HETATM    9  O   LIG     1      19.259  38.176  20.361  1.00  0.00    -0.293 OA
ENDROOT
BRANCH   1  10
HETATM   10  O   LIG     1      16.215  37.760  24.002  1.00  0.00    -0.266 OA
BRANCH  10  11
HETATM   11  C   LIG     1      17.034  37.787  25.142  1.00  0.00     0.367 C 
HETATM   12  N   LIG     1      17.577  36.560  25.656  1.00  0.00    -0.336 N 
HETATM   13  C   LIG     1      17.292  35.302  24.961  1.00  0.00     0.154 C 
HETATM   14  C   LIG     1      18.413  36.579  26.860  1.00  0.00     0.154 C 
HETATM   15  O   LIG     1      17.255  38.875  25.743  1.00  0.00    -0.238 OA
ENDBRANCH  10  11
ENDBRANCH   1  10
TORSDOF 2
ENDMDL
MODEL 2
REMARK VINA RESULT:      -6.4      3.087      5.391
REMARK  2 active torsions:
REMARK  status: ('A' for Active; 'I' for Inactive)
REMARK       I    between atoms: N_2  and  C_3 
REMARK    1  A    between atoms: C_3  and  O_4 
REMARK    2  A    between atoms: O_4  and  C_5 
ROOT
HETATM    1  C   LIG     1      16.795  35.374  21.232  1.00  0.00     0.062 C 
HETATM    2  C   LIG     1      17.411  36.249  20.415  1.00  0.00     0.083 C 
HETATM    3  C   LIG     1      18.020  37.484  20.934  1.00  0.00     0.152 C 
HETATM    4  C   LIG     1      17.999  37.787  22.405  1.00  0.00     0.092 C 
HETATM    5  C   LIG     1      16.792  37.114  23.108  1.00  0.00    -0.035 C 
HETATM    6  C   LIG     1      15.473  37.813  22.704  1.00  0.00     0.015 C 
HETATM    7  C   LIG     1      16.746  35.611  22.723  1.00  0.00     0.074 C 
HETATM    8  C   LIG     1      16.963  37.240  24.636  1.00  0.00     0.015 C 
HETATM    9  O   LIG     1      18.595  38.275  20.142  1.00  0.00    -0.293 OA
ENDROOT
BRANCH   1  10
HETATM   10  O   LIG     1      16.176  34.214  20.741  1.00  0.00    -0.266 OA
BRANCH  10  11
HETATM   11  C   LIG     1      15.680  34.041  19.440  1.00  0.00     0.367 C 
HETATM   12  N   LIG     1      15.197  32.750  19.030  1.00  0.00    -0.336 N 
HETATM   13  C   LIG     1      15.202  31.644  19.991  1.00  0.00     0.154 C 
HETATM   14  C   LIG     1      14.700  32.557  17.665  1.00  0.00     0.154 C 
HETATM   15  O   LIG     1      15.701  34.996  18.616  1.00  0.00    -0.238 OA
ENDBRANCH  10  11
ENDBRANCH   1  10
TORSDOF 2
ENDMDL
MODEL 3
REMARK VINA RESULT:      -6.1      1.363      2.625
REMARK  2 active torsions:
REMARK  status: ('A' for Active; 'I' for Inactive)
REMARK       I    between atoms: N_2  and  C_3 
REMARK    1  A    between atoms: C_3  and  O_4 
REMARK    2  A    between atoms: O_4  and  C_5 
ROOT
HETATM    1  C   LIG     1      17.111  37.372  22.446  1.00  0.00     0.062 C 
HETATM    2  C   LIG     1      16.560  36.520  21.563  1.00  0.00     0.083 C 
HETATM    3  C   LIG     1      17.199  36.240  20.267  1.00  0.00     0.152 C 
HETATM    4  C   LIG     1      18.510  36.879  19.908  1.00  0.00     0.092 C 
HETATM    5  C   LIG     1      18.703  38.233  20.638  1.00  0.00    -0.035 C 
HETATM    6  C   LIG     1      17.751  39.302  20.053  1.00  0.00     0.015 C 
HETATM    7  C   LIG     1      18.433  38.042  22.154  1.00  0.00     0.074 C 
HETATM    8  C   LIG     1      20.156  38.711  20.439  1.00  0.00     0.015 C 
HETATM    9  O   LIG     1      16.660  35.430  19.469  1.00  0.00    -0.293 OA
ENDROOT
BRANCH   1  10
HETATM   10  O   LIG     1      16.488  37.677  23.667  1.00  0.00    -0.266 OA
BRANCH  10  11
HETATM   11  C   LIG     1      17.106  37.660  24.927  1.00  0.00     0.367 C 
HETATM   12  N   LIG     1      17.528  36.409  25.494  1.00  0.00    -0.336 N 
HETATM   13  C   LIG     1      17.335  35.173  24.732  1.00  0.00     0.154 C 
HETATM   14  C   LIG     1      18.152  36.383  26.820  1.00  0.00     0.154 C 
HETATM   15  O   LIG     1      17.248  38.730  25.582  1.00  0.00    -0.238 OA
ENDBRANCH  10  11
ENDBRANCH   1  10
TORSDOF 2
ENDMDL
MODEL 4
REMARK VINA RESULT:      -5.8      2.917      4.783
REMARK  2 active torsions:
REMARK  status: ('A' for Active; 'I' for Inactive)
REMARK       I    between atoms: N_2  and  C_3 
REMARK    1  A    between atoms: C_3  and  O_4 
REMARK    2  A    between atoms: O_4  and  C_5 
ROOT
HETATM    1  C   LIG     1      17.459  36.652  20.812  1.00  0.00     0.062 C 
HETATM    2  C   LIG     1      18.165  37.593  20.159  1.00  0.00     0.083 C 
HETATM    3  C   LIG     1      18.750  38.742  20.869  1.00  0.00     0.152 C 
HETATM    4  C   LIG     1      18.602  38.877  22.357  1.00  0.00     0.092 C 
HETATM    5  C   LIG     1      17.323  38.166  22.869  1.00  0.00    -0.035 C 
HETATM    6  C   LIG     1      16.061  38.949  22.434  1.00  0.00     0.015 C 
HETATM    7  C   LIG     1      17.279  36.719  22.310  1.00  0.00     0.074 C 
HETATM    8  C   LIG     1      17.357  38.113  24.410  1.00  0.00     0.015 C 
HETATM    9  O   LIG     1      19.412  39.599  20.227  1.00  0.00    -0.293 OA
ENDROOT
BRANCH   1  10
HETATM   10  O   LIG     1      16.862  35.575  20.137  1.00  0.00    -0.266 OA
BRANCH  10  11
HETATM   11  C   LIG     1      16.155  34.524  20.739  1.00  0.00     0.367 C 
HETATM   12  N   LIG     1      15.446  33.582  19.916  1.00  0.00    -0.336 N 
HETATM   13  C   LIG     1      15.501  33.718  18.459  1.00  0.00     0.154 C 
HETATM   14  C   LIG     1      14.685  32.496  20.540  1.00  0.00     0.154 C 
HETATM   15  O   LIG     1      16.098  34.430  21.996  1.00  0.00    -0.238 OA
ENDBRANCH  10  11
ENDBRANCH   1  10
TORSDOF 2
ENDMDL
MODEL 5
REMARK VINA RESULT:      -5.7      2.961      5.500
REMARK  2 active torsions:
REMARK  status: ('A' for Active; 'I' for Inactive)
REMARK       I    between atoms: N_2  and  C_3 
REMARK    1  A    between atoms: C_3  and  O_4 
REMARK    2  A    between atoms: O_4  and  C_5 
ROOT
HETATM    1  C   LIG     1      17.508  36.672  21.078  1.00  0.00     0.062 C 
HETATM    2  C   LIG     1      16.403  35.939  20.849  1.00  0.00     0.083 C 
HETATM    3  C   LIG     1      15.280  35.929  21.800  1.00  0.00     0.152 C 
HETATM    4  C   LIG     1      15.324  36.768  23.045  1.00  0.00     0.092 C 
HETATM    5  C   LIG     1      16.781  37.027  23.506  1.00  0.00    -0.035 C 
HETATM    6  C   LIG     1      17.407  35.730  24.073  1.00  0.00     0.015 C 
HETATM    7  C   LIG     1      17.616  37.547  22.305  1.00  0.00     0.074 C 
HETATM    8  C   LIG     1      16.777  38.094  24.619  1.00  0.00     0.015 C 
HETATM    9  O   LIG     1      14.257  35.238  21.549  1.00  0.00    -0.293 OA
ENDROOT
BRANCH   1  10
HETATM   10  O   LIG     1      18.601  36.656  20.197  1.00  0.00    -0.266 OA
BRANCH  10  11
HETATM   11  C   LIG     1      18.635  37.249  18.926  1.00  0.00     0.367 C 
HETATM   12  N   LIG     1      19.137  38.588  18.781  1.00  0.00    -0.336 N 
HETATM   13  C   LIG     1      19.634  39.300  19.961  1.00  0.00     0.154 C 
HETATM   14  C   LIG     1      19.153  39.223  17.460  1.00  0.00     0.154 C 
HETATM   15  O   LIG     1      18.185  36.633  17.921  1.00  0.00    -0.238 OA
ENDBRANCH  10  11
ENDBRANCH   1  10
TORSDOF 2
ENDMDL
MODEL 6
REMARK VINA RESULT:      -5.5      2.421      4.842
REMARK  2 active torsions:
REMARK  status: ('A' for Active; 'I' for Inactive)
REMARK       I    between atoms: N_2  and  C_3 
REMARK    1  A    between atoms: C_3  and  O_4 
REMARK    2  A    between atoms: O_4  and  C_5 
ROOT
HETATM    1  C   LIG     1      16.820  36.710  22.406  1.00  0.00     0.062 C 
HETATM    2  C   LIG     1      17.253  37.837  21.812  1.00  0.00     0.083 C 
HETATM    3  C   LIG     1      18.259  38.701  22.450  1.00  0.00     0.152 C 
HETATM    4  C   LIG     1      18.857  38.327  23.776  1.00  0.00     0.092 C 
HETATM    5  C   LIG     1      17.891  37.447  24.609  1.00  0.00    -0.035 C 
HETATM    6  C   LIG     1      16.697  38.289  25.118  1.00  0.00     0.015 C 
HETATM    7  C   LIG     1      17.386  36.268  23.735  1.00  0.00     0.074 C 
HETATM    8  C   LIG     1      18.647  36.884  25.830  1.00  0.00     0.015 C 
HETATM    9  O   LIG     1      18.647  39.744  21.861  1.00  0.00    -0.293 OA
ENDROOT
BRANCH   1  10
HETATM   10  O   LIG     1      15.831  35.901  21.824  1.00  0.00    -0.266 OA
BRANCH  10  11
HETATM   11  C   LIG     1      15.988  35.120  20.669  1.00  0.00     0.367 C 
HETATM   12  N   LIG     1      15.276  33.877  20.550  1.00  0.00    -0.336 N 
HETATM   13  C   LIG     1      14.371  33.462  21.625  1.00  0.00     0.154 C 
HETATM   14  C   LIG     1      15.455  33.044  19.357  1.00  0.00     0.154 C 
HETATM   15  O   LIG     1      16.787  35.478  19.760  1.00  0.00    -0.238 OA
ENDBRANCH  10  11
ENDBRANCH   1  10
TORSDOF 2
ENDMDL
MODEL 7
REMARK VINA RESULT:      -5.5      2.858      5.349
REMARK  2 active torsions:
REMARK  status: ('A' for Active; 'I' for Inactive)
REMARK       I    between atoms: N_2  and  C_3 
REMARK    1  A    between atoms: C_3  and  O_4 
REMARK    2  A    between atoms: O_4  and  C_5 
ROOT
HETATM    1  C   LIG     1      17.800  38.533  21.475  1.00  0.00     0.062 C 
HETATM    2  C   LIG     1      17.615  39.023  22.714  1.00  0.00     0.083 C 
HETATM    3  C   LIG     1      17.237  38.148  23.835  1.00  0.00     0.152 C 
HETATM    4  C   LIG     1      17.079  36.668  23.631  1.00  0.00     0.092 C 
HETATM    5  C   LIG     1      16.692  36.334  22.168  1.00  0.00    -0.035 C 
HETATM    6  C   LIG     1      15.234  36.768  21.882  1.00  0.00     0.015 C 
HETATM    7  C   LIG     1      17.668  37.053  21.200  1.00  0.00     0.074 C 
HETATM    8  C   LIG     1      16.797  34.810  21.953  1.00  0.00     0.015 C 
HETATM    9  O   LIG     1      17.080  38.639  24.984  1.00  0.00    -0.293 OA
ENDROOT
BRANCH   1  10
HETATM   10  O   LIG     1      18.121  39.366  20.391  1.00  0.00    -0.266 OA
BRANCH  10  11
HETATM   11  C   LIG     1      19.145  39.138  19.460  1.00  0.00     0.367 C 
HETATM   12  N   LIG     1      18.965  39.545  18.093  1.00  0.00    -0.336 N 
HETATM   13  C   LIG     1      17.725  40.221  17.702  1.00  0.00     0.154 C 
HETATM   14  C   LIG     1      20.021  39.288  17.110  1.00  0.00     0.154 C 
HETATM   15  O   LIG     1      20.199  38.536  19.804  1.00  0.00    -0.238 OA
ENDBRANCH  10  11
ENDBRANCH   1  10
TORSDOF 2
ENDMDL
MODEL 8
REMARK VINA RESULT:      -5.4      7.260      9.513
REMARK  2 active torsions:
REMARK  status: ('A' for Active; 'I' for Inactive)
REMARK       I    between atoms: N_2  and  C_3 
REMARK    1  A    between atoms: C_3  and  O_4 
REMARK    2  A    between atoms: O_4  and  C_5 
ROOT
HETATM    1  C   LIG     1      15.657  32.885  15.968  1.00  0.00     0.062 C 
HETATM    2  C   LIG     1      15.789  33.268  17.251  1.00  0.00     0.083 C 
HETATM    3  C   LIG     1      15.064  32.583  18.333  1.00  0.00     0.152 C 
HETATM    4  C   LIG     1      14.176  31.409  18.035  1.00  0.00     0.092 C 
HETATM    5  C   LIG     1      13.619  31.470  16.590  1.00  0.00    -0.035 C 
HETATM    6  C   LIG     1      12.568  32.599  16.463  1.00  0.00     0.015 C 
HETATM    7  C   LIG     1      14.788  31.707  15.597  1.00  0.00     0.074 C 
HETATM    8  C   LIG     1      12.935  30.128  16.256  1.00  0.00     0.015 C 
HETATM    9  O   LIG     1      15.220  32.962  19.524  1.00  0.00    -0.293 OA
ENDROOT
BRANCH   1  10
HETATM   10  O   LIG     1      16.312  33.558  14.925  1.00  0.00    -0.266 OA
BRANCH  10  11
HETATM   11  C   LIG     1      17.640  33.348  14.523  1.00  0.00     0.367 C 
HETATM   12  N   LIG     1      18.118  33.949  13.308  1.00  0.00    -0.336 N 
HETATM   13  C   LIG     1      17.217  34.798  12.524  1.00  0.00     0.154 C 
HETATM   14  C   LIG     1      19.497  33.713  12.870  1.00  0.00     0.154 C 
HETATM   15  O   LIG     1      18.400  32.597  15.196  1.00  0.00    -0.238 OA
ENDBRANCH  10  11
ENDBRANCH   1  10
TORSDOF 2
ENDMDL
MODEL 9
REMARK VINA RESULT:      -5.2      9.159     11.884
REMARK  2 active torsions:
REMARK  status: ('A' for Active; 'I' for Inactive)
REMARK       I    between atoms: N_2  and  C_3 
REMARK    1  A    between atoms: C_3  and  O_4 
REMARK    2  A    between atoms: O_4  and  C_5 
ROOT
HETATM    1  C   LIG     1      13.853  30.348  15.004  1.00  0.00     0.062 C 
HETATM    2  C   LIG     1      14.851  30.885  14.280  1.00  0.00     0.083 C 
HETATM    3  C   LIG     1      15.898  31.708  14.908  1.00  0.00     0.152 C 
HETATM    4  C   LIG     1      15.897  31.943  16.392  1.00  0.00     0.092 C 
HETATM    5  C   LIG     1      14.467  31.850  16.982  1.00  0.00    -0.035 C 
HETATM    6  C   LIG     1      13.624  33.073  16.549  1.00  0.00     0.015 C 
HETATM    7  C   LIG     1      13.796  30.535  16.502  1.00  0.00     0.074 C 
HETATM    8  C   LIG     1      14.557  31.840  18.522  1.00  0.00     0.015 C 
HETATM    9  O   LIG     1      16.822  32.187  14.200  1.00  0.00    -0.293 OA
ENDROOT
BRANCH   1  10
HETATM   10  O   LIG     1      12.829  29.596  14.408  1.00  0.00    -0.266 OA
BRANCH  10  11
HETATM   11  C   LIG     1      12.969  28.312  13.860  1.00  0.00     0.367 C 
HETATM   12  N   LIG     1      11.876  27.727  13.132  1.00  0.00    -0.336 N 
HETATM   13  C   LIG     1      10.643  28.497  12.947  1.00  0.00     0.154 C 
HETATM   14  C   LIG     1      12.008  26.376  12.579  1.00  0.00     0.154 C 
HETATM   15  O   LIG     1      14.028  27.651  14.045  1.00  0.00    -0.238 OA
ENDBRANCH  10  11
ENDBRANCH   1  10
TORSDOF 2
ENDMDL
MODEL 10
REMARK VINA RESULT:      -5.1      6.800      8.825
REMARK  2 active torsions:
REMARK  status: ('A' for Active; 'I' for Inactive)
REMARK       I    between atoms: N_2  and  C_3 
REMARK    1  A    between atoms: C_3  and  O_4 
REMARK    2  A    between atoms: O_4  and  C_5 
ROOT
HETATM    1  C   LIG     1      14.741  31.552  16.019  1.00  0.00     0.062 C 
HETATM    2  C   LIG     1      15.689  32.229  15.344  1.00  0.00     0.083 C 
HETATM    3  C   LIG     1      16.006  31.911  13.943  1.00  0.00     0.152 C 
HETATM    4  C   LIG     1      15.251  30.837  13.213  1.00  0.00     0.092 C 
HETATM    5  C   LIG     1      14.699  29.766  14.188  1.00  0.00    -0.035 C 
HETATM    6  C   LIG     1      15.853  28.902  14.751  1.00  0.00     0.015 C 
HETATM    7  C   LIG     1      13.936  30.466  15.344  1.00  0.00     0.074 C 
HETATM    8  C   LIG     1      13.727  28.842  13.426  1.00  0.00     0.015 C 
HETATM    9  O   LIG     1      16.892  32.571  13.340  1.00  0.00    -0.293 OA
ENDROOT
BRANCH   1  10
HETATM   10  O   LIG     1      14.461  31.821  17.368  1.00  0.00    -0.266 OA
BRANCH  10  11
HETATM   11  C   LIG     1      15.025  32.855  18.130  1.00  0.00     0.367 C 
HETATM   12  N   LIG     1      15.212  32.675  19.544  1.00  0.00    -0.336 N 
HETATM   13  C   LIG     1      14.838  31.399  20.161  1.00  0.00     0.154 C 
HETATM   14  C   LIG     1      15.778  33.760  20.350  1.00  0.00     0.154 C 
HETATM   15  O   LIG     1      15.323  33.956  17.591  1.00  0.00    -0.238 OA
ENDBRANCH  10  11
ENDBRANCH   1  10
TORSDOF 2
ENDMDL
MODEL 11
REMARK VINA RESULT:      -4.8      8.924     10.989
REMARK  2 active torsions:
REMARK  status: ('A' for Active; 'I' for Inactive)
REMARK       I    between atoms: N_2  and  C_3 
REMARK    1  A    between atoms: C_3  and  O_4 
REMARK    2  A    between atoms: O_4  and  C_5 
ROOT
HETATM    1  C   LIG     1      17.681  33.072  13.111  1.00  0.00     0.062 C 
HETATM    2  C   LIG     1      17.143  34.298  12.979  1.00  0.00     0.083 C 
HETATM    3  C   LIG     1      17.569  35.209  11.904  1.00  0.00     0.152 C 
HETATM    4  C   LIG     1      18.599  34.778  10.900  1.00  0.00     0.092 C 
HETATM    5  C   LIG     1      19.553  33.706  11.486  1.00  0.00    -0.035 C 
HETATM    6  C   LIG     1      20.497  34.340  12.536  1.00  0.00     0.015 C 
HETATM    7  C   LIG     1      18.715  32.570  12.131  1.00  0.00     0.074 C 
HETATM    8  C   LIG     1      20.412  33.119  10.348  1.00  0.00     0.015 C 
HETATM    9  O   LIG     1      17.037  36.346  11.805  1.00  0.00    -0.293 OA
ENDROOT
BRANCH   1  10
HETATM   10  O   LIG     1      17.312  32.212  14.158  1.00  0.00    -0.266 OA
BRANCH  10  11
HETATM   11  C   LIG     1      16.131  31.456  14.216  1.00  0.00     0.367 C 
HETATM   12  N   LIG     1      15.229  31.632  15.321  1.00  0.00    -0.336 N 
HETATM   13  C   LIG     1      15.542  32.623  16.353  1.00  0.00     0.154 C 
HETATM   14  C   LIG     1      14.006  30.827  15.400  1.00  0.00     0.154 C 
HETATM   15  O   LIG     1      15.883  30.590  13.331  1.00  0.00    -0.238 OA
ENDBRANCH  10  11
ENDBRANCH   1  10
TORSDOF 2
ENDMDL
MODEL 12
REMARK VINA RESULT:      -4.8      2.746      5.175
REMARK  2 active torsions:
REMARK  status: ('A' for Active; 'I' for Inactive)
REMARK       I    between atoms: N_2  and  C_3 
REMARK    1  A    between atoms: C_3  and  O_4 
REMARK    2  A    between atoms: O_4  and  C_5 
ROOT
HETATM    1  C   LIG     1      17.646  36.443  21.022  1.00  0.00     0.062 C 
HETATM    2  C   LIG     1      17.231  37.404  21.867  1.00  0.00     0.083 C 
HETATM    3  C   LIG     1      16.072  37.198  22.751  1.00  0.00     0.152 C 
HETATM    4  C   LIG     1      15.336  35.888  22.754  1.00  0.00     0.092 C 
HETATM    5  C   LIG     1      15.464  35.159  21.392  1.00  0.00    -0.035 C 
HETATM    6  C   LIG     1      14.637  35.891  20.309  1.00  0.00     0.015 C 
HETATM    7  C   LIG     1      16.959  35.098  20.980  1.00  0.00     0.074 C 
HETATM    8  C   LIG     1      14.919  33.723  21.535  1.00  0.00     0.015 C 
HETATM    9  O   LIG     1      15.716  38.116  23.536  1.00  0.00    -0.293 OA
ENDROOT
BRANCH   1  10
HETATM   10  O   LIG     1      18.725  36.645  20.146  1.00  0.00    -0.266 OA
BRANCH  10  11
HETATM   11  C   LIG     1      18.652  37.259  18.887  1.00  0.00     0.367 C 
HETATM   12  N   LIG     1      19.090  38.620  18.734  1.00  0.00    -0.336 N 
HETATM   13  C   LIG     1      19.635  39.333  19.891  1.00  0.00     0.154 C 
HETATM   14  C   LIG     1      18.993  39.275  17.426  1.00  0.00     0.154 C 
HETATM   15  O   LIG     1      18.161  36.641  17.902  1.00  0.00    -0.238 OA
ENDBRANCH  10  11
ENDBRANCH   1  10
TORSDOF 2
ENDMDL
MODEL 13
REMARK VINA RESULT:      -4.8      8.443     11.025
REMARK  2 active torsions:
REMARK  status: ('A' for Active; 'I' for Inactive)
REMARK       I    between atoms: N_2  and  C_3 
REMARK    1  A    between atoms: C_3  and  O_4 
REMARK    2  A    between atoms: O_4  and  C_5 
ROOT
HETATM    1  C   LIG     1      15.841  31.438  14.564  1.00  0.00     0.062 C 
HETATM    2  C   LIG     1      15.502  31.903  15.780  1.00  0.00     0.083 C 
HETATM    3  C   LIG     1      15.788  33.291  16.178  1.00  0.00     0.152 C 
HETATM    4  C   LIG     1      16.441  34.242  15.216  1.00  0.00     0.092 C 
HETATM    5  C   LIG     1      17.318  33.492  14.181  1.00  0.00    -0.035 C 
HETATM    6  C   LIG     1      18.590  32.929  14.857  1.00  0.00     0.015 C 
HETATM    7  C   LIG     1      16.492  32.343  13.544  1.00  0.00     0.074 C 
HETATM    8  C   LIG     1      17.748  34.479  13.076  1.00  0.00     0.015 C 
HETATM    9  O   LIG     1      15.448  33.694  17.321  1.00  0.00    -0.293 OA
ENDROOT
BRANCH   1  10
HETATM   10  O   LIG     1      15.610  30.105  14.191  1.00  0.00    -0.266 OA
BRANCH  10  11
HETATM   11  C   LIG     1      14.371  29.447  14.234  1.00  0.00     0.367 C 
HETATM   12  N   LIG     1      14.264  28.100  13.744  1.00  0.00    -0.336 N 
HETATM   13  C   LIG     1      15.461  27.425  13.236  1.00  0.00     0.154 C 
HETATM   14  C   LIG     1      12.968  27.417  13.763  1.00  0.00     0.154 C 
HETATM   15  O   LIG     1      13.343  30.048  14.654  1.00  0.00    -0.238 OA
ENDBRANCH  10  11
ENDBRANCH   1  10
TORSDOF 2
ENDMDL
MODEL 14
REMARK VINA RESULT:      -4.6      2.822      4.480
REMARK  2 active torsions:
REMARK  status: ('A' for Active; 'I' for Inactive)
REMARK       I    between atoms: N_2  and  C_3 
REMARK    1  A    between atoms: C_3  and  O_4 
REMARK    2  A    between atoms: O_4  and  C_5 
ROOT
HETATM    1  C   LIG     1      17.952  36.856  20.840  1.00  0.00     0.062 C 
HETATM    2  C   LIG     1      18.416  37.871  20.089  1.00  0.00     0.083 C 
HETATM    3  C   LIG     1      18.739  39.178  20.683  1.00  0.00     0.152 C 
HETATM    4  C   LIG     1      18.589  39.405  22.160  1.00  0.00     0.092 C 
HETATM    5  C   LIG     1      17.512  38.473  22.773  1.00  0.00    -0.035 C 
HETATM    6  C   LIG     1      16.098  38.913  22.322  1.00  0.00     0.015 C 
HETATM    7  C   LIG     1      17.787  37.010  22.334  1.00  0.00     0.074 C 
HETATM    8  C   LIG     1      17.583  38.562  24.311  1.00  0.00     0.015 C 
HETATM    9  O   LIG     1      19.179  40.103  19.951  1.00  0.00    -0.293 OA
ENDROOT
BRANCH   1  10
HETATM   10  O   LIG     1      17.603  35.618  20.276  1.00  0.00    -0.266 OA
BRANCH  10  11
HETATM   11  C   LIG     1      16.312  35.069  20.246  1.00  0.00     0.367 C 
HETATM   12  N   LIG     1      15.742  34.530  21.451  1.00  0.00    -0.336 N 
HETATM   13  C   LIG     1      16.508  34.592  22.698  1.00  0.00     0.154 C 
HETATM   14  C   LIG     1      14.404  33.932  21.422  1.00  0.00     0.154 C 
HETATM   15  O   LIG     1      15.671  35.002  19.161  1.00  0.00    -0.238 OA
ENDBRANCH  10  11
ENDBRANCH   1  10
TORSDOF 2
ENDMDL
MODEL 15
REMARK VINA RESULT:      -4.6      8.727     10.907
REMARK  2 active torsions:
REMARK  status: ('A' for Active; 'I' for Inactive)
REMARK       I    between atoms: N_2  and  C_3 
REMARK    1  A    between atoms: C_3  and  O_4 
REMARK    2  A    between atoms: O_4  and  C_5 
ROOT
HETATM    1  C   LIG     1      16.624  32.457  14.190  1.00  0.00     0.062 C 
HETATM    2  C   LIG     1      16.070  31.274  13.867  1.00  0.00     0.083 C 
HETATM    3  C   LIG     1      14.835  30.804  14.515  1.00  0.00     0.152 C 
HETATM    4  C   LIG     1      14.138  31.654  15.540  1.00  0.00     0.092 C 
HETATM    5  C   LIG     1      15.129  32.604  16.261  1.00  0.00    -0.035 C 
HETATM    6  C   LIG     1      16.052  31.802  17.208  1.00  0.00     0.015 C 
HETATM    7  C   LIG     1      15.972  33.367  15.204  1.00  0.00     0.074 C 
HETATM    8  C   LIG     1      14.331  33.621  17.102  1.00  0.00     0.015 C 
HETATM    9  O   LIG     1      14.339  29.697  14.182  1.00  0.00    -0.293 OA
ENDROOT
BRANCH   1  10
HETATM   10  O   LIG     1      17.824  32.894  13.607  1.00  0.00    -0.266 OA
BRANCH  10  11
HETATM   11  C   LIG     1      17.958  33.982  12.730  1.00  0.00     0.367 C 
HETATM   12  N   LIG     1      18.762  33.846  11.547  1.00  0.00    -0.336 N 
HETATM   13  C   LIG     1      19.405  32.561  11.260  1.00  0.00     0.154 C 
HETATM   14  C   LIG     1      18.926  34.986  10.640  1.00  0.00     0.154 C 
HETATM   15  O   LIG     1      17.416  35.090  13.000  1.00  0.00    -0.238 OA
ENDBRANCH  10  11
ENDBRANCH   1  10
TORSDOF 2
ENDMDL
MODEL 16
REMARK VINA RESULT:      -4.4      9.014     10.757
REMARK  2 active torsions:
REMARK  status: ('A' for Active; 'I' for Inactive)
REMARK       I    between atoms: N_2  and  C_3 
REMARK    1  A    between atoms: C_3  and  O_4 
REMARK    2  A    between atoms: O_4  and  C_5 
ROOT
HETATM    1  C   LIG     1      15.629  31.434  14.837  1.00  0.00     0.062 C 
HETATM    2  C   LIG     1      15.329  30.205  14.379  1.00  0.00     0.083 C 
HETATM    3  C   LIG     1      13.994  29.618  14.578  1.00  0.00     0.152 C 
HETATM    4  C   LIG     1      12.913  30.394  15.274  1.00  0.00     0.092 C 
HETATM    5  C   LIG     1      13.505  31.431  16.263  1.00  0.00    -0.035 C 
HETATM    6  C   LIG     1      14.113  30.718  17.494  1.00  0.00     0.015 C 
HETATM    7  C   LIG     1      14.588  32.274  15.538  1.00  0.00     0.074 C 
HETATM    8  C   LIG     1      12.377  32.365  16.749  1.00  0.00     0.015 C 
HETATM    9  O   LIG     1      13.746  28.469  14.127  1.00  0.00    -0.293 OA
ENDROOT
BRANCH   1  10
HETATM   10  O   LIG     1      16.912  31.985  14.688  1.00  0.00    -0.266 OA
BRANCH  10  11
HETATM   11  C   LIG     1      17.372  32.693  13.568  1.00  0.00     0.367 C 
HETATM   12  N   LIG     1      17.595  34.110  13.665  1.00  0.00    -0.336 N 
HETATM   13  C   LIG     1      17.366  34.786  14.944  1.00  0.00     0.154 C 
HETATM   14  C   LIG     1      18.052  34.859  12.491  1.00  0.00     0.154 C 
HETATM   15  O   LIG     1      17.545  32.102  12.466  1.00  0.00    -0.238 OA
ENDBRANCH  10  11
ENDBRANCH   1  10
TORSDOF 2
ENDMDL
MODEL 17
REMARK VINA RESULT:      -4.3     15.644     16.915
REMARK  2 active torsions:
REMARK  status: ('A' for Active; 'I' for Inactive)
REMARK       I    between atoms: N_2  and  C_3 
REMARK    1  A    between atoms: C_3  and  O_4 
REMARK    2  A    between atoms: O_4  and  C_5 
ROOT
HETATM    1  C   LIG     1      25.677  22.673  19.293  1.00  0.00     0.062 C 
HETATM    2  C   LIG     1      25.393  21.701  18.406  1.00  0.00     0.083 C 
HETATM    3  C   LIG     1      24.063  21.073  18.358  1.00  0.00     0.152 C 
HETATM    4  C   LIG     1      22.969  21.527  19.282  1.00  0.00     0.092 C 
HETATM    5  C   LIG     1      23.543  22.125  20.592  1.00  0.00    -0.035 C 
HETATM    6  C   LIG     1      24.150  21.009  21.475  1.00  0.00     0.015 C 
HETATM    7  C   LIG     1      24.622  23.185  20.245  1.00  0.00     0.074 C 
HETATM    8  C   LIG     1      22.402  22.803  21.379  1.00  0.00     0.015 C 
HETATM    9  O   LIG     1      23.830  20.173  17.509  1.00  0.00    -0.293 OA
ENDROOT
BRANCH   1  10
HETATM   10  O   LIG     1      26.955  23.249  19.373  1.00  0.00    -0.266 OA
BRANCH  10  11
HETATM   11  C   LIG     1      27.372  24.410  18.706  1.00  0.00     0.367 C 
HETATM   12  N   LIG     1      27.782  25.559  19.467  1.00  0.00    -0.336 N 
HETATM   13  C   LIG     1      27.789  25.485  20.930  1.00  0.00     0.154 C 
HETATM   14  C   LIG     1      28.196  26.783  18.775  1.00  0.00     0.154 C 
HETATM   15  O   LIG     1      27.342  24.468  17.445  1.00  0.00    -0.238 OA
ENDBRANCH  10  11
ENDBRANCH   1  10
TORSDOF 2
ENDMDL
MODEL 18
REMARK VINA RESULT:      -4.3     16.803     18.032
REMARK  2 active torsions:
REMARK  status: ('A' for Active; 'I' for Inactive)
REMARK       I    between atoms: N_2  and  C_3 
REMARK    1  A    between atoms: C_3  and  O_4 
REMARK    2  A    between atoms: O_4  and  C_5 
ROOT
HETATM    1  C   LIG     1      27.145  28.737  34.785  1.00  0.00     0.062 C 
HETATM    2  C   LIG     1      27.881  29.486  33.944  1.00  0.00     0.083 C 
HETATM    3  C   LIG     1      28.477  30.760  34.375  1.00  0.00     0.152 C 
HETATM    4  C   LIG     1      28.306  31.246  35.786  1.00  0.00     0.092 C 
HETATM    5  C   LIG     1      27.003  30.697  36.423  1.00  0.00    -0.035 C 
HETATM    6  C   LIG     1      25.765  31.374  35.788  1.00  0.00     0.015 C 
HETATM    7  C   LIG     1      26.940  29.160  36.221  1.00  0.00     0.074 C 
HETATM    8  C   LIG     1      27.010  31.010  37.933  1.00  0.00     0.015 C 
HETATM    9  O   LIG     1      29.168  31.431  33.563  1.00  0.00    -0.293 OA
ENDROOT
BRANCH   1  10
HETATM   10  O   LIG     1      26.538  27.540  34.371  1.00  0.00    -0.266 OA
BRANCH  10  11
HETATM   11  C   LIG     1      26.729  26.914  33.130  1.00  0.00     0.367 C 
HETATM   12  N   LIG     1      27.706  25.867  33.005  1.00  0.00    -0.336 N 
HETATM   13  C   LIG     1      28.465  25.450  34.186  1.00  0.00     0.154 C 
HETATM   14  C   LIG     1      27.926  25.226  31.706  1.00  0.00     0.154 C 
HETATM   15  O   LIG     1      26.083  27.297  32.115  1.00  0.00    -0.238 OA
ENDBRANCH  10  11
ENDBRANCH   1  10
TORSDOF 2
ENDMDL
MODEL 19
REMARK VINA RESULT:      -4.2     15.380     16.536
REMARK  2 active torsions:
REMARK  status: ('A' for Active; 'I' for Inactive)
REMARK       I    between atoms: N_2  and  C_3 
REMARK    1  A    between atoms: C_3  and  O_4 
REMARK    2  A    between atoms: O_4  and  C_5 
ROOT
HETATM    1  C   LIG     1      25.308  23.016  20.596  1.00  0.00     0.062 C 
HETATM    2  C   LIG     1      24.132  23.250  21.206  1.00  0.00     0.083 C 
HETATM    3  C   LIG     1      23.013  22.299  21.104  1.00  0.00     0.152 C 
HETATM    4  C   LIG     1      23.167  21.017  20.337  1.00  0.00     0.092 C 
HETATM    5  C   LIG     1      24.233  21.147  19.219  1.00  0.00    -0.035 C 
HETATM    6  C   LIG     1      23.708  22.045  18.074  1.00  0.00     0.015 C 
HETATM    7  C   LIG     1      25.536  21.742  19.816  1.00  0.00     0.074 C 
HETATM    8  C   LIG     1      24.534  19.748  18.643  1.00  0.00     0.015 C 
HETATM    9  O   LIG     1      21.930  22.546  21.695  1.00  0.00    -0.293 OA
ENDROOT
BRANCH   1  10
HETATM   10  O   LIG     1      26.366  23.937  20.654  1.00  0.00    -0.266 OA
BRANCH  10  11
HETATM   11  C   LIG     1      26.678  24.887  19.670  1.00  0.00     0.367 C 
HETATM   12  N   LIG     1      27.756  25.812  19.891  1.00  0.00    -0.336 N 
HETATM   13  C   LIG     1      28.533  25.725  21.130  1.00  0.00     0.154 C 
HETATM   14  C   LIG     1      28.070  26.823  18.878  1.00  0.00     0.154 C 
HETATM   15  O   LIG     1      25.987  24.966  18.616  1.00  0.00    -0.238 OA
ENDBRANCH  10  11
ENDBRANCH   1  10
TORSDOF 2
ENDMDL
MODEL 20
REMARK VINA RESULT:      -4.0     15.911     16.555
REMARK  2 active torsions:
REMARK  status: ('A' for Active; 'I' for Inactive)
REMARK       I    between atoms: N_2  and  C_3 
REMARK    1  A    between atoms: C_3  and  O_4 
REMARK    2  A    between atoms: O_4  and  C_5 
ROOT
HETATM    1  C   LIG     1      24.160  22.853  21.078  1.00  0.00     0.062 C 
HETATM    2  C   LIG     1      25.225  23.446  20.509  1.00  0.00     0.083 C 
HETATM    3  C   LIG     1      25.526  23.272  19.079  1.00  0.00     0.152 C 
HETATM    4  C   LIG     1      24.625  22.449  18.203  1.00  0.00     0.092 C 
HETATM    5  C   LIG     1      23.875  21.364  19.017  1.00  0.00    -0.035 C 
HETATM    6  C   LIG     1      24.854  20.250  19.462  1.00  0.00     0.015 C 
HETATM    7  C   LIG     1      23.206  22.019  20.255  1.00  0.00     0.074 C 
HETATM    8  C   LIG     1      22.786  20.729  18.129  1.00  0.00     0.015 C 
HETATM    9  O   LIG     1      26.526  23.849  18.578  1.00  0.00    -0.293 OA
ENDROOT
BRANCH   1  10
HETATM   10  O   LIG     1      23.889  22.979  22.450  1.00  0.00    -0.266 OA
BRANCH  10  11
HETATM   11  C   LIG     1      24.682  22.472  23.490  1.00  0.00     0.367 C 
HETATM   12  N   LIG     1      24.308  21.241  24.133  1.00  0.00    -0.336 N 
HETATM   13  C   LIG     1      23.119  20.521  23.668  1.00  0.00     0.154 C 
HETATM   14  C   LIG     1      25.118  20.718  25.236  1.00  0.00     0.154 C 
HETATM   15  O   LIG     1      25.691  23.112  23.895  1.00  0.00    -0.238 OA
ENDBRANCH  10  11
ENDBRANCH   1  10
TORSDOF 2
ENDMDL
