REMARK  2 active torsions:
REMARK  status: ('A' for Active; 'I' for Inactive)
REMARK       I    between atoms: N_2  and  C_3 
REMARK    1  A    between atoms: C_3  and  O_4 
REMARK    2  A    between atoms: O_4  and  C_5 
ROOT
HETATM    1  C   LIG     1      -0.018  -0.342   0.026  1.00  0.00     0.062 C 
HETATM    2  C   LIG     1      -0.372  -1.039   1.121  1.00  0.00     0.083 C 
HETATM    3  C   LIG     1      -1.691  -1.683   1.226  1.00  0.00     0.152 C 
HETATM    4  C   LIG     1      -2.672  -1.606   0.091  1.00  0.00     0.092 C 
HETATM    5  C   LIG     1      -2.450  -0.335  -0.768  1.00  0.00    -0.035 C 
HETATM    6  C   LIG     1      -2.891   0.927   0.011  1.00  0.00     0.015 C 
HETATM    7  C   LIG     1      -0.951  -0.232  -1.157  1.00  0.00     0.074 C 
HETATM    8  C   LIG     1      -3.300  -0.438  -2.051  1.00  0.00     0.015 C 
HETATM    9  O   LIG     1      -1.985  -2.335   2.262  1.00  0.00    -0.293 OA
ENDROOT
BRANCH   1  10
HETATM   10  O   LIG     1       1.222   0.310  -0.066  1.00  0.00    -0.266 OA
BRANCH  10  11
HETATM   11  C   LIG     1       2.419  -0.123   0.524  1.00  0.00     0.367 C 
HETATM   12  N   LIG     1       3.534   0.780   0.614  1.00  0.00    -0.336 N 
HETATM   13  C   LIG     1       3.390   2.150   0.115  1.00  0.00     0.154 C 
HETATM   14  C   LIG     1       4.795   0.326   1.207  1.00  0.00     0.154 C 
HETATM   15  O   LIG     1       2.537  -1.312   0.931  1.00  0.00    -0.238 OA
ENDBRANCH  10  11
ENDBRANCH   1  10
TORSDOF 2
