REMARK  4 active torsions:
REMARK  status: ('A' for Active; 'I' for Inactive)
REMARK    1  A    between atoms: C_2  and  C_4 
REMARK    2  A    between atoms: C_2  and  O_3 
REMARK    3  A    between atoms: C_4  and  O_5 
REMARK    4  A    between atoms: O_5  and  C_6 
ROOT
HETATM    1  C   LIG     1       0.436  -0.561  -0.036  1.00  0.00     0.069 A 
HETATM    2  C   LIG     1       0.392   0.612   0.745  1.00  0.00     0.037 A 
HETATM    3  C   LIG     1       1.463   1.511   0.725  1.00  0.00     0.003 A 
HETATM    4  C   LIG     1       2.583   1.251  -0.070  1.00  0.00     0.000 A 
HETATM    5  C   LIG     1       2.634   0.089  -0.844  1.00  0.00     0.003 A 
HETATM    6  C   LIG     1       1.566  -0.812  -0.826  1.00  0.00     0.037 A 
ENDROOT
BRANCH   1   7
HETATM    7  O   LIG     1      -0.609  -1.499  -0.055  1.00  0.00    -0.341 OA
BRANCH   7   8
HETATM    8  C   LIG     1      -1.856  -1.358   0.627  1.00  0.00     0.285 C 
BRANCH   8   9
HETATM    9  C   LIG     1      -2.690  -0.285  -0.008  1.00  0.00     0.164 C 
HETATM   10  O   LIG     1      -2.882  -0.296  -1.252  1.00  0.00    -0.648 OA
BRANCH   9  11
HETATM   11  O   LIG     1      -3.280   0.710   0.766  1.00  0.00    -0.775 OA
HETATM   12  H   LIG     1      -3.156   0.739   1.771  1.00  0.00     0.167 HD
ENDBRANCH   9  11
ENDBRANCH   8   9
ENDBRANCH   7   8
ENDBRANCH   1   7
TORSDOF 4
