REMARK  4 active torsions:
REMARK  status: ('A' for Active; 'I' for Inactive)
REMARK    1  A    between atoms: C_2  and  C_4 
REMARK    2  A    between atoms: C_2  and  O_3 
REMARK    3  A    between atoms: C_4  and  O_5 
REMARK    4  A    between atoms: O_5  and  C_6 
ROOT
HETATM    1  C   LIG     1      -0.273  -0.334   0.438  1.00  0.00     0.069 A 
HETATM    2  C   LIG     1      -1.534  -0.185   1.029  1.00  0.00     0.038 A 
HETATM    3  C   LIG     1      -2.689  -0.163   0.241  1.00  0.00     0.026 A 
HETATM    4  C   LIG     1      -2.593  -0.292  -1.147  1.00  0.00     0.034 A 
HETATM    5 CL   LIG     1      -4.043  -0.264  -2.135  1.00  0.00    -0.084 Cl
HETATM    6  C   LIG     1      -1.339  -0.445  -1.748  1.00  0.00     0.026 A 
HETATM    7  C   LIG     1      -0.182  -0.468  -0.962  1.00  0.00     0.038 A 
ENDROOT
BRANCH   1   8
HETATM    8  O   LIG     1       0.855  -0.350   1.275  1.00  0.00    -0.341 OA
BRANCH   8   9
HETATM    9  C   LIG     1       2.211  -0.403   0.833  1.00  0.00     0.285 C 
BRANCH   9  10
HETATM   10  C   LIG     1       2.604   0.885   0.173  1.00  0.00     0.164 C 
HETATM   11  O   LIG     1       3.145   0.870  -0.963  1.00  0.00    -0.648 OA
BRANCH  10  12
HETATM   12  O   LIG     1       2.399   2.101   0.818  1.00  0.00    -0.775 OA
HETATM   13  H   LIG     1       1.978   2.140   1.739  1.00  0.00     0.167 HD
ENDBRANCH  10  12
ENDBRANCH   9  10
ENDBRANCH   8   9
ENDBRANCH   1   8
TORSDOF 4
