REMARK  4 active torsions:
REMARK  status: ('A' for Active; 'I' for Inactive)
REMARK    1  A    between atoms: C_2  and  N_3 
REMARK    2  A    between atoms: N_3  and  C_4 
REMARK    3  A    between atoms: C_6  and  N_7 
REMARK    4  A    between atoms: N_7  and  C_8 
ROOT
HETATM    1  C   LIG     1      -0.841   0.159  -0.585  1.00  0.00     0.741 A 
HETATM    2  N   LIG     1       0.428   0.432  -0.186  1.00  0.00     0.130 NA
HETATM    3  C   LIG     1       1.280   1.098  -1.010  1.00  0.00     0.741 A 
HETATM    4  N   LIG     1       0.854   1.495  -2.237  1.00  0.00    -0.030 NA
HETATM    5  C   LIG     1      -0.413   1.225  -2.639  1.00  0.00     0.259 A 
HETATM    6 CL   LIG     1      -0.956   1.737  -4.222  1.00  0.00    -0.040 Cl
HETATM    7  N   LIG     1      -1.259   0.558  -1.815  1.00  0.00    -0.030 NA
ENDROOT
BRANCH   1   8
HETATM    8  N   LIG     1      -1.725  -0.545   0.293  1.00  0.00    -0.222 N 
HETATM    9  H   LIG     1      -1.365  -0.835   1.231  1.00  0.00     0.177 HD
BRANCH   8  10
HETATM   10  C   LIG     1      -3.100  -0.862  -0.094  1.00  0.00     0.134 C 
HETATM   11  C   LIG     1      -3.822  -1.613   1.019  1.00  0.00     0.027 C 
ENDBRANCH   8  10
ENDBRANCH   1   8
BRANCH   3  12
HETATM   12  N   LIG     1       2.620   1.393  -0.594  1.00  0.00    -0.222 N 
HETATM   13  H   LIG     1       3.223   1.971  -1.222  1.00  0.00     0.177 HD
BRANCH  12  14
HETATM   14  C   LIG     1       3.156   0.982   0.702  1.00  0.00     0.134 C 
HETATM   15  C   LIG     1       3.476  -0.509   0.704  1.00  0.00     0.027 C 
ENDBRANCH  12  14
ENDBRANCH   3  12
TORSDOF 4
