REMARK  3 active torsions:
REMARK  status: ('A' for Active; 'I' for Inactive)
REMARK    1  A    between atoms: C_1  and  N_2 
REMARK    2  A    between atoms: N_2  and  N_3 
REMARK    3  A    between atoms: N_3  and  C_4 
ROOT
HETATM    1  N   LIG     1       0.476  -0.362   0.333  1.00  0.00    -0.300 N 
HETATM    2  H   LIG     1       0.169  -1.150   0.945  1.00  0.00     0.187 HD
ENDROOT
BRANCH   1   3
HETATM    3  C   LIG     1       1.887  -0.094   0.254  1.00  0.00     0.048 A 
HETATM    4  C   LIG     1       2.798  -1.120   0.551  1.00  0.00     0.031 A 
HETATM    5  C   LIG     1       4.175  -0.886   0.493  1.00  0.00     0.002 A 
HETATM    6  C   LIG     1       4.655   0.380   0.149  1.00  0.00     0.000 A 
HETATM    7  C   LIG     1       3.758   1.414  -0.131  1.00  0.00     0.002 A 
HETATM    8  C   LIG     1       2.380   1.184  -0.074  1.00  0.00     0.031 A 
ENDBRANCH   1   3
BRANCH   1   9
HETATM    9  N   LIG     1      -0.476   0.362  -0.412  1.00  0.00    -0.300 N 
HETATM   10  H   LIG     1      -0.169   1.150  -1.024  1.00  0.00     0.187 HD
BRANCH   9  11
HETATM   11  C   LIG     1      -1.887   0.094  -0.333  1.00  0.00     0.048 A 
HETATM   12  C   LIG     1      -2.798   1.120  -0.630  1.00  0.00     0.031 A 
HETATM   13  C   LIG     1      -4.175   0.885  -0.572  1.00  0.00     0.002 A 
HETATM   14  C   LIG     1      -4.655  -0.380  -0.228  1.00  0.00     0.000 A 
HETATM   15  C   LIG     1      -3.758  -1.414   0.051  1.00  0.00     0.002 A 
HETATM   16  C   LIG     1      -2.380  -1.184  -0.005  1.00  0.00     0.031 A 
ENDBRANCH   9  11
ENDBRANCH   1   9
TORSDOF 3
