MODEL 1
REMARK VINA RESULT:      -5.2      0.000      0.000
REMARK  4 active torsions:
REMARK  status: ('A' for Active; 'I' for Inactive)
REMARK    1  A    between atoms: C_2  and  O_3 
REMARK    2  A    between atoms: O_3  and  C_4 
REMARK    3  A    between atoms: C_4  and  C_5 
REMARK    4  A    between atoms: C_5  and  C_6 
ROOT
HETATM    1  O   LIG     1      16.313  37.723  24.621  1.00  0.00    -0.322 OA
ENDROOT
BRANCH   1   2
HETATM    2  C   LIG     1      16.273  37.931  23.239  1.00  0.00     0.254 C 
HETATM    3  C   LIG     1      16.595  36.799  22.322  1.00  0.00     0.126 C 
HETATM    4  O   LIG     1      15.975  39.060  22.762  1.00  0.00    -0.266 OA
ENDBRANCH   1   2
BRANCH   1   5
HETATM    5  C   LIG     1      17.352  38.224  25.462  1.00  0.00     0.178 C 
BRANCH   5   6
HETATM    6  C   LIG     1      18.499  37.215  25.591  1.00  0.00     0.026 C 
BRANCH   6   7
HETATM    7  C   LIG     1      18.236  36.199  26.710  1.00  0.00    -0.002 C 
HETATM    8  C   LIG     1      17.805  34.851  26.139  1.00  0.00     0.005 C 
ENDBRANCH   6   7
ENDBRANCH   5   6
ENDBRANCH   1   5
TORSDOF 4
ENDMDL
MODEL 2
REMARK VINA RESULT:      -4.8      1.861      4.196
REMARK  4 active torsions:
REMARK  status: ('A' for Active; 'I' for Inactive)
REMARK    1  A    between atoms: C_2  and  O_3 
REMARK    2  A    between atoms: O_3  and  C_4 
REMARK    3  A    between atoms: C_4  and  C_5 
REMARK    4  A    between atoms: C_5  and  C_6 
ROOT
HETATM    1  O   LIG     1      17.146  36.737  24.077  1.00  0.00    -0.322 OA
ENDROOT
BRANCH   1   2
HETATM    2  C   LIG     1      17.513  37.413  25.245  1.00  0.00     0.254 C 
HETATM    3  C   LIG     1      18.376  36.721  26.247  1.00  0.00     0.126 C 
HETATM    4  O   LIG     1      17.120  38.591  25.463  1.00  0.00    -0.266 OA
ENDBRANCH   1   2
BRANCH   1   5
HETATM    5  C   LIG     1      16.453  37.358  22.995  1.00  0.00     0.178 C 
BRANCH   5   6
HETATM    6  C   LIG     1      17.397  37.648  21.823  1.00  0.00     0.026 C 
BRANCH   6   7
HETATM    7  C   LIG     1      17.995  39.058  21.913  1.00  0.00    -0.002 C 
HETATM    8  C   LIG     1      18.858  39.369  20.694  1.00  0.00     0.005 C 
ENDBRANCH   6   7
ENDBRANCH   5   6
ENDBRANCH   1   5
TORSDOF 4
ENDMDL
MODEL 3
REMARK VINA RESULT:      -4.6      2.673      4.485
REMARK  4 active torsions:
REMARK  status: ('A' for Active; 'I' for Inactive)
REMARK    1  A    between atoms: C_2  and  O_3 
REMARK    2  A    between atoms: O_3  and  C_4 
REMARK    3  A    between atoms: C_4  and  C_5 
REMARK    4  A    between atoms: C_5  and  C_6 
ROOT
HETATM    1  O   LIG     1      17.039  38.677  22.129  1.00  0.00    -0.322 OA
ENDROOT
BRANCH   1   2
HETATM    2  C   LIG     1      16.560  37.686  22.991  1.00  0.00     0.254 C 
HETATM    3  C   LIG     1      16.823  36.252  22.674  1.00  0.00     0.126 C 
HETATM    4  O   LIG     1      15.905  37.990  24.026  1.00  0.00    -0.266 OA
ENDBRANCH   1   2
BRANCH   1   5
HETATM    5  C   LIG     1      18.427  38.941  21.928  1.00  0.00     0.178 C 
BRANCH   5   6
HETATM    6  C   LIG     1      18.707  39.385  20.488  1.00  0.00     0.026 C 
BRANCH   6   7
HETATM    7  C   LIG     1      19.675  38.429  19.779  1.00  0.00    -0.002 C 
HETATM    8  C   LIG     1      19.031  37.065  19.548  1.00  0.00     0.005 C 
ENDBRANCH   6   7
ENDBRANCH   5   6
ENDBRANCH   1   5
TORSDOF 4
ENDMDL
MODEL 4
REMARK VINA RESULT:      -4.5      1.610      3.831
REMARK  4 active torsions:
REMARK  status: ('A' for Active; 'I' for Inactive)
REMARK    1  A    between atoms: C_2  and  O_3 
REMARK    2  A    between atoms: O_3  and  C_4 
REMARK    3  A    between atoms: C_4  and  C_5 
REMARK    4  A    between atoms: C_5  and  C_6 
ROOT
HETATM    1  O   LIG     1      17.722  37.725  23.027  1.00  0.00    -0.322 OA
ENDROOT
BRANCH   1   2
HETATM    2  C   LIG     1      16.875  37.828  24.136  1.00  0.00     0.254 C 
HETATM    3  C   LIG     1      17.449  37.692  25.506  1.00  0.00     0.126 C 
HETATM    4  O   LIG     1      15.638  38.028  23.990  1.00  0.00    -0.266 OA
ENDBRANCH   1   2
BRANCH   1   5
HETATM    5  C   LIG     1      17.250  37.563  21.690  1.00  0.00     0.178 C 
BRANCH   5   6
HETATM    6  C   LIG     1      17.504  36.141  21.178  1.00  0.00     0.026 C 
BRANCH   6   7
HETATM    7  C   LIG     1      16.432  35.161  21.673  1.00  0.00    -0.002 C 
HETATM    8  C   LIG     1      15.031  35.665  21.339  1.00  0.00     0.005 C 
ENDBRANCH   6   7
ENDBRANCH   5   6
ENDBRANCH   1   5
TORSDOF 4
ENDMDL
MODEL 5
REMARK VINA RESULT:      -4.4      3.187      4.102
REMARK  4 active torsions:
REMARK  status: ('A' for Active; 'I' for Inactive)
REMARK    1  A    between atoms: C_2  and  O_3 
REMARK    2  A    between atoms: O_3  and  C_4 
REMARK    3  A    between atoms: C_4  and  C_5 
REMARK    4  A    between atoms: C_5  and  C_6 
ROOT
HETATM    1  O   LIG     1      18.854  39.037  21.191  1.00  0.00    -0.322 OA
ENDROOT
BRANCH   1   2
HETATM    2  C   LIG     1      19.530  38.666  20.024  1.00  0.00     0.254 C 
HETATM    3  C   LIG     1      19.310  37.305  19.455  1.00  0.00     0.126 C 
HETATM    4  O   LIG     1      20.325  39.463  19.454  1.00  0.00    -0.266 OA
ENDBRANCH   1   2
BRANCH   1   5
HETATM    5  C   LIG     1      17.644  38.421  21.628  1.00  0.00     0.178 C 
BRANCH   5   6
HETATM    6  C   LIG     1      17.273  38.867  23.047  1.00  0.00     0.026 C 
BRANCH   6   7
HETATM    7  C   LIG     1      16.949  37.671  23.950  1.00  0.00    -0.002 C 
HETATM    8  C   LIG     1      17.355  37.946  25.395  1.00  0.00     0.005 C 
ENDBRANCH   6   7
ENDBRANCH   5   6
ENDBRANCH   1   5
TORSDOF 4
ENDMDL
MODEL 6
REMARK VINA RESULT:      -4.4      1.918      2.349
REMARK  4 active torsions:
REMARK  status: ('A' for Active; 'I' for Inactive)
REMARK    1  A    between atoms: C_2  and  O_3 
REMARK    2  A    between atoms: O_3  and  C_4 
REMARK    3  A    between atoms: C_4  and  C_5 
REMARK    4  A    between atoms: C_5  and  C_6 
ROOT
HETATM    1  O   LIG     1      16.873  38.651  22.673  1.00  0.00    -0.322 OA
ENDROOT
BRANCH   1   2
HETATM    2  C   LIG     1      17.756  38.337  21.635  1.00  0.00     0.254 C 
HETATM    3  C   LIG     1      18.686  39.387  21.126  1.00  0.00     0.126 C 
HETATM    4  O   LIG     1      17.771  37.184  21.124  1.00  0.00    -0.266 OA
ENDBRANCH   1   2
BRANCH   1   5
HETATM    5  C   LIG     1      16.394  37.693  23.616  1.00  0.00     0.178 C 
BRANCH   5   6
HETATM    6  C   LIG     1      17.196  37.747  24.921  1.00  0.00     0.026 C 
BRANCH   6   7
HETATM    7  C   LIG     1      17.617  36.347  25.386  1.00  0.00    -0.002 C 
HETATM    8  C   LIG     1      18.431  36.417  26.674  1.00  0.00     0.005 C 
ENDBRANCH   6   7
ENDBRANCH   5   6
ENDBRANCH   1   5
TORSDOF 4
ENDMDL
MODEL 7
REMARK VINA RESULT:      -4.3      8.713     10.715
REMARK  4 active torsions:
REMARK  status: ('A' for Active; 'I' for Inactive)
REMARK    1  A    between atoms: C_2  and  O_3 
REMARK    2  A    between atoms: O_3  and  C_4 
REMARK    3  A    between atoms: C_4  and  C_5 
REMARK    4  A    between atoms: C_5  and  C_6 
ROOT
HETATM    1  O   LIG     1      13.788  31.253  17.930  1.00  0.00    -0.322 OA
ENDROOT
BRANCH   1   2
HETATM    2  C   LIG     1      14.770  32.041  18.539  1.00  0.00     0.254 C 
HETATM    3  C   LIG     1      15.012  31.901  20.004  1.00  0.00     0.126 C 
HETATM    4  O   LIG     1      15.445  32.869  17.867  1.00  0.00    -0.266 OA
ENDBRANCH   1   2
BRANCH   1   5
HETATM    5  C   LIG     1      13.126  31.617  16.719  1.00  0.00     0.178 C 
BRANCH   5   6
HETATM    6  C   LIG     1      13.343  30.563  15.628  1.00  0.00     0.026 C 
BRANCH   6   7
HETATM    7  C   LIG     1      14.713  30.718  14.955  1.00  0.00    -0.002 C 
HETATM    8  C   LIG     1      14.987  29.566  13.993  1.00  0.00     0.005 C 
ENDBRANCH   6   7
ENDBRANCH   5   6
ENDBRANCH   1   5
TORSDOF 4
ENDMDL
MODEL 8
REMARK VINA RESULT:      -4.3      3.637      4.884
REMARK  4 active torsions:
REMARK  status: ('A' for Active; 'I' for Inactive)
REMARK    1  A    between atoms: C_2  and  O_3 
REMARK    2  A    between atoms: O_3  and  C_4 
REMARK    3  A    between atoms: C_4  and  C_5 
REMARK    4  A    between atoms: C_5  and  C_6 
ROOT
HETATM    1  O   LIG     1      17.532  36.964  22.023  1.00  0.00    -0.322 OA
ENDROOT
BRANCH   1   2
HETATM    2  C   LIG     1      17.227  36.048  21.011  1.00  0.00     0.254 C 
HETATM    3  C   LIG     1      16.303  34.915  21.308  1.00  0.00     0.126 C 
HETATM    4  O   LIG     1      17.727  36.165  19.859  1.00  0.00    -0.266 OA
ENDBRANCH   1   2
BRANCH   1   5
HETATM    5  C   LIG     1      17.380  38.376  21.878  1.00  0.00     0.178 C 
BRANCH   5   6
HETATM    6  C   LIG     1      18.734  39.064  21.674  1.00  0.00     0.026 C 
BRANCH   6   7
HETATM    7  C   LIG     1      18.963  39.439  20.204  1.00  0.00    -0.002 C 
HETATM    8  C   LIG     1      20.198  38.740  19.644  1.00  0.00     0.005 C 
ENDBRANCH   6   7
ENDBRANCH   5   6
ENDBRANCH   1   5
TORSDOF 4
ENDMDL
MODEL 9
REMARK VINA RESULT:      -4.1      7.698      9.735
REMARK  4 active torsions:
REMARK  status: ('A' for Active; 'I' for Inactive)
REMARK    1  A    between atoms: C_2  and  O_3 
REMARK    2  A    between atoms: O_3  and  C_4 
REMARK    3  A    between atoms: C_4  and  C_5 
REMARK    4  A    between atoms: C_5  and  C_6 
ROOT
HETATM    1  O   LIG     1      15.662  32.619  18.170  1.00  0.00    -0.322 OA
ENDROOT
BRANCH   1   2
HETATM    2  C   LIG     1      15.374  32.505  19.534  1.00  0.00     0.254 C 
HETATM    3  C   LIG     1      14.857  31.211  20.065  1.00  0.00     0.126 C 
HETATM    4  O   LIG     1      15.540  33.483  20.315  1.00  0.00    -0.266 OA
ENDBRANCH   1   2
BRANCH   1   5
HETATM    5  C   LIG     1      14.669  32.865  17.175  1.00  0.00     0.178 C 
BRANCH   5   6
HETATM    6  C   LIG     1      14.678  31.774  16.098  1.00  0.00     0.026 C 
BRANCH   6   7
HETATM    7  C   LIG     1      13.447  30.864  16.205  1.00  0.00    -0.002 C 
HETATM    8  C   LIG     1      13.298  29.993  14.961  1.00  0.00     0.005 C 
ENDBRANCH   6   7
ENDBRANCH   5   6
ENDBRANCH   1   5
TORSDOF 4
ENDMDL
MODEL 10
REMARK VINA RESULT:      -4.1      4.051      5.127
REMARK  4 active torsions:
REMARK  status: ('A' for Active; 'I' for Inactive)
REMARK    1  A    between atoms: C_2  and  O_3 
REMARK    2  A    between atoms: O_3  and  C_4 
REMARK    3  A    between atoms: C_4  and  C_5 
REMARK    4  A    between atoms: C_5  and  C_6 
ROOT
HETATM    1  O   LIG     1      19.414  37.270  19.571  1.00  0.00    -0.322 OA
ENDROOT
BRANCH   1   2
HETATM    2  C   LIG     1      19.541  38.597  19.145  1.00  0.00     0.254 C 
HETATM    3  C   LIG     1      18.802  39.047  17.930  1.00  0.00     0.126 C 
HETATM    4  O   LIG     1      20.275  39.410  19.771  1.00  0.00    -0.266 OA
ENDBRANCH   1   2
BRANCH   1   5
HETATM    5  C   LIG     1      18.208  36.730  20.110  1.00  0.00     0.178 C 
BRANCH   5   6
HETATM    6  C   LIG     1      17.740  37.523  21.334  1.00  0.00     0.026 C 
BRANCH   6   7
HETATM    7  C   LIG     1      16.771  36.709  22.201  1.00  0.00    -0.002 C 
HETATM    8  C   LIG     1      17.049  35.214  22.080  1.00  0.00     0.005 C 
ENDBRANCH   6   7
ENDBRANCH   5   6
ENDBRANCH   1   5
TORSDOF 4
ENDMDL
MODEL 11
REMARK VINA RESULT:      -4.0      9.326     11.389
REMARK  4 active torsions:
REMARK  status: ('A' for Active; 'I' for Inactive)
REMARK    1  A    between atoms: C_2  and  O_3 
REMARK    2  A    between atoms: O_3  and  C_4 
REMARK    3  A    between atoms: C_4  and  C_5 
REMARK    4  A    between atoms: C_5  and  C_6 
ROOT
HETATM    1  O   LIG     1      16.182  32.203  15.362  1.00  0.00    -0.322 OA
ENDROOT
BRANCH   1   2
HETATM    2  C   LIG     1      15.605  33.186  16.174  1.00  0.00     0.254 C 
HETATM    3  C   LIG     1      14.497  32.809  17.098  1.00  0.00     0.126 C 
HETATM    4  O   LIG     1      16.006  34.381  16.128  1.00  0.00    -0.266 OA
ENDBRANCH   1   2
BRANCH   1   5
HETATM    5  C   LIG     1      16.112  32.220  13.937  1.00  0.00     0.178 C 
BRANCH   5   6
HETATM    6  C   LIG     1      15.451  30.947  13.398  1.00  0.00     0.026 C 
BRANCH   6   7
HETATM    7  C   LIG     1      15.087  29.975  14.527  1.00  0.00    -0.002 C 
HETATM    8  C   LIG     1      13.585  29.976  14.792  1.00  0.00     0.005 C 
ENDBRANCH   6   7
ENDBRANCH   5   6
ENDBRANCH   1   5
TORSDOF 4
ENDMDL
MODEL 12
REMARK VINA RESULT:      -4.0      5.750      7.177
REMARK  4 active torsions:
REMARK  status: ('A' for Active; 'I' for Inactive)
REMARK    1  A    between atoms: C_2  and  O_3 
REMARK    2  A    between atoms: O_3  and  C_4 
REMARK    3  A    between atoms: C_4  and  C_5 
REMARK    4  A    between atoms: C_5  and  C_6 
ROOT
HETATM    1  O   LIG     1      15.726  32.531  19.022  1.00  0.00    -0.322 OA
ENDROOT
BRANCH   1   2
HETATM    2  C   LIG     1      14.801  32.353  17.987  1.00  0.00     0.254 C 
HETATM    3  C   LIG     1      14.833  33.276  16.815  1.00  0.00     0.126 C 
HETATM    4  O   LIG     1      13.942  31.431  18.038  1.00  0.00    -0.266 OA
ENDBRANCH   1   2
BRANCH   1   5
HETATM    5  C   LIG     1      15.416  33.189  20.249  1.00  0.00     0.178 C 
BRANCH   5   6
HETATM    6  C   LIG     1      15.723  34.688  20.170  1.00  0.00     0.026 C 
BRANCH   6   7
HETATM    7  C   LIG     1      16.622  35.144  21.327  1.00  0.00    -0.002 C 
HETATM    8  C   LIG     1      17.550  36.273  20.890  1.00  0.00     0.005 C 
ENDBRANCH   6   7
ENDBRANCH   5   6
ENDBRANCH   1   5
TORSDOF 4
ENDMDL
MODEL 13
REMARK VINA RESULT:      -4.0      3.387      4.731
REMARK  4 active torsions:
REMARK  status: ('A' for Active; 'I' for Inactive)
REMARK    1  A    between atoms: C_2  and  O_3 
REMARK    2  A    between atoms: O_3  and  C_4 
REMARK    3  A    between atoms: C_4  and  C_5 
REMARK    4  A    between atoms: C_5  and  C_6 
ROOT
HETATM    1  O   LIG     1      18.333  36.257  20.557  1.00  0.00    -0.322 OA
ENDROOT
BRANCH   1   2
HETATM    2  C   LIG     1      18.675  37.008  19.428  1.00  0.00     0.254 C 
HETATM    3  C   LIG     1      19.568  38.193  19.583  1.00  0.00     0.126 C 
HETATM    4  O   LIG     1      18.234  36.699  18.287  1.00  0.00    -0.266 OA
ENDBRANCH   1   2
BRANCH   1   5
HETATM    5  C   LIG     1      16.987  35.988  20.945  1.00  0.00     0.178 C 
BRANCH   5   6
HETATM    6  C   LIG     1      16.711  36.472  22.372  1.00  0.00     0.026 C 
BRANCH   6   7
HETATM    7  C   LIG     1      16.638  38.002  22.448  1.00  0.00    -0.002 C 
HETATM    8  C   LIG     1      17.844  38.575  23.185  1.00  0.00     0.005 C 
ENDBRANCH   6   7
ENDBRANCH   5   6
ENDBRANCH   1   5
TORSDOF 4
ENDMDL
MODEL 14
REMARK VINA RESULT:      -3.9     11.305     12.175
REMARK  4 active torsions:
REMARK  status: ('A' for Active; 'I' for Inactive)
REMARK    1  A    between atoms: C_2  and  O_3 
REMARK    2  A    between atoms: O_3  and  C_4 
REMARK    3  A    between atoms: C_4  and  C_5 
REMARK    4  A    between atoms: C_5  and  C_6 
ROOT
HETATM    1  O   LIG     1      16.045  32.720  13.290  1.00  0.00    -0.322 OA
ENDROOT
BRANCH   1   2
HETATM    2  C   LIG     1      17.367  33.173  13.321  1.00  0.00     0.254 C 
HETATM    3  C   LIG     1      17.775  34.163  14.360  1.00  0.00     0.126 C 
HETATM    4  O   LIG     1      18.213  32.761  12.480  1.00  0.00    -0.266 OA
ENDBRANCH   1   2
BRANCH   1   5
HETATM    5  C   LIG     1      15.675  31.357  13.497  1.00  0.00     0.178 C 
BRANCH   5   6
HETATM    6  C   LIG     1      15.193  31.122  14.933  1.00  0.00     0.026 C 
BRANCH   6   7
HETATM    7  C   LIG     1      13.929  30.254  14.971  1.00  0.00    -0.002 C 
HETATM    8  C   LIG     1      12.986  30.702  16.084  1.00  0.00     0.005 C 
ENDBRANCH   6   7
ENDBRANCH   5   6
ENDBRANCH   1   5
TORSDOF 4
ENDMDL
MODEL 15
REMARK VINA RESULT:      -3.9      4.732      6.750
REMARK  4 active torsions:
REMARK  status: ('A' for Active; 'I' for Inactive)
REMARK    1  A    between atoms: C_2  and  O_3 
REMARK    2  A    between atoms: O_3  and  C_4 
REMARK    3  A    between atoms: C_4  and  C_5 
REMARK    4  A    between atoms: C_5  and  C_6 
ROOT
HETATM    1  O   LIG     1      16.144  34.627  20.037  1.00  0.00    -0.322 OA
ENDROOT
BRANCH   1   2
HETATM    2  C   LIG     1      16.873  35.435  20.916  1.00  0.00     0.254 C 
HETATM    3  C   LIG     1      16.733  35.224  22.386  1.00  0.00     0.126 C 
HETATM    4  O   LIG     1      17.638  36.339  20.482  1.00  0.00    -0.266 OA
ENDBRANCH   1   2
BRANCH   1   5
HETATM    5  C   LIG     1      15.303  33.557  20.465  1.00  0.00     0.178 C 
BRANCH   5   6
HETATM    6  C   LIG     1      15.666  32.246  19.759  1.00  0.00     0.026 C 
BRANCH   6   7
HETATM    7  C   LIG     1      14.627  31.868  18.697  1.00  0.00    -0.002 C 
HETATM    8  C   LIG     1      14.910  32.575  17.374  1.00  0.00     0.005 C 
ENDBRANCH   6   7
ENDBRANCH   5   6
ENDBRANCH   1   5
TORSDOF 4
ENDMDL
MODEL 16
REMARK VINA RESULT:      -3.9      3.252      4.387
REMARK  4 active torsions:
REMARK  status: ('A' for Active; 'I' for Inactive)
REMARK    1  A    between atoms: C_2  and  O_3 
REMARK    2  A    between atoms: O_3  and  C_4 
REMARK    3  A    between atoms: C_4  and  C_5 
REMARK    4  A    between atoms: C_5  and  C_6 
ROOT
HETATM    1  O   LIG     1      16.550  34.737  21.184  1.00  0.00    -0.322 OA
ENDROOT
BRANCH   1   2
HETATM    2  C   LIG     1      15.423  33.942  20.956  1.00  0.00     0.254 C 
HETATM    3  C   LIG     1      15.466  32.907  19.882  1.00  0.00     0.126 C 
HETATM    4  O   LIG     1      14.374  34.094  21.641  1.00  0.00    -0.266 OA
ENDBRANCH   1   2
BRANCH   1   5
HETATM    5  C   LIG     1      16.770  35.463  22.393  1.00  0.00     0.178 C 
BRANCH   5   6
HETATM    6  C   LIG     1      16.430  36.947  22.222  1.00  0.00     0.026 C 
BRANCH   6   7
HETATM    7  C   LIG     1      17.296  37.835  23.125  1.00  0.00    -0.002 C 
HETATM    8  C   LIG     1      16.932  37.646  24.594  1.00  0.00     0.005 C 
ENDBRANCH   6   7
ENDBRANCH   5   6
ENDBRANCH   1   5
TORSDOF 4
ENDMDL
MODEL 17
REMARK VINA RESULT:      -3.8      6.394      8.468
REMARK  4 active torsions:
REMARK  status: ('A' for Active; 'I' for Inactive)
REMARK    1  A    between atoms: C_2  and  O_3 
REMARK    2  A    between atoms: O_3  and  C_4 
REMARK    3  A    between atoms: C_4  and  C_5 
REMARK    4  A    between atoms: C_5  and  C_6 
ROOT
HETATM    1  O   LIG     1      15.654  32.938  19.731  1.00  0.00    -0.322 OA
ENDROOT
BRANCH   1   2
HETATM    2  C   LIG     1      15.446  33.947  20.677  1.00  0.00     0.254 C 
HETATM    3  C   LIG     1      16.332  35.147  20.671  1.00  0.00     0.126 C 
HETATM    4  O   LIG     1      14.526  33.850  21.535  1.00  0.00    -0.266 OA
ENDBRANCH   1   2
BRANCH   1   5
HETATM    5  C   LIG     1      15.168  33.004  18.391  1.00  0.00     0.178 C 
BRANCH   5   6
HETATM    6  C   LIG     1      14.354  31.756  18.032  1.00  0.00     0.026 C 
BRANCH   6   7
HETATM    7  C   LIG     1      14.201  31.597  16.514  1.00  0.00    -0.002 C 
HETATM    8  C   LIG     1      12.993  30.732  16.170  1.00  0.00     0.005 C 
ENDBRANCH   6   7
ENDBRANCH   5   6
ENDBRANCH   1   5
TORSDOF 4
ENDMDL
MODEL 18
REMARK VINA RESULT:      -3.7     10.128     11.805
REMARK  4 active torsions:
REMARK  status: ('A' for Active; 'I' for Inactive)
REMARK    1  A    between atoms: C_2  and  O_3 
REMARK    2  A    between atoms: O_3  and  C_4 
REMARK    3  A    between atoms: C_4  and  C_5 
REMARK    4  A    between atoms: C_5  and  C_6 
ROOT
HETATM    1  O   LIG     1      14.676  30.286  15.332  1.00  0.00    -0.322 OA
ENDROOT
BRANCH   1   2
HETATM    2  C   LIG     1      15.245  29.869  14.124  1.00  0.00     0.254 C 
HETATM    3  C   LIG     1      15.202  28.424  13.757  1.00  0.00     0.126 C 
HETATM    4  O   LIG     1      15.796  30.698  13.348  1.00  0.00    -0.266 OA
ENDBRANCH   1   2
BRANCH   1   5
HETATM    5  C   LIG     1      13.279  30.516  15.505  1.00  0.00     0.178 C 
BRANCH   5   6
HETATM    6  C   LIG     1      13.013  31.483  16.664  1.00  0.00     0.026 C 
BRANCH   6   7
HETATM    7  C   LIG     1      14.298  32.183  17.123  1.00  0.00    -0.002 C 
HETATM    8  C   LIG     1      14.594  31.885  18.590  1.00  0.00     0.005 C 
ENDBRANCH   6   7
ENDBRANCH   5   6
ENDBRANCH   1   5
TORSDOF 4
ENDMDL
MODEL 19
REMARK VINA RESULT:      -3.7      9.688     11.745
REMARK  4 active torsions:
REMARK  status: ('A' for Active; 'I' for Inactive)
REMARK    1  A    between atoms: C_2  and  O_3 
REMARK    2  A    between atoms: O_3  and  C_4 
REMARK    3  A    between atoms: C_4  and  C_5 
REMARK    4  A    between atoms: C_5  and  C_6 
ROOT
HETATM    1  O   LIG     1      13.909  30.395  16.319  1.00  0.00    -0.322 OA
ENDROOT
BRANCH   1   2
HETATM    2  C   LIG     1      13.580  31.591  16.964  1.00  0.00     0.254 C 
HETATM    3  C   LIG     1      14.645  32.347  17.686  1.00  0.00     0.126 C 
HETATM    4  O   LIG     1      12.398  32.032  16.948  1.00  0.00    -0.266 OA
ENDBRANCH   1   2
BRANCH   1   5
HETATM    5  C   LIG     1      13.738  30.184  14.918  1.00  0.00     0.178 C 
BRANCH   5   6
HETATM    6  C   LIG     1      15.076  29.883  14.232  1.00  0.00     0.026 C 
BRANCH   6   7
HETATM    7  C   LIG     1      15.543  31.057  13.363  1.00  0.00    -0.002 C 
HETATM    8  C   LIG     1      16.135  32.174  14.217  1.00  0.00     0.005 C 
ENDBRANCH   6   7
ENDBRANCH   5   6
ENDBRANCH   1   5
TORSDOF 4
ENDMDL
MODEL 20
REMARK VINA RESULT:      -3.7     10.415     12.015
REMARK  4 active torsions:
REMARK  status: ('A' for Active; 'I' for Inactive)
REMARK    1  A    between atoms: C_2  and  O_3 
REMARK    2  A    between atoms: O_3  and  C_4 
REMARK    3  A    between atoms: C_4  and  C_5 
REMARK    4  A    between atoms: C_5  and  C_6 
ROOT
HETATM    1  O   LIG     1      16.072  30.522  13.874  1.00  0.00    -0.322 OA
ENDROOT
BRANCH   1   2
HETATM    2  C   LIG     1      15.140  29.506  14.107  1.00  0.00     0.254 C 
HETATM    3  C   LIG     1      13.773  29.866  14.584  1.00  0.00     0.126 C 
HETATM    4  O   LIG     1      15.443  28.295  13.927  1.00  0.00    -0.266 OA
ENDBRANCH   1   2
BRANCH   1   5
HETATM    5  C   LIG     1      15.811  31.902  14.125  1.00  0.00     0.178 C 
BRANCH   5   6
HETATM    6  C   LIG     1      16.429  32.354  15.452  1.00  0.00     0.026 C 
BRANCH   6   7
HETATM    7  C   LIG     1      15.431  33.152  16.300  1.00  0.00    -0.002 C 
HETATM    8  C   LIG     1      14.705  32.248  17.292  1.00  0.00     0.005 C 
ENDBRANCH   6   7
ENDBRANCH   5   6
ENDBRANCH   1   5
TORSDOF 4
ENDMDL
