MODEL 1
REMARK VINA RESULT:      -4.4      0.000      0.000
REMARK  3 active torsions:
REMARK  status: ('A' for Active; 'I' for Inactive)
REMARK    1  A    between atoms: C_2  and  C_4 
REMARK    2  A    between atoms: C_4  and  C_5 
REMARK    3  A    between atoms: C_5  and  O_6 
ROOT
HETATM    1  C   LIG     1      17.213  37.632  25.226  1.00  0.00     0.030 C 
ENDROOT
BRANCH   1   2
HETATM    2  C   LIG     1      18.054  36.354  25.456  1.00  0.00    -0.021 C 
HETATM    3  C   LIG     1      17.312  35.083  25.015  1.00  0.00     0.009 C 
HETATM    4  C   LIG     1      18.441  36.243  26.937  1.00  0.00     0.009 C 
ENDBRANCH   1   2
BRANCH   1   5
HETATM    5  C   LIG     1      16.726  37.794  23.780  1.00  0.00     0.164 C 
BRANCH   5   6
HETATM    6  O   LIG     1      15.348  38.044  23.755  1.00  0.00    -0.401 OA
HETATM    7  H   LIG     1      15.030  37.741  22.865  1.00  0.00     0.209 HD
ENDBRANCH   5   6
ENDBRANCH   1   5
TORSDOF 3
ENDMDL
MODEL 2
REMARK VINA RESULT:      -4.3      1.573      2.108
REMARK  3 active torsions:
REMARK  status: ('A' for Active; 'I' for Inactive)
REMARK    1  A    between atoms: C_2  and  C_4 
REMARK    2  A    between atoms: C_4  and  C_5 
REMARK    3  A    between atoms: C_5  and  O_6 
ROOT
HETATM    1  C   LIG     1      18.346  37.044  25.483  1.00  0.00     0.030 C 
ENDROOT
BRANCH   1   2
HETATM    2  C   LIG     1      17.651  35.681  25.711  1.00  0.00    -0.021 C 
HETATM    3  C   LIG     1      18.543  34.697  26.482  1.00  0.00     0.009 C 
HETATM    4  C   LIG     1      17.246  35.069  24.363  1.00  0.00     0.009 C 
ENDBRANCH   1   2
BRANCH   1   5
HETATM    5  C   LIG     1      17.408  38.128  24.936  1.00  0.00     0.164 C 
BRANCH   5   6
HETATM    6  O   LIG     1      17.178  39.109  25.909  1.00  0.00    -0.401 OA
HETATM    7  H   LIG     1      16.716  38.650  26.659  1.00  0.00     0.209 HD
ENDBRANCH   5   6
ENDBRANCH   1   5
TORSDOF 3
ENDMDL
MODEL 3
REMARK VINA RESULT:      -4.1      4.591      5.671
REMARK  3 active torsions:
REMARK  status: ('A' for Active; 'I' for Inactive)
REMARK    1  A    between atoms: C_2  and  C_4 
REMARK    2  A    between atoms: C_4  and  C_5 
REMARK    3  A    between atoms: C_5  and  O_6 
ROOT
HETATM    1  C   LIG     1      19.114  39.363  20.602  1.00  0.00     0.030 C 
ENDROOT
BRANCH   1   2
HETATM    2  C   LIG     1      17.944  38.532  21.180  1.00  0.00    -0.021 C 
HETATM    3  C   LIG     1      17.873  38.615  22.712  1.00  0.00     0.009 C 
HETATM    4  C   LIG     1      18.079  37.067  20.745  1.00  0.00     0.009 C 
ENDBRANCH   1   2
BRANCH   1   5
HETATM    5  C   LIG     1      19.888  38.643  19.490  1.00  0.00     0.164 C 
BRANCH   5   6
HETATM    6  O   LIG     1      20.809  39.515  18.895  1.00  0.00    -0.401 OA
HETATM    7  H   LIG     1      21.678  39.035  18.892  1.00  0.00     0.209 HD
ENDBRANCH   5   6
ENDBRANCH   1   5
TORSDOF 3
ENDMDL
MODEL 4
REMARK VINA RESULT:      -4.0      2.436      3.637
REMARK  3 active torsions:
REMARK  status: ('A' for Active; 'I' for Inactive)
REMARK    1  A    between atoms: C_2  and  C_4 
REMARK    2  A    between atoms: C_4  and  C_5 
REMARK    3  A    between atoms: C_5  and  O_6 
ROOT
HETATM    1  C   LIG     1      17.160  37.810  22.267  1.00  0.00     0.030 C 
ENDROOT
BRANCH   1   2
HETATM    2  C   LIG     1      17.039  36.571  21.349  1.00  0.00    -0.021 C 
HETATM    3  C   LIG     1      17.071  35.256  22.142  1.00  0.00     0.009 C 
HETATM    4  C   LIG     1      18.168  36.578  20.310  1.00  0.00     0.009 C 
ENDBRANCH   1   2
BRANCH   1   5
HETATM    5  C   LIG     1      16.488  37.629  23.634  1.00  0.00     0.164 C 
BRANCH   5   6
HETATM    6  O   LIG     1      15.162  38.080  23.589  1.00  0.00    -0.401 OA
HETATM    7  H   LIG     1      14.736  37.765  24.428  1.00  0.00     0.209 HD
ENDBRANCH   5   6
ENDBRANCH   1   5
TORSDOF 3
ENDMDL
MODEL 5
REMARK VINA RESULT:      -4.0      2.275      3.776
REMARK  3 active torsions:
REMARK  status: ('A' for Active; 'I' for Inactive)
REMARK    1  A    between atoms: C_2  and  C_4 
REMARK    2  A    between atoms: C_4  and  C_5 
REMARK    3  A    between atoms: C_5  and  O_6 
ROOT
HETATM    1  C   LIG     1      17.613  38.519  23.233  1.00  0.00     0.030 C 
ENDROOT
BRANCH   1   2
HETATM    2  C   LIG     1      17.580  38.445  21.688  1.00  0.00    -0.021 C 
HETATM    3  C   LIG     1      17.645  36.999  21.175  1.00  0.00     0.009 C 
HETATM    4  C   LIG     1      18.743  39.257  21.101  1.00  0.00     0.009 C 
ENDBRANCH   1   2
BRANCH   1   5
HETATM    5  C   LIG     1      16.576  37.615  23.913  1.00  0.00     0.164 C 
BRANCH   5   6
HETATM    6  O   LIG     1      15.280  38.078  23.650  1.00  0.00    -0.401 OA
HETATM    7  H   LIG     1      14.708  37.723  24.379  1.00  0.00     0.209 HD
ENDBRANCH   5   6
ENDBRANCH   1   5
TORSDOF 3
ENDMDL
MODEL 6
REMARK VINA RESULT:      -3.9      2.644      4.022
REMARK  3 active torsions:
REMARK  status: ('A' for Active; 'I' for Inactive)
REMARK    1  A    between atoms: C_2  and  C_4 
REMARK    2  A    between atoms: C_4  and  C_5 
REMARK    3  A    between atoms: C_5  and  O_6 
ROOT
HETATM    1  C   LIG     1      17.055  37.736  22.073  1.00  0.00     0.030 C 
ENDROOT
BRANCH   1   2
HETATM    2  C   LIG     1      17.443  36.432  21.336  1.00  0.00    -0.021 C 
HETATM    3  C   LIG     1      18.312  36.703  20.098  1.00  0.00     0.009 C 
HETATM    4  C   LIG     1      16.178  35.668  20.925  1.00  0.00     0.009 C 
ENDBRANCH   1   2
BRANCH   1   5
HETATM    5  C   LIG     1      16.442  37.498  23.459  1.00  0.00     0.164 C 
BRANCH   5   6
HETATM    6  O   LIG     1      15.184  38.107  23.547  1.00  0.00    -0.401 OA
HETATM    7  H   LIG     1      15.210  38.883  22.929  1.00  0.00     0.209 HD
ENDBRANCH   5   6
ENDBRANCH   1   5
TORSDOF 3
ENDMDL
MODEL 7
REMARK VINA RESULT:      -3.9      3.838      5.114
REMARK  3 active torsions:
REMARK  status: ('A' for Active; 'I' for Inactive)
REMARK    1  A    between atoms: C_2  and  C_4 
REMARK    2  A    between atoms: C_4  and  C_5 
REMARK    3  A    between atoms: C_5  and  O_6 
ROOT
HETATM    1  C   LIG     1      18.555  39.077  21.380  1.00  0.00     0.030 C 
ENDROOT
BRANCH   1   2
HETATM    2  C   LIG     1      18.852  38.487  19.981  1.00  0.00    -0.021 C 
HETATM    3  C   LIG     1      18.644  36.966  19.936  1.00  0.00     0.009 C 
HETATM    4  C   LIG     1      20.290  38.827  19.566  1.00  0.00     0.009 C 
ENDBRANCH   1   2
BRANCH   1   5
HETATM    5  C   LIG     1      17.431  38.347  22.127  1.00  0.00     0.164 C 
BRANCH   5   6
HETATM    6  O   LIG     1      16.700  39.251  22.909  1.00  0.00    -0.401 OA
HETATM    7  H   LIG     1      16.498  40.024  22.320  1.00  0.00     0.209 HD
ENDBRANCH   5   6
ENDBRANCH   1   5
TORSDOF 3
ENDMDL
MODEL 8
REMARK VINA RESULT:      -3.7     11.095     11.997
REMARK  3 active torsions:
REMARK  status: ('A' for Active; 'I' for Inactive)
REMARK    1  A    between atoms: C_2  and  C_4 
REMARK    2  A    between atoms: C_4  and  C_5 
REMARK    3  A    between atoms: C_5  and  O_6 
ROOT
HETATM    1  C   LIG     1      13.416  30.368  15.383  1.00  0.00     0.030 C 
ENDROOT
BRANCH   1   2
HETATM    2  C   LIG     1      14.569  30.504  14.361  1.00  0.00    -0.021 C 
HETATM    3  C   LIG     1      15.265  29.162  14.089  1.00  0.00     0.009 C 
HETATM    4  C   LIG     1      15.595  31.529  14.865  1.00  0.00     0.009 C 
ENDBRANCH   1   2
BRANCH   1   5
HETATM    5  C   LIG     1      13.686  31.085  16.713  1.00  0.00     0.164 C 
BRANCH   5   6
HETATM    6  O   LIG     1      12.535  31.753  17.149  1.00  0.00    -0.401 OA
HETATM    7  H   LIG     1      12.262  31.310  17.994  1.00  0.00     0.209 HD
ENDBRANCH   5   6
ENDBRANCH   1   5
TORSDOF 3
ENDMDL
MODEL 9
REMARK VINA RESULT:      -3.7      3.462      4.168
REMARK  3 active torsions:
REMARK  status: ('A' for Active; 'I' for Inactive)
REMARK    1  A    between atoms: C_2  and  C_4 
REMARK    2  A    between atoms: C_4  and  C_5 
REMARK    3  A    between atoms: C_5  and  O_6 
ROOT
HETATM    1  C   LIG     1      17.377  37.990  22.285  1.00  0.00     0.030 C 
ENDROOT
BRANCH   1   2
HETATM    2  C   LIG     1      16.998  36.687  21.541  1.00  0.00    -0.021 C 
HETATM    3  C   LIG     1      16.954  35.474  22.482  1.00  0.00     0.009 C 
HETATM    4  C   LIG     1      17.994  36.427  20.403  1.00  0.00     0.009 C 
ENDBRANCH   1   2
BRANCH   1   5
HETATM    5  C   LIG     1      18.255  38.937  21.456  1.00  0.00     0.164 C 
BRANCH   5   6
HETATM    6  O   LIG     1      19.362  39.356  22.205  1.00  0.00    -0.401 OA
HETATM    7  H   LIG     1      19.208  40.314  22.411  1.00  0.00     0.209 HD
ENDBRANCH   5   6
ENDBRANCH   1   5
TORSDOF 3
ENDMDL
MODEL 10
REMARK VINA RESULT:      -3.7      4.000      4.520
REMARK  3 active torsions:
REMARK  status: ('A' for Active; 'I' for Inactive)
REMARK    1  A    between atoms: C_2  and  C_4 
REMARK    2  A    between atoms: C_4  and  C_5 
REMARK    3  A    between atoms: C_5  and  O_6 
ROOT
HETATM    1  C   LIG     1      17.989  39.133  21.671  1.00  0.00     0.030 C 
ENDROOT
BRANCH   1   2
HETATM    2  C   LIG     1      17.466  37.778  22.205  1.00  0.00    -0.021 C 
HETATM    3  C   LIG     1      17.457  36.691  21.120  1.00  0.00     0.009 C 
HETATM    4  C   LIG     1      16.053  37.953  22.777  1.00  0.00     0.009 C 
ENDBRANCH   1   2
BRANCH   1   5
HETATM    5  C   LIG     1      19.201  38.999  20.741  1.00  0.00     0.164 C 
BRANCH   5   6
HETATM    6  O   LIG     1      18.979  39.701  19.549  1.00  0.00    -0.401 OA
HETATM    7  H   LIG     1      19.590  39.301  18.876  1.00  0.00     0.209 HD
ENDBRANCH   5   6
ENDBRANCH   1   5
TORSDOF 3
ENDMDL
MODEL 11
REMARK VINA RESULT:      -3.6     12.309     12.976
REMARK  3 active torsions:
REMARK  status: ('A' for Active; 'I' for Inactive)
REMARK    1  A    between atoms: C_2  and  C_4 
REMARK    2  A    between atoms: C_4  and  C_5 
REMARK    3  A    between atoms: C_5  and  O_6 
ROOT
HETATM    1  C   LIG     1      15.524  30.967  13.303  1.00  0.00     0.030 C 
ENDROOT
BRANCH   1   2
HETATM    2  C   LIG     1      15.167  29.898  14.364  1.00  0.00    -0.021 C 
HETATM    3  C   LIG     1      15.200  28.475  13.787  1.00  0.00     0.009 C 
HETATM    4  C   LIG     1      13.780  30.189  14.952  1.00  0.00     0.009 C 
ENDBRANCH   1   2
BRANCH   1   5
HETATM    5  C   LIG     1      16.168  32.228  13.895  1.00  0.00     0.164 C 
BRANCH   5   6
HETATM    6  O   LIG     1      16.371  33.187  12.894  1.00  0.00    -0.401 OA
HETATM    7  H   LIG     1      15.561  33.162  12.321  1.00  0.00     0.209 HD
ENDBRANCH   5   6
ENDBRANCH   1   5
TORSDOF 3
ENDMDL
MODEL 12
REMARK VINA RESULT:      -3.6      9.729     10.589
REMARK  3 active torsions:
REMARK  status: ('A' for Active; 'I' for Inactive)
REMARK    1  A    between atoms: C_2  and  C_4 
REMARK    2  A    between atoms: C_4  and  C_5 
REMARK    3  A    between atoms: C_5  and  O_6 
ROOT
HETATM    1  C   LIG     1      15.227  32.326  15.850  1.00  0.00     0.030 C 
ENDROOT
BRANCH   1   2
HETATM    2  C   LIG     1      14.208  31.219  16.211  1.00  0.00    -0.021 C 
HETATM    3  C   LIG     1      13.870  30.327  15.007  1.00  0.00     0.009 C 
HETATM    4  C   LIG     1      12.925  31.852  16.765  1.00  0.00     0.009 C 
ENDBRANCH   1   2
BRANCH   1   5
HETATM    5  C   LIG     1      15.114  33.576  16.732  1.00  0.00     0.164 C 
BRANCH   5   6
HETATM    6  O   LIG     1      15.989  34.573  16.280  1.00  0.00    -0.401 OA
HETATM    7  H   LIG     1      16.123  35.189  17.046  1.00  0.00     0.209 HD
ENDBRANCH   5   6
ENDBRANCH   1   5
TORSDOF 3
ENDMDL
MODEL 13
REMARK VINA RESULT:      -3.5     11.296     12.171
REMARK  3 active torsions:
REMARK  status: ('A' for Active; 'I' for Inactive)
REMARK    1  A    between atoms: C_2  and  C_4 
REMARK    2  A    between atoms: C_4  and  C_5 
REMARK    3  A    between atoms: C_5  and  O_6 
ROOT
HETATM    1  C   LIG     1      15.809  31.631  13.997  1.00  0.00     0.030 C 
ENDROOT
BRANCH   1   2
HETATM    2  C   LIG     1      14.723  30.557  14.240  1.00  0.00    -0.021 C 
HETATM    3  C   LIG     1      14.066  30.699  15.621  1.00  0.00     0.009 C 
HETATM    4  C   LIG     1      15.331  29.156  14.095  1.00  0.00     0.009 C 
ENDBRANCH   1   2
BRANCH   1   5
HETATM    5  C   LIG     1      16.291  32.319  15.281  1.00  0.00     0.164 C 
BRANCH   5   6
HETATM    6  O   LIG     1      17.690  32.318  15.339  1.00  0.00    -0.401 OA
HETATM    7  H   LIG     1      17.942  31.531  15.889  1.00  0.00     0.209 HD
ENDBRANCH   5   6
ENDBRANCH   1   5
TORSDOF 3
ENDMDL
MODEL 14
REMARK VINA RESULT:      -3.5      3.614      4.417
REMARK  3 active torsions:
REMARK  status: ('A' for Active; 'I' for Inactive)
REMARK    1  A    between atoms: C_2  and  C_4 
REMARK    2  A    between atoms: C_4  and  C_5 
REMARK    3  A    between atoms: C_5  and  O_6 
ROOT
HETATM    1  C   LIG     1      17.542  36.949  21.219  1.00  0.00     0.030 C 
ENDROOT
BRANCH   1   2
HETATM    2  C   LIG     1      17.928  38.268  21.931  1.00  0.00    -0.021 C 
HETATM    3  C   LIG     1      16.719  38.942  22.597  1.00  0.00     0.009 C 
HETATM    4  C   LIG     1      18.573  39.233  20.927  1.00  0.00     0.009 C 
ENDBRANCH   1   2
BRANCH   1   5
HETATM    5  C   LIG     1      16.464  36.145  21.958  1.00  0.00     0.164 C 
BRANCH   5   6
HETATM    6  O   LIG     1      17.056  35.180  22.783  1.00  0.00    -0.401 OA
HETATM    7  H   LIG     1      16.675  35.323  23.689  1.00  0.00     0.209 HD
ENDBRANCH   5   6
ENDBRANCH   1   5
TORSDOF 3
ENDMDL
MODEL 15
REMARK VINA RESULT:      -3.4     11.151     11.942
REMARK  3 active torsions:
REMARK  status: ('A' for Active; 'I' for Inactive)
REMARK    1  A    between atoms: C_2  and  C_4 
REMARK    2  A    between atoms: C_4  and  C_5 
REMARK    3  A    between atoms: C_5  and  O_6 
ROOT
HETATM    1  C   LIG     1      15.152  30.913  14.320  1.00  0.00     0.030 C 
ENDROOT
BRANCH   1   2
HETATM    2  C   LIG     1      14.458  30.811  15.699  1.00  0.00    -0.021 C 
HETATM    3  C   LIG     1      12.962  30.487  15.573  1.00  0.00     0.009 C 
HETATM    4  C   LIG     1      14.642  32.122  16.475  1.00  0.00     0.009 C 
ENDBRANCH   1   2
BRANCH   1   5
HETATM    5  C   LIG     1      16.113  32.103  14.204  1.00  0.00     0.164 C 
BRANCH   5   6
HETATM    6  O   LIG     1      16.727  32.112  12.944  1.00  0.00    -0.401 OA
HETATM    7  H   LIG     1      16.600  31.201  12.570  1.00  0.00     0.209 HD
ENDBRANCH   5   6
ENDBRANCH   1   5
TORSDOF 3
ENDMDL
MODEL 16
REMARK VINA RESULT:      -3.4     10.345     11.252
REMARK  3 active torsions:
REMARK  status: ('A' for Active; 'I' for Inactive)
REMARK    1  A    between atoms: C_2  and  C_4 
REMARK    2  A    between atoms: C_4  and  C_5 
REMARK    3  A    between atoms: C_5  and  O_6 
ROOT
HETATM    1  C   LIG     1      14.937  32.219  16.175  1.00  0.00     0.030 C 
ENDROOT
BRANCH   1   2
HETATM    2  C   LIG     1      15.378  31.202  15.096  1.00  0.00    -0.021 C 
HETATM    3  C   LIG     1      15.920  31.891  13.835  1.00  0.00     0.009 C 
HETATM    4  C   LIG     1      14.201  30.291  14.725  1.00  0.00     0.009 C 
ENDBRANCH   1   2
BRANCH   1   5
HETATM    5  C   LIG     1      13.654  31.815  16.912  1.00  0.00     0.164 C 
BRANCH   5   6
HETATM    6  O   LIG     1      13.851  31.865  18.297  1.00  0.00    -0.401 OA
HETATM    7  H   LIG     1      13.768  32.820  18.553  1.00  0.00     0.209 HD
ENDBRANCH   5   6
ENDBRANCH   1   5
TORSDOF 3
ENDMDL
MODEL 17
REMARK VINA RESULT:      -3.4     12.074     12.957
REMARK  3 active torsions:
REMARK  status: ('A' for Active; 'I' for Inactive)
REMARK    1  A    between atoms: C_2  and  C_4 
REMARK    2  A    between atoms: C_4  and  C_5 
REMARK    3  A    between atoms: C_5  and  O_6 
ROOT
HETATM    1  C   LIG     1      14.100  29.837  14.260  1.00  0.00     0.030 C 
ENDROOT
BRANCH   1   2
HETATM    2  C   LIG     1      14.313  30.566  15.608  1.00  0.00    -0.021 C 
HETATM    3  C   LIG     1      12.986  30.984  16.258  1.00  0.00     0.009 C 
HETATM    4  C   LIG     1      15.200  31.800  15.398  1.00  0.00     0.009 C 
ENDBRANCH   1   2
BRANCH   1   5
HETATM    5  C   LIG     1      15.216  28.842  13.917  1.00  0.00     0.164 C 
BRANCH   5   6
HETATM    6  O   LIG     1      14.683  27.709  13.288  1.00  0.00    -0.401 OA
HETATM    7  H   LIG     1      14.341  27.126  14.015  1.00  0.00     0.209 HD
ENDBRANCH   5   6
ENDBRANCH   1   5
TORSDOF 3
ENDMDL
MODEL 18
REMARK VINA RESULT:      -3.4     12.207     13.113
REMARK  3 active torsions:
REMARK  status: ('A' for Active; 'I' for Inactive)
REMARK    1  A    between atoms: C_2  and  C_4 
REMARK    2  A    between atoms: C_4  and  C_5 
REMARK    3  A    between atoms: C_5  and  O_6 
ROOT
HETATM    1  C   LIG     1      13.514  30.130  14.938  1.00  0.00     0.030 C 
ENDROOT
BRANCH   1   2
HETATM    2  C   LIG     1      14.964  30.668  14.935  1.00  0.00    -0.021 C 
HETATM    3  C   LIG     1      15.104  31.965  15.746  1.00  0.00     0.009 C 
HETATM    4  C   LIG     1      15.430  30.905  13.493  1.00  0.00     0.009 C 
ENDBRANCH   1   2
BRANCH   1   5
HETATM    5  C   LIG     1      13.346  28.812  14.171  1.00  0.00     0.164 C 
BRANCH   5   6
HETATM    6  O   LIG     1      12.050  28.714  13.649  1.00  0.00    -0.401 OA
HETATM    7  H   LIG     1      11.447  28.603  14.429  1.00  0.00     0.209 HD
ENDBRANCH   5   6
ENDBRANCH   1   5
TORSDOF 3
ENDMDL
MODEL 19
REMARK VINA RESULT:      -3.3      3.519      4.258
REMARK  3 active torsions:
REMARK  status: ('A' for Active; 'I' for Inactive)
REMARK    1  A    between atoms: C_2  and  C_4 
REMARK    2  A    between atoms: C_4  and  C_5 
REMARK    3  A    between atoms: C_5  and  O_6 
ROOT
HETATM    1  C   LIG     1      17.030  35.815  22.113  1.00  0.00     0.030 C 
ENDROOT
BRANCH   1   2
HETATM    2  C   LIG     1      17.101  37.292  22.570  1.00  0.00    -0.021 C 
HETATM    3  C   LIG     1      15.712  37.875  22.866  1.00  0.00     0.009 C 
HETATM    4  C   LIG     1      17.802  38.136  21.497  1.00  0.00     0.009 C 
ENDBRANCH   1   2
BRANCH   1   5
HETATM    5  C   LIG     1      15.920  35.543  21.088  1.00  0.00     0.164 C 
BRANCH   5   6
HETATM    6  O   LIG     1      16.472  35.329  19.818  1.00  0.00    -0.401 OA
HETATM    7  H   LIG     1      17.165  34.628  19.934  1.00  0.00     0.209 HD
ENDBRANCH   5   6
ENDBRANCH   1   5
TORSDOF 3
ENDMDL
MODEL 20
REMARK VINA RESULT:      -3.3      3.355      4.256
REMARK  3 active torsions:
REMARK  status: ('A' for Active; 'I' for Inactive)
REMARK    1  A    between atoms: C_2  and  C_4 
REMARK    2  A    between atoms: C_4  and  C_5 
REMARK    3  A    between atoms: C_5  and  O_6 
ROOT
HETATM    1  C   LIG     1      17.717  37.504  21.334  1.00  0.00     0.030 C 
ENDROOT
BRANCH   1   2
HETATM    2  C   LIG     1      16.720  36.826  22.304  1.00  0.00    -0.021 C 
HETATM    3  C   LIG     1      16.840  37.373  23.734  1.00  0.00     0.009 C 
HETATM    4  C   LIG     1      16.945  35.309  22.307  1.00  0.00     0.009 C 
ENDBRANCH   1   2
BRANCH   1   5
HETATM    5  C   LIG     1      18.187  36.587  20.197  1.00  0.00     0.164 C 
BRANCH   5   6
HETATM    6  O   LIG     1      18.779  37.341  19.176  1.00  0.00    -0.401 OA
HETATM    7  H   LIG     1      19.728  37.056  19.137  1.00  0.00     0.209 HD
ENDBRANCH   5   6
ENDBRANCH   1   5
TORSDOF 3
ENDMDL
