MODEL 1
REMARK VINA RESULT:      -5.7      0.000      0.000
REMARK  2 active torsions:
REMARK  status: ('A' for Active; 'I' for Inactive)
REMARK    1  A    between atoms: O_1  and  C_2 
REMARK    2  A    between atoms: C_5  and  O_6 
ROOT
HETATM    1  C   LIG     1      17.689  37.398  21.191  1.00  0.00     0.065 A 
HETATM    2  C   LIG     1      18.390  36.749  20.169  1.00  0.00     0.039 A 
HETATM    3  C   LIG     1      19.377  37.431  19.449  1.00  0.00     0.039 A 
HETATM    4  C   LIG     1      19.667  38.770  19.749  1.00  0.00     0.065 A 
HETATM    5  C   LIG     1      18.966  39.419  20.771  1.00  0.00     0.039 A 
HETATM    6  C   LIG     1      17.979  38.737  21.491  1.00  0.00     0.039 A 
ENDROOT
BRANCH   1   7
HETATM    7  O   LIG     1      16.710  36.707  21.900  1.00  0.00    -0.361 OA
HETATM    8  H   LIG     1      16.805  36.524  22.892  1.00  0.00     0.217 HD
ENDBRANCH   1   7
BRANCH   4   9
HETATM    9  O   LIG     1      20.646  39.462  19.040  1.00  0.00    -0.361 OA
HETATM   10  H   LIG     1      21.285  38.983  18.416  1.00  0.00     0.217 HD
ENDBRANCH   4   9
TORSDOF 2
ENDMDL
MODEL 2
REMARK VINA RESULT:      -5.6      0.013      3.281
REMARK  2 active torsions:
REMARK  status: ('A' for Active; 'I' for Inactive)
REMARK    1  A    between atoms: O_1  and  C_2 
REMARK    2  A    between atoms: C_5  and  O_6 
ROOT
HETATM    1  C   LIG     1      19.671  38.775  19.757  1.00  0.00     0.065 A 
HETATM    2  C   LIG     1      19.381  37.441  19.451  1.00  0.00     0.039 A 
HETATM    3  C   LIG     1      18.393  36.753  20.164  1.00  0.00     0.039 A 
HETATM    4  C   LIG     1      17.689  37.400  21.190  1.00  0.00     0.065 A 
HETATM    5  C   LIG     1      17.979  38.734  21.497  1.00  0.00     0.039 A 
HETATM    6  C   LIG     1      18.967  39.422  20.784  1.00  0.00     0.039 A 
ENDROOT
BRANCH   1   7
HETATM    7  O   LIG     1      20.657  39.447  19.039  1.00  0.00    -0.361 OA
HETATM    8  H   LIG     1      21.605  39.527  19.389  1.00  0.00     0.217 HD
ENDBRANCH   1   7
BRANCH   4   9
HETATM    9  O   LIG     1      16.703  36.728  21.908  1.00  0.00    -0.361 OA
HETATM   10  H   LIG     1      15.791  36.540  21.507  1.00  0.00     0.217 HD
ENDBRANCH   4   9
TORSDOF 2
ENDMDL
MODEL 3
REMARK VINA RESULT:      -5.6      0.030      1.713
REMARK  2 active torsions:
REMARK  status: ('A' for Active; 'I' for Inactive)
REMARK    1  A    between atoms: O_1  and  C_2 
REMARK    2  A    between atoms: C_5  and  O_6 
ROOT
HETATM    1  C   LIG     1      17.699  37.374  21.208  1.00  0.00     0.065 A 
HETATM    2  C   LIG     1      17.989  38.706  21.525  1.00  0.00     0.039 A 
HETATM    3  C   LIG     1      18.965  39.404  20.805  1.00  0.00     0.039 A 
HETATM    4  C   LIG     1      19.656  38.771  19.762  1.00  0.00     0.065 A 
HETATM    5  C   LIG     1      19.366  37.439  19.445  1.00  0.00     0.039 A 
HETATM    6  C   LIG     1      18.390  36.741  20.166  1.00  0.00     0.039 A 
ENDROOT
BRANCH   1   7
HETATM    7  O   LIG     1      16.725  36.692  21.933  1.00  0.00    -0.361 OA
HETATM    8  H   LIG     1      16.287  37.104  22.749  1.00  0.00     0.217 HD
ENDBRANCH   1   7
BRANCH   4   9
HETATM    9  O   LIG     1      20.630  39.453  19.037  1.00  0.00    -0.361 OA
HETATM   10  H   LIG     1      20.596  39.507  18.025  1.00  0.00     0.217 HD
ENDBRANCH   4   9
TORSDOF 2
ENDMDL
MODEL 4
REMARK VINA RESULT:      -5.2      1.974      2.562
REMARK  2 active torsions:
REMARK  status: ('A' for Active; 'I' for Inactive)
REMARK    1  A    between atoms: O_1  and  C_2 
REMARK    2  A    between atoms: C_5  and  O_6 
ROOT
HETATM    1  C   LIG     1      16.676  37.609  22.947  1.00  0.00     0.065 A 
HETATM    2  C   LIG     1      16.572  36.306  22.448  1.00  0.00     0.039 A 
HETATM    3  C   LIG     1      17.248  35.943  21.278  1.00  0.00     0.039 A 
HETATM    4  C   LIG     1      18.034  36.886  20.600  1.00  0.00     0.065 A 
HETATM    5  C   LIG     1      18.139  38.189  21.098  1.00  0.00     0.039 A 
HETATM    6  C   LIG     1      17.462  38.552  22.268  1.00  0.00     0.039 A 
ENDROOT
BRANCH   1   7
HETATM    7  O   LIG     1      15.998  37.956  24.112  1.00  0.00    -0.361 OA
HETATM    8  H   LIG     1      15.391  38.766  24.150  1.00  0.00     0.217 HD
ENDBRANCH   1   7
BRANCH   4   9
HETATM    9  O   LIG     1      18.712  36.539  19.434  1.00  0.00    -0.361 OA
HETATM   10  H   LIG     1      18.216  36.244  18.601  1.00  0.00     0.217 HD
ENDBRANCH   4   9
TORSDOF 2
ENDMDL
MODEL 5
REMARK VINA RESULT:      -5.1      4.385      5.504
REMARK  2 active torsions:
REMARK  status: ('A' for Active; 'I' for Inactive)
REMARK    1  A    between atoms: O_1  and  C_2 
REMARK    2  A    between atoms: C_5  and  O_6 
ROOT
HETATM    1  C   LIG     1      17.962  35.577  25.749  1.00  0.00     0.065 A 
HETATM    2  C   LIG     1      18.002  36.902  26.197  1.00  0.00     0.039 A 
HETATM    3  C   LIG     1      17.442  37.925  25.423  1.00  0.00     0.039 A 
HETATM    4  C   LIG     1      16.839  37.624  24.193  1.00  0.00     0.065 A 
HETATM    5  C   LIG     1      16.800  36.299  23.744  1.00  0.00     0.039 A 
HETATM    6  C   LIG     1      17.359  35.277  24.519  1.00  0.00     0.039 A 
ENDROOT
BRANCH   1   7
HETATM    7  O   LIG     1      18.523  34.570  26.530  1.00  0.00    -0.361 OA
HETATM    8  H   LIG     1      19.344  34.059  26.226  1.00  0.00     0.217 HD
ENDBRANCH   1   7
BRANCH   4   9
HETATM    9  O   LIG     1      16.279  38.632  23.411  1.00  0.00    -0.361 OA
HETATM   10  H   LIG     1      15.985  38.460  22.456  1.00  0.00     0.217 HD
ENDBRANCH   4   9
TORSDOF 2
ENDMDL
MODEL 6
REMARK VINA RESULT:      -5.1      1.945      3.667
REMARK  2 active torsions:
REMARK  status: ('A' for Active; 'I' for Inactive)
REMARK    1  A    between atoms: O_1  and  C_2 
REMARK    2  A    between atoms: C_5  and  O_6 
ROOT
HETATM    1  C   LIG     1      18.071  36.901  20.577  1.00  0.00     0.065 A 
HETATM    2  C   LIG     1      17.240  35.963  21.199  1.00  0.00     0.039 A 
HETATM    3  C   LIG     1      16.503  36.318  22.334  1.00  0.00     0.039 A 
HETATM    4  C   LIG     1      16.595  37.618  22.853  1.00  0.00     0.065 A 
HETATM    5  C   LIG     1      17.426  38.556  22.231  1.00  0.00     0.039 A 
HETATM    6  C   LIG     1      18.163  38.201  21.095  1.00  0.00     0.039 A 
ENDROOT
BRANCH   1   7
HETATM    7  O   LIG     1      18.798  36.534  19.447  1.00  0.00    -0.361 OA
HETATM    8  H   LIG     1      19.291  35.649  19.400  1.00  0.00     0.217 HD
ENDBRANCH   1   7
BRANCH   4   9
HETATM    9  O   LIG     1      15.868  37.985  23.983  1.00  0.00    -0.361 OA
HETATM   10  H   LIG     1      16.068  38.842  24.486  1.00  0.00     0.217 HD
ENDBRANCH   4   9
TORSDOF 2
ENDMDL
MODEL 7
REMARK VINA RESULT:      -5.1      1.945      3.924
REMARK  2 active torsions:
REMARK  status: ('A' for Active; 'I' for Inactive)
REMARK    1  A    between atoms: O_1  and  C_2 
REMARK    2  A    between atoms: C_5  and  O_6 
ROOT
HETATM    1  C   LIG     1      18.064  36.894  20.577  1.00  0.00     0.065 A 
HETATM    2  C   LIG     1      18.164  38.193  21.086  1.00  0.00     0.039 A 
HETATM    3  C   LIG     1      17.429  38.565  22.218  1.00  0.00     0.039 A 
HETATM    4  C   LIG     1      16.588  37.634  22.846  1.00  0.00     0.065 A 
HETATM    5  C   LIG     1      16.488  36.334  22.336  1.00  0.00     0.039 A 
HETATM    6  C   LIG     1      17.223  35.963  21.205  1.00  0.00     0.039 A 
ENDROOT
BRANCH   1   7
HETATM    7  O   LIG     1      18.801  36.539  19.450  1.00  0.00    -0.361 OA
HETATM    8  H   LIG     1      19.732  36.906  19.289  1.00  0.00     0.217 HD
ENDBRANCH   1   7
BRANCH   4   9
HETATM    9  O   LIG     1      15.851  37.989  23.972  1.00  0.00    -0.361 OA
HETATM   10  H   LIG     1      16.146  37.722  24.904  1.00  0.00     0.217 HD
ENDBRANCH   4   9
TORSDOF 2
ENDMDL
MODEL 8
REMARK VINA RESULT:      -5.1      4.319      5.814
REMARK  2 active torsions:
REMARK  status: ('A' for Active; 'I' for Inactive)
REMARK    1  A    between atoms: O_1  and  C_2 
REMARK    2  A    between atoms: C_5  and  O_6 
ROOT
HETATM    1  C   LIG     1      16.866  37.692  24.141  1.00  0.00     0.065 A 
HETATM    2  C   LIG     1      17.447  37.977  25.381  1.00  0.00     0.039 A 
HETATM    3  C   LIG     1      17.970  36.944  26.168  1.00  0.00     0.039 A 
HETATM    4  C   LIG     1      17.913  35.618  25.714  1.00  0.00     0.065 A 
HETATM    5  C   LIG     1      17.333  35.334  24.474  1.00  0.00     0.039 A 
HETATM    6  C   LIG     1      16.810  36.366  23.687  1.00  0.00     0.039 A 
ENDROOT
BRANCH   1   7
HETATM    7  O   LIG     1      16.350  38.730  23.368  1.00  0.00    -0.361 OA
HETATM    8  H   LIG     1      16.956  39.349  22.842  1.00  0.00     0.217 HD
ENDBRANCH   1   7
BRANCH   4   9
HETATM    9  O   LIG     1      18.429  34.581  26.487  1.00  0.00    -0.361 OA
HETATM   10  H   LIG     1      17.917  34.202  27.275  1.00  0.00     0.217 HD
ENDBRANCH   4   9
TORSDOF 2
ENDMDL
MODEL 9
REMARK VINA RESULT:      -5.0      3.743      4.773
REMARK  2 active torsions:
REMARK  status: ('A' for Active; 'I' for Inactive)
REMARK    1  A    between atoms: O_1  and  C_2 
REMARK    2  A    between atoms: C_5  and  O_6 
ROOT
HETATM    1  C   LIG     1      17.163  37.631  24.734  1.00  0.00     0.065 A 
HETATM    2  C   LIG     1      16.868  38.023  23.424  1.00  0.00     0.039 A 
HETATM    3  C   LIG     1      16.731  37.062  22.415  1.00  0.00     0.039 A 
HETATM    4  C   LIG     1      16.889  35.701  22.715  1.00  0.00     0.065 A 
HETATM    5  C   LIG     1      17.184  35.309  24.026  1.00  0.00     0.039 A 
HETATM    6  C   LIG     1      17.321  36.270  25.034  1.00  0.00     0.039 A 
ENDROOT
BRANCH   1   7
HETATM    7  O   LIG     1      17.297  38.597  25.728  1.00  0.00    -0.361 OA
HETATM    8  H   LIG     1      18.054  38.564  26.401  1.00  0.00     0.217 HD
ENDBRANCH   1   7
BRANCH   4   9
HETATM    9  O   LIG     1      16.756  34.735  21.722  1.00  0.00    -0.361 OA
HETATM   10  H   LIG     1      17.478  34.044  21.555  1.00  0.00     0.217 HD
ENDBRANCH   4   9
TORSDOF 2
ENDMDL
MODEL 10
REMARK VINA RESULT:      -4.9      8.849     10.265
REMARK  2 active torsions:
REMARK  status: ('A' for Active; 'I' for Inactive)
REMARK    1  A    between atoms: O_1  and  C_2 
REMARK    2  A    between atoms: C_5  and  O_6 
ROOT
HETATM    1  C   LIG     1      14.777  30.325  14.269  1.00  0.00     0.065 A 
HETATM    2  C   LIG     1      15.508  31.355  14.870  1.00  0.00     0.039 A 
HETATM    3  C   LIG     1      15.035  31.968  16.035  1.00  0.00     0.039 A 
HETATM    4  C   LIG     1      13.824  31.551  16.606  1.00  0.00     0.065 A 
HETATM    5  C   LIG     1      13.092  30.520  16.006  1.00  0.00     0.039 A 
HETATM    6  C   LIG     1      13.566  29.907  14.840  1.00  0.00     0.039 A 
ENDROOT
BRANCH   1   7
HETATM    7  O   LIG     1      15.260  29.724  13.110  1.00  0.00    -0.361 OA
HETATM    8  H   LIG     1      16.253  29.682  12.909  1.00  0.00     0.217 HD
ENDBRANCH   1   7
BRANCH   4   9
HETATM    9  O   LIG     1      13.340  32.152  17.766  1.00  0.00    -0.361 OA
HETATM   10  H   LIG     1      12.807  33.014  17.733  1.00  0.00     0.217 HD
ENDBRANCH   4   9
TORSDOF 2
ENDMDL
MODEL 11
REMARK VINA RESULT:      -4.8      8.084      9.157
REMARK  2 active torsions:
REMARK  status: ('A' for Active; 'I' for Inactive)
REMARK    1  A    between atoms: O_1  and  C_2 
REMARK    2  A    between atoms: C_5  and  O_6 
ROOT
HETATM    1  C   LIG     1      14.153  31.750  16.792  1.00  0.00     0.065 A 
HETATM    2  C   LIG     1      15.198  32.633  16.501  1.00  0.00     0.039 A 
HETATM    3  C   LIG     1      15.927  32.495  15.315  1.00  0.00     0.039 A 
HETATM    4  C   LIG     1      15.613  31.469  14.413  1.00  0.00     0.065 A 
HETATM    5  C   LIG     1      14.568  30.585  14.703  1.00  0.00     0.039 A 
HETATM    6  C   LIG     1      13.838  30.723  15.889  1.00  0.00     0.039 A 
ENDROOT
BRANCH   1   7
HETATM    7  O   LIG     1      13.435  31.900  17.976  1.00  0.00    -0.361 OA
HETATM    8  H   LIG     1      12.765  32.651  18.098  1.00  0.00     0.217 HD
ENDBRANCH   1   7
BRANCH   4   9
HETATM    9  O   LIG     1      16.331  31.319  13.229  1.00  0.00    -0.361 OA
HETATM   10  H   LIG     1      16.589  30.403  12.878  1.00  0.00     0.217 HD
ENDBRANCH   4   9
TORSDOF 2
ENDMDL
MODEL 12
REMARK VINA RESULT:      -4.8      8.761     10.193
REMARK  2 active torsions:
REMARK  status: ('A' for Active; 'I' for Inactive)
REMARK    1  A    between atoms: O_1  and  C_2 
REMARK    2  A    between atoms: C_5  and  O_6 
ROOT
HETATM    1  C   LIG     1      15.703  31.502  14.478  1.00  0.00     0.065 A 
HETATM    2  C   LIG     1      14.905  30.446  14.025  1.00  0.00     0.039 A 
HETATM    3  C   LIG     1      13.793  30.035  14.767  1.00  0.00     0.039 A 
HETATM    4  C   LIG     1      13.474  30.681  15.971  1.00  0.00     0.065 A 
HETATM    5  C   LIG     1      14.272  31.736  16.424  1.00  0.00     0.039 A 
HETATM    6  C   LIG     1      15.384  32.148  15.682  1.00  0.00     0.039 A 
ENDROOT
BRANCH   1   7
HETATM    7  O   LIG     1      16.807  31.901  13.729  1.00  0.00    -0.361 OA
HETATM    8  H   LIG     1      17.732  31.962  14.140  1.00  0.00     0.217 HD
ENDBRANCH   1   7
BRANCH   4   9
HETATM    9  O   LIG     1      12.370  30.282  16.720  1.00  0.00    -0.361 OA
HETATM   10  H   LIG     1      12.261  29.324  17.034  1.00  0.00     0.217 HD
ENDBRANCH   4   9
TORSDOF 2
ENDMDL
MODEL 13
REMARK VINA RESULT:      -4.8      8.691      9.735
REMARK  2 active torsions:
REMARK  status: ('A' for Active; 'I' for Inactive)
REMARK    1  A    between atoms: O_1  and  C_2 
REMARK    2  A    between atoms: C_5  and  O_6 
ROOT
HETATM    1  C   LIG     1      13.458  30.694  16.006  1.00  0.00     0.065 A 
HETATM    2  C   LIG     1      14.228  31.753  16.498  1.00  0.00     0.039 A 
HETATM    3  C   LIG     1      15.356  32.190  15.794  1.00  0.00     0.039 A 
HETATM    4  C   LIG     1      15.718  31.567  14.591  1.00  0.00     0.065 A 
HETATM    5  C   LIG     1      14.948  30.507  14.099  1.00  0.00     0.039 A 
HETATM    6  C   LIG     1      13.820  30.070  14.803  1.00  0.00     0.039 A 
ENDROOT
BRANCH   1   7
HETATM    7  O   LIG     1      12.338  30.269  16.717  1.00  0.00    -0.361 OA
HETATM    8  H   LIG     1      12.392  30.041  17.703  1.00  0.00     0.217 HD
ENDBRANCH   1   7
BRANCH   4   9
HETATM    9  O   LIG     1      16.838  31.991  13.880  1.00  0.00    -0.361 OA
HETATM   10  H   LIG     1      17.629  31.377  13.722  1.00  0.00     0.217 HD
ENDBRANCH   4   9
TORSDOF 2
ENDMDL
MODEL 14
REMARK VINA RESULT:      -4.8      8.388      9.775
REMARK  2 active torsions:
REMARK  status: ('A' for Active; 'I' for Inactive)
REMARK    1  A    between atoms: O_1  and  C_2 
REMARK    2  A    between atoms: C_5  and  O_6 
ROOT
HETATM    1  C   LIG     1      15.257  30.925  14.361  1.00  0.00     0.065 A 
HETATM    2  C   LIG     1      14.124  30.246  14.822  1.00  0.00     0.039 A 
HETATM    3  C   LIG     1      13.528  30.611  16.034  1.00  0.00     0.039 A 
HETATM    4  C   LIG     1      14.065  31.661  16.792  1.00  0.00     0.065 A 
HETATM    5  C   LIG     1      15.198  32.341  16.332  1.00  0.00     0.039 A 
HETATM    6  C   LIG     1      15.794  31.976  15.120  1.00  0.00     0.039 A 
ENDROOT
BRANCH   1   7
HETATM    7  O   LIG     1      15.840  30.552  13.153  1.00  0.00    -0.361 OA
HETATM    8  H   LIG     1      16.824  30.709  12.969  1.00  0.00     0.217 HD
ENDBRANCH   1   7
BRANCH   4   9
HETATM    9  O   LIG     1      13.483  32.035  18.001  1.00  0.00    -0.361 OA
HETATM   10  H   LIG     1      13.348  31.368  18.752  1.00  0.00     0.217 HD
ENDBRANCH   4   9
TORSDOF 2
ENDMDL
MODEL 15
REMARK VINA RESULT:      -4.8      8.700      9.605
REMARK  2 active torsions:
REMARK  status: ('A' for Active; 'I' for Inactive)
REMARK    1  A    between atoms: O_1  and  C_2 
REMARK    2  A    between atoms: C_5  and  O_6 
ROOT
HETATM    1  C   LIG     1      13.457  30.698  16.011  1.00  0.00     0.065 A 
HETATM    2  C   LIG     1      13.804  30.066  14.812  1.00  0.00     0.039 A 
HETATM    3  C   LIG     1      14.929  30.488  14.094  1.00  0.00     0.039 A 
HETATM    4  C   LIG     1      15.713  31.547  14.575  1.00  0.00     0.065 A 
HETATM    5  C   LIG     1      15.366  32.179  15.774  1.00  0.00     0.039 A 
HETATM    6  C   LIG     1      14.241  31.757  16.492  1.00  0.00     0.039 A 
ENDROOT
BRANCH   1   7
HETATM    7  O   LIG     1      12.335  30.268  16.716  1.00  0.00    -0.361 OA
HETATM    8  H   LIG     1      12.341  30.193  17.727  1.00  0.00     0.217 HD
ENDBRANCH   1   7
BRANCH   4   9
HETATM    9  O   LIG     1      16.835  31.977  13.871  1.00  0.00    -0.361 OA
HETATM   10  H   LIG     1      17.120  31.531  13.006  1.00  0.00     0.217 HD
ENDBRANCH   4   9
TORSDOF 2
ENDMDL
MODEL 16
REMARK VINA RESULT:      -4.8      8.759     10.320
REMARK  2 active torsions:
REMARK  status: ('A' for Active; 'I' for Inactive)
REMARK    1  A    between atoms: O_1  and  C_2 
REMARK    2  A    between atoms: C_5  and  O_6 
ROOT
HETATM    1  C   LIG     1      15.714  31.504  14.459  1.00  0.00     0.065 A 
HETATM    2  C   LIG     1      15.402  32.156  15.657  1.00  0.00     0.039 A 
HETATM    3  C   LIG     1      14.295  31.751  16.411  1.00  0.00     0.039 A 
HETATM    4  C   LIG     1      13.493  30.690  15.967  1.00  0.00     0.065 A 
HETATM    5  C   LIG     1      13.805  30.038  14.769  1.00  0.00     0.039 A 
HETATM    6  C   LIG     1      14.912  30.442  14.015  1.00  0.00     0.039 A 
ENDROOT
BRANCH   1   7
HETATM    7  O   LIG     1      16.819  31.917  13.718  1.00  0.00    -0.361 OA
HETATM    8  H   LIG     1      17.473  32.602  14.080  1.00  0.00     0.217 HD
ENDBRANCH   1   7
BRANCH   4   9
HETATM    9  O   LIG     1      12.388  30.277  16.707  1.00  0.00    -0.361 OA
HETATM   10  H   LIG     1      12.308  29.328  17.054  1.00  0.00     0.217 HD
ENDBRANCH   4   9
TORSDOF 2
ENDMDL
MODEL 17
REMARK VINA RESULT:      -4.8      1.540      3.646
REMARK  2 active torsions:
REMARK  status: ('A' for Active; 'I' for Inactive)
REMARK    1  A    between atoms: O_1  and  C_2 
REMARK    2  A    between atoms: C_5  and  O_6 
ROOT
HETATM    1  C   LIG     1      18.347  38.730  21.249  1.00  0.00     0.065 A 
HETATM    2  C   LIG     1      17.380  38.321  22.174  1.00  0.00     0.039 A 
HETATM    3  C   LIG     1      16.812  37.046  22.081  1.00  0.00     0.039 A 
HETATM    4  C   LIG     1      17.210  36.172  21.059  1.00  0.00     0.065 A 
HETATM    5  C   LIG     1      18.177  36.580  20.134  1.00  0.00     0.039 A 
HETATM    6  C   LIG     1      18.745  37.856  20.227  1.00  0.00     0.039 A 
ENDROOT
BRANCH   1   7
HETATM    7  O   LIG     1      18.904  40.002  21.353  1.00  0.00    -0.361 OA
HETATM    8  H   LIG     1      19.893  40.161  21.194  1.00  0.00     0.217 HD
ENDBRANCH   1   7
BRANCH   4   9
HETATM    9  O   LIG     1      16.653  34.900  20.955  1.00  0.00    -0.361 OA
HETATM   10  H   LIG     1      17.217  34.093  20.711  1.00  0.00     0.217 HD
ENDBRANCH   4   9
TORSDOF 2
ENDMDL
MODEL 18
REMARK VINA RESULT:      -4.8      8.789      9.849
REMARK  2 active torsions:
REMARK  status: ('A' for Active; 'I' for Inactive)
REMARK    1  A    between atoms: O_1  and  C_2 
REMARK    2  A    between atoms: C_5  and  O_6 
ROOT
HETATM    1  C   LIG     1      13.504  30.026  14.894  1.00  0.00     0.065 A 
HETATM    2  C   LIG     1      14.694  30.354  14.234  1.00  0.00     0.039 A 
HETATM    3  C   LIG     1      15.537  31.344  14.752  1.00  0.00     0.039 A 
HETATM    4  C   LIG     1      15.191  32.012  15.935  1.00  0.00     0.065 A 
HETATM    5  C   LIG     1      14.002  31.685  16.595  1.00  0.00     0.039 A 
HETATM    6  C   LIG     1      13.159  30.695  16.078  1.00  0.00     0.039 A 
ENDROOT
BRANCH   1   7
HETATM    7  O   LIG     1      12.675  29.039  14.368  1.00  0.00    -0.361 OA
HETATM    8  H   LIG     1      12.666  28.099  14.747  1.00  0.00     0.217 HD
ENDBRANCH   1   7
BRANCH   4   9
HETATM    9  O   LIG     1      16.020  33.000  16.462  1.00  0.00    -0.361 OA
HETATM   10  H   LIG     1      16.696  32.792  17.188  1.00  0.00     0.217 HD
ENDBRANCH   4   9
TORSDOF 2
ENDMDL
MODEL 19
REMARK VINA RESULT:      -4.8      8.762     10.135
REMARK  2 active torsions:
REMARK  status: ('A' for Active; 'I' for Inactive)
REMARK    1  A    between atoms: O_1  and  C_2 
REMARK    2  A    between atoms: C_5  and  O_6 
ROOT
HETATM    1  C   LIG     1      15.111  32.036  16.035  1.00  0.00     0.065 A 
HETATM    2  C   LIG     1      15.498  31.404  14.848  1.00  0.00     0.039 A 
HETATM    3  C   LIG     1      14.693  30.407  14.287  1.00  0.00     0.039 A 
HETATM    4  C   LIG     1      13.494  30.037  14.913  1.00  0.00     0.065 A 
HETATM    5  C   LIG     1      13.107  30.669  16.100  1.00  0.00     0.039 A 
HETATM    6  C   LIG     1      13.912  31.666  16.661  1.00  0.00     0.039 A 
ENDROOT
BRANCH   1   7
HETATM    7  O   LIG     1      15.923  33.027  16.582  1.00  0.00    -0.361 OA
HETATM    8  H   LIG     1      16.486  33.633  15.997  1.00  0.00     0.217 HD
ENDBRANCH   1   7
BRANCH   4   9
HETATM    9  O   LIG     1      12.682  29.046  14.366  1.00  0.00    -0.361 OA
HETATM   10  H   LIG     1      12.717  28.090  14.700  1.00  0.00     0.217 HD
ENDBRANCH   4   9
TORSDOF 2
ENDMDL
MODEL 20
REMARK VINA RESULT:      -4.8      4.149      5.367
REMARK  2 active torsions:
REMARK  status: ('A' for Active; 'I' for Inactive)
REMARK    1  A    between atoms: O_1  and  C_2 
REMARK    2  A    between atoms: C_5  and  O_6 
ROOT
HETATM    1  C   LIG     1      16.865  35.809  23.447  1.00  0.00     0.065 A 
HETATM    2  C   LIG     1      17.153  37.173  23.566  1.00  0.00     0.039 A 
HETATM    3  C   LIG     1      17.803  37.658  24.707  1.00  0.00     0.039 A 
HETATM    4  C   LIG     1      18.167  36.777  25.736  1.00  0.00     0.065 A 
HETATM    5  C   LIG     1      17.879  35.413  25.616  1.00  0.00     0.039 A 
HETATM    6  C   LIG     1      17.229  34.928  24.475  1.00  0.00     0.039 A 
ENDROOT
BRANCH   1   7
HETATM    7  O   LIG     1      16.219  35.340  22.306  1.00  0.00    -0.361 OA
HETATM    8  H   LIG     1      16.060  35.939  21.503  1.00  0.00     0.217 HD
ENDBRANCH   1   7
BRANCH   4   9
HETATM    9  O   LIG     1      18.814  37.246  26.877  1.00  0.00    -0.361 OA
HETATM   10  H   LIG     1      18.304  37.708  27.621  1.00  0.00     0.217 HD
ENDBRANCH   4   9
TORSDOF 2
ENDMDL
