REMARK  10 active torsions:
REMARK  status: ('A' for Active; 'I' for Inactive)
REMARK    1  A    between atoms: C_2  and  C_4 
REMARK    2  A    between atoms: C_2  and  O_3 
REMARK    3  A    between atoms: C_4  and  C_5 
REMARK    4  A    between atoms: C_5  and  C_6 
REMARK    5  A    between atoms: C_6  and  C_7 
REMARK    6  A    between atoms: C_7  and  C_8 
REMARK    7  A    between atoms: C_8  and  C_9 
REMARK    8  A    between atoms: C_9  and  C_10 
REMARK    9  A    between atoms: C_10  and  C_11 
REMARK   10  A    between atoms: C_11  and  O_12 
ROOT
HETATM    1  C   LIG     1      -0.070   0.842  -1.015  1.00  0.00     0.000 C 
ENDROOT
BRANCH   1   2
HETATM    2  C   LIG     1       1.216   0.674  -0.185  1.00  0.00     0.001 C 
BRANCH   2   3
HETATM    3  C   LIG     1       1.778  -0.757  -0.233  1.00  0.00     0.010 C 
BRANCH   3   4
HETATM    4  C   LIG     1       3.131  -0.872   0.483  1.00  0.00     0.110 C 
BRANCH   4   5
HETATM    5  C   LIG     1       4.221  -0.174  -0.269  1.00  0.00     0.139 C 
HETATM    6  O   LIG     1       4.723  -0.707  -1.295  1.00  0.00    -0.650 OA
BRANCH   5   7
HETATM    7  O   LIG     1       4.661   1.078   0.149  1.00  0.00    -0.776 OA
HETATM    8  H   LIG     1       5.390   1.569  -0.356  1.00  0.00     0.167 HD
ENDBRANCH   5   7
ENDBRANCH   4   5
ENDBRANCH   3   4
ENDBRANCH   2   3
ENDBRANCH   1   2
BRANCH   1   9
HETATM    9  C   LIG     1      -1.260  -0.019  -0.555  1.00  0.00     0.001 C 
BRANCH   9  10
HETATM   10  C   LIG     1      -1.716   0.305   0.878  1.00  0.00     0.010 C 
BRANCH  10  11
HETATM   11  C   LIG     1      -2.996  -0.451   1.262  1.00  0.00     0.110 C 
BRANCH  11  12
HETATM   12  C   LIG     1      -4.191   0.043   0.503  1.00  0.00     0.139 C 
HETATM   13  O   LIG     1      -4.588   1.230   0.651  1.00  0.00    -0.650 OA
BRANCH  12  14
HETATM   14  O   LIG     1      -4.867  -0.814  -0.360  1.00  0.00    -0.776 OA
HETATM   15  H   LIG     1      -5.676  -0.496  -0.879  1.00  0.00     0.167 HD
ENDBRANCH  12  14
ENDBRANCH  11  12
ENDBRANCH  10  11
ENDBRANCH   9  10
ENDBRANCH   1   9
TORSDOF 10
