REMARK  2 active torsions:
REMARK  status: ('A' for Active; 'I' for Inactive)
REMARK    1  A    between atoms: C_2  and  C_3 
REMARK    2  A    between atoms: C_3  and  C_4 
ROOT
HETATM    1  C   LIG     1       0.705   0.491  -0.253  1.00  0.00     0.069 C 
ENDROOT
BRANCH   1   2
HETATM    2  C   LIG     1      -0.409  -0.512   0.067  1.00  0.00     0.002 C 
HETATM    3  C   LIG     1      -1.770   0.015  -0.381  1.00  0.00     0.005 C 
ENDBRANCH   1   2
BRANCH   1   4
HETATM    4  C   LIG     1       2.042  -0.026   0.186  1.00  0.00     0.231 C 
HETATM    5  O   LIG     1       3.044   0.648   0.007  1.00  0.00    -0.307 OA
ENDBRANCH   1   4
TORSDOF 2
