REMARK  0 active torsions:
REMARK  status: ('A' for Active; 'I' for Inactive)
ROOT
HETATM    1  O   LIG     1       1.970  -1.553  -0.278  1.00  0.00    -0.273 OA
HETATM    2  C   LIG     1       1.040  -0.716  -0.138  1.00  0.00     0.224 A 
HETATM    3  C   LIG     1      -0.405  -1.082  -0.055  1.00  0.00     0.112 A 
HETATM    4  C   LIG     1      -1.118   0.275   0.109  1.00  0.00     0.112 A 
HETATM    5  N   LIG     1       1.272   0.674  -0.045  1.00  0.00    -0.298 N 
HETATM    6  C   LIG     1      -0.002   1.266   0.101  1.00  0.00     0.224 A 
HETATM    7  O   LIG     1      -0.165   2.510   0.213  1.00  0.00    -0.273 OA
HETATM    8  H   LIG     1       2.194   1.163  -0.078  1.00  0.00     0.171 HD
ENDROOT
TORSDOF 0
