REMARK  1 active torsions:
REMARK  status: ('A' for Active; 'I' for Inactive)
REMARK    1  A    between atoms: C_2  and  C_3 
ROOT
HETATM    1  C   LIG     1      -1.150   0.188   0.048  1.00  0.00     0.012 C 
HETATM    2  C   LIG     1       0.164  -0.572   0.198  1.00  0.00     0.065 C 
ENDROOT
BRANCH   2   3
HETATM    3  C   LIG     1       1.341   0.356   0.142  1.00  0.00     0.230 C 
HETATM    4  O   LIG     1       2.472  -0.090   0.246  1.00  0.00    -0.307 OA
ENDBRANCH   2   3
TORSDOF 1
