MODEL 1
REMARK VINA RESULT:      -4.0      0.000      0.000
REMARK  0 active torsions:
REMARK  status: ('A' for Active; 'I' for Inactive)
ROOT
HETATM    1  C   LIG     1      17.305  36.580  24.856  1.00  0.00     0.269 C 
HETATM    2  C   LIG     1      17.310  35.097  25.160  1.00  0.00     0.032 C 
HETATM    3  C   LIG     1      18.344  34.953  26.248  1.00  0.00     0.032 C 
HETATM    4  C   LIG     1      18.355  36.303  26.947  1.00  0.00     0.269 C 
HETATM    5  N   LIG     1      17.708  37.287  26.072  1.00  0.00     0.083 N 
HETATM    6  H   LIG     1      16.843  37.634  26.549  1.00  0.00     0.315 HD
ENDROOT
TORSDOF 0
ENDMDL
MODEL 2
REMARK VINA RESULT:      -4.0      0.993      1.810
REMARK  0 active torsions:
REMARK  status: ('A' for Active; 'I' for Inactive)
ROOT
HETATM    1  C   LIG     1      17.659  37.233  25.712  1.00  0.00     0.269 C 
HETATM    2  C   LIG     1      18.501  36.313  26.571  1.00  0.00     0.032 C 
HETATM    3  C   LIG     1      17.954  34.940  26.275  1.00  0.00     0.032 C 
HETATM    4  C   LIG     1      17.381  35.050  24.871  1.00  0.00     0.269 C 
HETATM    5  N   LIG     1      17.211  36.471  24.547  1.00  0.00     0.083 N 
HETATM    6  H   LIG     1      17.840  36.703  23.743  1.00  0.00     0.315 HD
ENDROOT
TORSDOF 0
ENDMDL
MODEL 3
REMARK VINA RESULT:      -3.6      1.384      2.230
REMARK  0 active torsions:
REMARK  status: ('A' for Active; 'I' for Inactive)
ROOT
HETATM    1  C   LIG     1      17.370  38.087  25.807  1.00  0.00     0.269 C 
HETATM    2  C   LIG     1      18.175  36.831  26.062  1.00  0.00     0.032 C 
HETATM    3  C   LIG     1      17.538  35.802  25.163  1.00  0.00     0.032 C 
HETATM    4  C   LIG     1      16.937  36.610  24.023  1.00  0.00     0.269 C 
HETATM    5  N   LIG     1      16.847  38.013  24.443  1.00  0.00     0.083 N 
HETATM    6  H   LIG     1      17.469  38.583  23.823  1.00  0.00     0.315 HD
ENDROOT
TORSDOF 0
ENDMDL
MODEL 4
REMARK VINA RESULT:      -3.6      5.774      6.368
REMARK  0 active torsions:
REMARK  status: ('A' for Active; 'I' for Inactive)
ROOT
HETATM    1  C   LIG     1      20.107  38.670  19.582  1.00  0.00     0.269 C 
HETATM    2  C   LIG     1      19.207  37.465  19.410  1.00  0.00     0.032 C 
HETATM    3  C   LIG     1      18.334  37.485  20.639  1.00  0.00     0.032 C 
HETATM    4  C   LIG     1      18.284  38.948  21.048  1.00  0.00     0.269 C 
HETATM    5  N   LIG     1      19.383  39.657  20.383  1.00  0.00     0.083 N 
HETATM    6  H   LIG     1      18.972  40.367  19.733  1.00  0.00     0.315 HD
ENDROOT
TORSDOF 0
ENDMDL
MODEL 5
REMARK VINA RESULT:      -3.3      5.408      6.236
REMARK  0 active torsions:
REMARK  status: ('A' for Active; 'I' for Inactive)
ROOT
HETATM    1  C   LIG     1      18.089  37.041  20.571  1.00  0.00     0.269 C 
HETATM    2  C   LIG     1      19.177  37.025  19.518  1.00  0.00     0.032 C 
HETATM    3  C   LIG     1      19.443  38.485  19.249  1.00  0.00     0.032 C 
HETATM    4  C   LIG     1      19.058  39.188  20.540  1.00  0.00     0.269 C 
HETATM    5  N   LIG     1      18.228  38.279  21.338  1.00  0.00     0.083 N 
HETATM    6  H   LIG     1      18.739  38.058  22.224  1.00  0.00     0.315 HD
ENDROOT
TORSDOF 0
ENDMDL
MODEL 6
REMARK VINA RESULT:      -3.2      3.051      4.022
REMARK  0 active torsions:
REMARK  status: ('A' for Active; 'I' for Inactive)
ROOT
HETATM    1  C   LIG     1      17.786  38.242  24.228  1.00  0.00     0.269 C 
HETATM    2  C   LIG     1      18.127  38.667  22.816  1.00  0.00     0.032 C 
HETATM    3  C   LIG     1      17.129  37.926  21.962  1.00  0.00     0.032 C 
HETATM    4  C   LIG     1      15.932  37.710  22.875  1.00  0.00     0.269 C 
HETATM    5  N   LIG     1      16.361  37.913  24.263  1.00  0.00     0.083 N 
HETATM    6  H   LIG     1      15.845  38.737  24.651  1.00  0.00     0.315 HD
ENDROOT
TORSDOF 0
ENDMDL
MODEL 7
REMARK VINA RESULT:      -3.2      7.446      8.143
REMARK  0 active torsions:
REMARK  status: ('A' for Active; 'I' for Inactive)
ROOT
HETATM    1  C   LIG     1      15.058  32.916  17.771  1.00  0.00     0.269 C 
HETATM    2  C   LIG     1      14.458  31.696  18.438  1.00  0.00     0.032 C 
HETATM    3  C   LIG     1      15.094  31.679  19.805  1.00  0.00     0.032 C 
HETATM    4  C   LIG     1      15.432  33.135  20.087  1.00  0.00     0.269 C 
HETATM    5  N   LIG     1      15.401  33.875  18.821  1.00  0.00     0.083 N 
HETATM    6  H   LIG     1      14.635  34.587  18.874  1.00  0.00     0.315 HD
ENDROOT
TORSDOF 0
ENDMDL
MODEL 8
REMARK VINA RESULT:      -3.2     10.517     11.362
REMARK  0 active torsions:
REMARK  status: ('A' for Active; 'I' for Inactive)
ROOT
HETATM    1  C   LIG     1      14.241  32.192  17.365  1.00  0.00     0.269 C 
HETATM    2  C   LIG     1      14.941  32.003  16.035  1.00  0.00     0.032 C 
HETATM    3  C   LIG     1      14.295  30.770  15.456  1.00  0.00     0.032 C 
HETATM    4  C   LIG     1      12.907  30.739  16.076  1.00  0.00     0.269 C 
HETATM    5  N   LIG     1      12.899  31.623  17.247  1.00  0.00     0.083 N 
HETATM    6  H   LIG     1      12.228  32.405  17.064  1.00  0.00     0.315 HD
ENDROOT
TORSDOF 0
ENDMDL
MODEL 9
REMARK VINA RESULT:      -3.2      4.635      5.084
REMARK  0 active torsions:
REMARK  status: ('A' for Active; 'I' for Inactive)
ROOT
HETATM    1  C   LIG     1      15.179  36.733  22.009  1.00  0.00     0.269 C 
HETATM    2  C   LIG     1      16.660  36.434  21.917  1.00  0.00     0.032 C 
HETATM    3  C   LIG     1      16.720  34.932  21.791  1.00  0.00     0.032 C 
HETATM    4  C   LIG     1      15.395  34.550  21.152  1.00  0.00     0.269 C 
HETATM    5  N   LIG     1      14.465  35.675  21.296  1.00  0.00     0.083 N 
HETATM    6  H   LIG     1      14.225  36.029  20.340  1.00  0.00     0.315 HD
ENDROOT
TORSDOF 0
ENDMDL
MODEL 10
REMARK VINA RESULT:      -3.2      5.231      6.199
REMARK  0 active torsions:
REMARK  status: ('A' for Active; 'I' for Inactive)
ROOT
HETATM    1  C   LIG     1      17.821  37.490  21.278  1.00  0.00     0.269 C 
HETATM    2  C   LIG     1      18.040  38.988  21.239  1.00  0.00     0.032 C 
HETATM    3  C   LIG     1      19.313  39.149  20.447  1.00  0.00     0.032 C 
HETATM    4  C   LIG     1      19.361  37.924  19.548  1.00  0.00     0.269 C 
HETATM    5  N   LIG     1      18.433  36.919  20.078  1.00  0.00     0.083 N 
HETATM    6  H   LIG     1      17.678  36.762  19.370  1.00  0.00     0.315 HD
ENDROOT
TORSDOF 0
ENDMDL
MODEL 11
REMARK VINA RESULT:      -3.1      3.221      3.803
REMARK  0 active torsions:
REMARK  status: ('A' for Active; 'I' for Inactive)
ROOT
HETATM    1  C   LIG     1      17.355  36.327  21.000  1.00  0.00     0.269 C 
HETATM    2  C   LIG     1      16.723  35.084  21.591  1.00  0.00     0.032 C 
HETATM    3  C   LIG     1      16.932  35.242  23.076  1.00  0.00     0.032 C 
HETATM    4  C   LIG     1      17.012  36.744  23.293  1.00  0.00     0.269 C 
HETATM    5  N   LIG     1      17.270  37.390  22.001  1.00  0.00     0.083 N 
HETATM    6  H   LIG     1      16.449  37.995  21.765  1.00  0.00     0.315 HD
ENDROOT
TORSDOF 0
ENDMDL
MODEL 12
REMARK VINA RESULT:      -3.1      1.887      2.802
REMARK  0 active torsions:
REMARK  status: ('A' for Active; 'I' for Inactive)
ROOT
HETATM    1  C   LIG     1      16.929  37.129  22.972  1.00  0.00     0.269 C 
HETATM    2  C   LIG     1      17.516  38.336  23.673  1.00  0.00     0.032 C 
HETATM    3  C   LIG     1      17.393  38.000  25.138  1.00  0.00     0.032 C 
HETATM    4  C   LIG     1      17.412  36.481  25.184  1.00  0.00     0.269 C 
HETATM    5  N   LIG     1      17.126  35.969  23.839  1.00  0.00     0.083 N 
HETATM    6  H   LIG     1      17.968  35.447  23.500  1.00  0.00     0.315 HD
ENDROOT
TORSDOF 0
ENDMDL
MODEL 13
REMARK VINA RESULT:      -3.0      9.438     10.306
REMARK  0 active torsions:
REMARK  status: ('A' for Active; 'I' for Inactive)
ROOT
HETATM    1  C   LIG     1      14.895  32.315  18.394  1.00  0.00     0.269 C 
HETATM    2  C   LIG     1      15.221  32.961  17.064  1.00  0.00     0.032 C 
HETATM    3  C   LIG     1      14.823  31.921  16.048  1.00  0.00     0.032 C 
HETATM    4  C   LIG     1      13.732  31.114  16.735  1.00  0.00     0.269 C 
HETATM    5  N   LIG     1      13.796  31.376  18.177  1.00  0.00     0.083 N 
HETATM    6  H   LIG     1      12.905  31.844  18.466  1.00  0.00     0.315 HD
ENDROOT
TORSDOF 0
ENDMDL
MODEL 14
REMARK VINA RESULT:      -3.0     12.462     13.192
REMARK  0 active torsions:
REMARK  status: ('A' for Active; 'I' for Inactive)
ROOT
HETATM    1  C   LIG     1      15.623  31.329  13.719  1.00  0.00     0.269 C 
HETATM    2  C   LIG     1      15.287  31.511  15.184  1.00  0.00     0.032 C 
HETATM    3  C   LIG     1      14.062  30.656  15.385  1.00  0.00     0.032 C 
HETATM    4  C   LIG     1      14.174  29.573  14.324  1.00  0.00     0.269 C 
HETATM    5  N   LIG     1      15.142  30.009  13.312  1.00  0.00     0.083 N 
HETATM    6  H   LIG     1      15.953  29.347  13.325  1.00  0.00     0.315 HD
ENDROOT
TORSDOF 0
ENDMDL
MODEL 15
REMARK VINA RESULT:      -2.9     11.038     11.718
REMARK  0 active torsions:
REMARK  status: ('A' for Active; 'I' for Inactive)
ROOT
HETATM    1  C   LIG     1      14.225  30.374  15.007  1.00  0.00     0.269 C 
HETATM    2  C   LIG     1      13.110  30.699  15.978  1.00  0.00     0.032 C 
HETATM    3  C   LIG     1      13.782  31.543  17.032  1.00  0.00     0.032 C 
HETATM    4  C   LIG     1      14.950  32.197  16.311  1.00  0.00     0.269 C 
HETATM    5  N   LIG     1      15.201  31.462  15.067  1.00  0.00     0.083 N 
HETATM    6  H   LIG     1      15.022  32.106  14.262  1.00  0.00     0.315 HD
ENDROOT
TORSDOF 0
ENDMDL
MODEL 16
REMARK VINA RESULT:      -2.9      4.014      4.712
REMARK  0 active torsions:
REMARK  status: ('A' for Active; 'I' for Inactive)
ROOT
HETATM    1  C   LIG     1      17.779  37.390  21.213  1.00  0.00     0.269 C 
HETATM    2  C   LIG     1      18.020  38.757  21.818  1.00  0.00     0.032 C 
HETATM    3  C   LIG     1      16.758  39.037  22.595  1.00  0.00     0.032 C 
HETATM    4  C   LIG     1      16.218  37.662  22.956  1.00  0.00     0.269 C 
HETATM    5  N   LIG     1      16.864  36.666  22.094  1.00  0.00     0.083 N 
HETATM    6  H   LIG     1      17.430  36.025  22.698  1.00  0.00     0.315 HD
ENDROOT
TORSDOF 0
ENDMDL
MODEL 17
REMARK VINA RESULT:      -2.9      2.552      3.306
REMARK  0 active torsions:
REMARK  status: ('A' for Active; 'I' for Inactive)
ROOT
HETATM    1  C   LIG     1      17.000  35.543  23.191  1.00  0.00     0.269 C 
HETATM    2  C   LIG     1      16.779  36.601  22.130  1.00  0.00     0.032 C 
HETATM    3  C   LIG     1      16.201  37.765  22.893  1.00  0.00     0.032 C 
HETATM    4  C   LIG     1      16.739  37.603  24.305  1.00  0.00     0.269 C 
HETATM    5  N   LIG     1      17.228  36.228  24.463  1.00  0.00     0.083 N 
HETATM    6  H   LIG     1      18.260  36.263  24.634  1.00  0.00     0.315 HD
ENDROOT
TORSDOF 0
ENDMDL
MODEL 18
REMARK VINA RESULT:      -2.9     10.708     11.519
REMARK  0 active torsions:
REMARK  status: ('A' for Active; 'I' for Inactive)
ROOT
HETATM    1  C   LIG     1      14.287  32.366  16.793  1.00  0.00     0.269 C 
HETATM    2  C   LIG     1      13.707  30.973  16.677  1.00  0.00     0.032 C 
HETATM    3  C   LIG     1      14.040  30.556  15.267  1.00  0.00     0.032 C 
HETATM    4  C   LIG     1      15.290  31.349  14.920  1.00  0.00     0.269 C 
HETATM    5  N   LIG     1      15.422  32.455  15.874  1.00  0.00     0.083 N 
HETATM    6  H   LIG     1      16.300  32.312  16.426  1.00  0.00     0.315 HD
ENDROOT
TORSDOF 0
ENDMDL
MODEL 19
REMARK VINA RESULT:      -2.8     11.812     12.471
REMARK  0 active torsions:
REMARK  status: ('A' for Active; 'I' for Inactive)
ROOT
HETATM    1  C   LIG     1      15.708  31.429  13.462  1.00  0.00     0.269 C 
HETATM    2  C   LIG     1      15.561  31.599  14.959  1.00  0.00     0.032 C 
HETATM    3  C   LIG     1      16.811  32.340  15.364  1.00  0.00     0.032 C 
HETATM    4  C   LIG     1      17.215  33.115  14.121  1.00  0.00     0.269 C 
HETATM    5  N   LIG     1      16.522  32.538  12.964  1.00  0.00     0.083 N 
HETATM    6  H   LIG     1      15.878  33.263  12.570  1.00  0.00     0.315 HD
ENDROOT
TORSDOF 0
ENDMDL
MODEL 20
REMARK VINA RESULT:      -2.8      4.049      4.573
REMARK  0 active torsions:
REMARK  status: ('A' for Active; 'I' for Inactive)
ROOT
HETATM    1  C   LIG     1      17.225  38.772  22.240  1.00  0.00     0.269 C 
HETATM    2  C   LIG     1      16.527  37.751  23.113  1.00  0.00     0.032 C 
HETATM    3  C   LIG     1      16.344  36.561  22.205  1.00  0.00     0.032 C 
HETATM    4  C   LIG     1      17.471  36.677  21.192  1.00  0.00     0.269 C 
HETATM    5  N   LIG     1      17.999  38.045  21.234  1.00  0.00     0.083 N 
HETATM    6  H   LIG     1      18.994  38.005  21.555  1.00  0.00     0.315 HD
ENDROOT
TORSDOF 0
ENDMDL
