MODEL 1
REMARK VINA RESULT:      -5.3      0.000      0.000
REMARK  4 active torsions:
REMARK  status: ('A' for Active; 'I' for Inactive)
REMARK    1  A    between atoms: C_2  and  C_3 
REMARK    2  A    between atoms: C_3  and  C_4 
REMARK    3  A    between atoms: C_4  and  C_5 
REMARK    4  A    between atoms: C_5  and  C_6 
ROOT
HETATM    1  C   LIG     1      17.487  37.825  24.977  1.00  0.00     0.127 C 
HETATM    2  O   LIG     1      16.856  38.688  25.570  1.00  0.00    -0.298 OA
ENDROOT
BRANCH   1   3
HETATM    3  C   LIG     1      18.655  37.130  25.635  1.00  0.00     0.078 C 
BRANCH   3   4
HETATM    4  C   LIG     1      18.228  36.144  26.734  1.00  0.00     0.003 C 
HETATM    5  C   LIG     1      17.759  34.822  26.135  1.00  0.00     0.005 C 
ENDBRANCH   3   4
ENDBRANCH   1   3
BRANCH   1   6
HETATM    6  C   LIG     1      17.106  37.469  23.563  1.00  0.00     0.078 C 
BRANCH   6   7
HETATM    7  C   LIG     1      16.949  38.713  22.678  1.00  0.00     0.003 C 
HETATM    8  C   LIG     1      18.252  39.113  21.983  1.00  0.00     0.005 C 
ENDBRANCH   6   7
ENDBRANCH   1   6
TORSDOF 4
ENDMDL
MODEL 2
REMARK VINA RESULT:      -5.3      0.066      4.097
REMARK  4 active torsions:
REMARK  status: ('A' for Active; 'I' for Inactive)
REMARK    1  A    between atoms: C_2  and  C_3 
REMARK    2  A    between atoms: C_3  and  C_4 
REMARK    3  A    between atoms: C_4  and  C_5 
REMARK    4  A    between atoms: C_5  and  C_6 
ROOT
HETATM    1  C   LIG     1      17.499  37.835  24.994  1.00  0.00     0.127 C 
HETATM    2  O   LIG     1      16.867  38.655  25.643  1.00  0.00    -0.298 OA
ENDROOT
BRANCH   1   3
HETATM    3  C   LIG     1      17.110  37.506  23.572  1.00  0.00     0.078 C 
BRANCH   3   4
HETATM    4  C   LIG     1      16.971  38.751  22.683  1.00  0.00     0.003 C 
HETATM    5  C   LIG     1      18.298  39.102  22.017  1.00  0.00     0.005 C 
ENDBRANCH   3   4
ENDBRANCH   1   3
BRANCH   1   6
HETATM    6  C   LIG     1      18.667  37.128  25.632  1.00  0.00     0.078 C 
BRANCH   6   7
HETATM    7  C   LIG     1      18.220  36.136  26.714  1.00  0.00     0.003 C 
HETATM    8  C   LIG     1      17.622  34.855  26.131  1.00  0.00     0.005 C 
ENDBRANCH   6   7
ENDBRANCH   1   6
TORSDOF 4
ENDMDL
MODEL 3
REMARK VINA RESULT:      -5.1      1.128      4.314
REMARK  4 active torsions:
REMARK  status: ('A' for Active; 'I' for Inactive)
REMARK    1  A    between atoms: C_2  and  C_3 
REMARK    2  A    between atoms: C_3  and  C_4 
REMARK    3  A    between atoms: C_4  and  C_5 
REMARK    4  A    between atoms: C_5  and  C_6 
ROOT
HETATM    1  C   LIG     1      16.839  37.929  23.719  1.00  0.00     0.127 C 
HETATM    2  O   LIG     1      15.636  38.050  23.903  1.00  0.00    -0.298 OA
ENDROOT
BRANCH   1   3
HETATM    3  C   LIG     1      17.417  37.977  22.324  1.00  0.00     0.078 C 
BRANCH   3   4
HETATM    4  C   LIG     1      18.475  39.077  22.149  1.00  0.00     0.003 C 
HETATM    5  C   LIG     1      18.792  39.306  20.675  1.00  0.00     0.005 C 
ENDBRANCH   3   4
ENDBRANCH   1   3
BRANCH   1   6
HETATM    6  C   LIG     1      17.750  37.708  24.899  1.00  0.00     0.078 C 
BRANCH   6   7
HETATM    7  C   LIG     1      17.658  36.273  25.437  1.00  0.00     0.003 C 
HETATM    8  C   LIG     1      18.401  36.089  26.761  1.00  0.00     0.005 C 
ENDBRANCH   6   7
ENDBRANCH   1   6
TORSDOF 4
ENDMDL
MODEL 4
REMARK VINA RESULT:      -4.9      1.831      3.812
REMARK  4 active torsions:
REMARK  status: ('A' for Active; 'I' for Inactive)
REMARK    1  A    between atoms: C_2  and  C_3 
REMARK    2  A    between atoms: C_3  and  C_4 
REMARK    3  A    between atoms: C_4  and  C_5 
REMARK    4  A    between atoms: C_5  and  C_6 
ROOT
HETATM    1  C   LIG     1      16.847  37.502  23.734  1.00  0.00     0.127 C 
HETATM    2  O   LIG     1      15.693  37.809  23.995  1.00  0.00    -0.298 OA
ENDROOT
BRANCH   1   3
HETATM    3  C   LIG     1      17.188  36.796  22.443  1.00  0.00     0.078 C 
BRANCH   3   4
HETATM    4  C   LIG     1      16.577  35.390  22.347  1.00  0.00     0.003 C 
HETATM    5  C   LIG     1      15.492  35.333  21.276  1.00  0.00     0.005 C 
ENDBRANCH   3   4
ENDBRANCH   1   3
BRANCH   1   6
HETATM    6  C   LIG     1      17.938  37.814  24.726  1.00  0.00     0.078 C 
BRANCH   6   7
HETATM    7  C   LIG     1      17.704  37.123  26.077  1.00  0.00     0.003 C 
HETATM    8  C   LIG     1      18.284  35.709  26.126  1.00  0.00     0.005 C 
ENDBRANCH   6   7
ENDBRANCH   1   6
TORSDOF 4
ENDMDL
MODEL 5
REMARK VINA RESULT:      -4.7      2.135      4.659
REMARK  4 active torsions:
REMARK  status: ('A' for Active; 'I' for Inactive)
REMARK    1  A    between atoms: C_2  and  C_3 
REMARK    2  A    between atoms: C_3  and  C_4 
REMARK    3  A    between atoms: C_4  and  C_5 
REMARK    4  A    between atoms: C_5  and  C_6 
ROOT
HETATM    1  C   LIG     1      16.873  36.019  22.720  1.00  0.00     0.127 C 
HETATM    2  O   LIG     1      16.310  34.988  22.382  1.00  0.00    -0.298 OA
ENDROOT
BRANCH   1   3
HETATM    3  C   LIG     1      17.288  37.047  21.694  1.00  0.00     0.078 C 
BRANCH   3   4
HETATM    4  C   LIG     1      17.528  38.438  22.299  1.00  0.00     0.003 C 
HETATM    5  C   LIG     1      18.456  39.269  21.419  1.00  0.00     0.005 C 
ENDBRANCH   3   4
ENDBRANCH   1   3
BRANCH   1   6
HETATM    6  C   LIG     1      17.175  36.253  24.178  1.00  0.00     0.078 C 
BRANCH   6   7
HETATM    7  C   LIG     1      17.341  34.938  24.951  1.00  0.00     0.003 C 
HETATM    8  C   LIG     1      18.188  35.097  26.214  1.00  0.00     0.005 C 
ENDBRANCH   6   7
ENDBRANCH   1   6
TORSDOF 4
ENDMDL
MODEL 6
REMARK VINA RESULT:      -4.7      2.571      3.462
REMARK  4 active torsions:
REMARK  status: ('A' for Active; 'I' for Inactive)
REMARK    1  A    between atoms: C_2  and  C_3 
REMARK    2  A    between atoms: C_3  and  C_4 
REMARK    3  A    between atoms: C_4  and  C_5 
REMARK    4  A    between atoms: C_5  and  C_6 
ROOT
HETATM    1  C   LIG     1      16.505  37.832  23.211  1.00  0.00     0.127 C 
HETATM    2  O   LIG     1      15.886  37.995  24.252  1.00  0.00    -0.298 OA
ENDROOT
BRANCH   1   3
HETATM    3  C   LIG     1      16.777  36.444  22.681  1.00  0.00     0.078 C 
BRANCH   3   4
HETATM    4  C   LIG     1      15.728  35.971  21.663  1.00  0.00     0.003 C 
HETATM    5  C   LIG     1      16.391  35.444  20.395  1.00  0.00     0.005 C 
ENDBRANCH   3   4
ENDBRANCH   1   3
BRANCH   1   6
HETATM    6  C   LIG     1      17.020  39.033  22.460  1.00  0.00     0.078 C 
BRANCH   6   7
HETATM    7  C   LIG     1      18.473  38.846  22.001  1.00  0.00     0.003 C 
HETATM    8  C   LIG     1      18.691  39.263  20.546  1.00  0.00     0.005 C 
ENDBRANCH   6   7
ENDBRANCH   1   6
TORSDOF 4
ENDMDL
MODEL 7
REMARK VINA RESULT:      -4.7      2.179      2.501
REMARK  4 active torsions:
REMARK  status: ('A' for Active; 'I' for Inactive)
REMARK    1  A    between atoms: C_2  and  C_3 
REMARK    2  A    between atoms: C_3  and  C_4 
REMARK    3  A    between atoms: C_4  and  C_5 
REMARK    4  A    between atoms: C_5  and  C_6 
ROOT
HETATM    1  C   LIG     1      17.038  36.360  23.526  1.00  0.00     0.127 C 
HETATM    2  O   LIG     1      17.158  35.147  23.622  1.00  0.00    -0.298 OA
ENDROOT
BRANCH   1   3
HETATM    3  C   LIG     1      17.069  37.241  24.753  1.00  0.00     0.078 C 
BRANCH   3   4
HETATM    4  C   LIG     1      18.378  37.120  25.548  1.00  0.00     0.003 C 
HETATM    5  C   LIG     1      18.221  36.159  26.722  1.00  0.00     0.005 C 
ENDBRANCH   3   4
ENDBRANCH   1   3
BRANCH   1   6
HETATM    6  C   LIG     1      16.834  36.977  22.167  1.00  0.00     0.078 C 
BRANCH   6   7
HETATM    7  C   LIG     1      17.333  36.065  21.038  1.00  0.00     0.003 C 
HETATM    8  C   LIG     1      18.365  36.746  20.139  1.00  0.00     0.005 C 
ENDBRANCH   6   7
ENDBRANCH   1   6
TORSDOF 4
ENDMDL
MODEL 8
REMARK VINA RESULT:      -4.6      2.345      3.692
REMARK  4 active torsions:
REMARK  status: ('A' for Active; 'I' for Inactive)
REMARK    1  A    between atoms: C_2  and  C_3 
REMARK    2  A    between atoms: C_3  and  C_4 
REMARK    3  A    between atoms: C_4  and  C_5 
REMARK    4  A    between atoms: C_5  and  C_6 
ROOT
HETATM    1  C   LIG     1      17.711  38.388  21.671  1.00  0.00     0.127 C 
HETATM    2  O   LIG     1      17.673  37.269  21.182  1.00  0.00    -0.298 OA
ENDROOT
BRANCH   1   3
HETATM    3  C   LIG     1      16.796  38.766  22.812  1.00  0.00     0.078 C 
BRANCH   3   4
HETATM    4  C   LIG     1      16.664  37.660  23.869  1.00  0.00     0.003 C 
HETATM    5  C   LIG     1      17.409  38.028  25.148  1.00  0.00     0.005 C 
ENDBRANCH   3   4
ENDBRANCH   1   3
BRANCH   1   6
HETATM    6  C   LIG     1      18.668  39.408  21.111  1.00  0.00     0.078 C 
BRANCH   6   7
HETATM    7  C   LIG     1      19.024  39.122  19.646  1.00  0.00     0.003 C 
HETATM    8  C   LIG     1      20.478  38.684  19.465  1.00  0.00     0.005 C 
ENDBRANCH   6   7
ENDBRANCH   1   6
TORSDOF 4
ENDMDL
MODEL 9
REMARK VINA RESULT:      -4.5      2.347      3.264
REMARK  4 active torsions:
REMARK  status: ('A' for Active; 'I' for Inactive)
REMARK    1  A    between atoms: C_2  and  C_3 
REMARK    2  A    between atoms: C_3  and  C_4 
REMARK    3  A    between atoms: C_4  and  C_5 
REMARK    4  A    between atoms: C_5  and  C_6 
ROOT
HETATM    1  C   LIG     1      17.152  37.777  22.322  1.00  0.00     0.127 C 
HETATM    2  O   LIG     1      17.352  38.935  21.987  1.00  0.00    -0.298 OA
ENDROOT
BRANCH   1   3
HETATM    3  C   LIG     1      16.785  37.435  23.747  1.00  0.00     0.078 C 
BRANCH   3   4
HETATM    4  C   LIG     1      17.758  38.028  24.778  1.00  0.00     0.003 C 
HETATM    5  C   LIG     1      18.186  36.977  25.797  1.00  0.00     0.005 C 
ENDBRANCH   3   4
ENDBRANCH   1   3
BRANCH   1   6
HETATM    6  C   LIG     1      17.296  36.676  21.303  1.00  0.00     0.078 C 
BRANCH   6   7
HETATM    7  C   LIG     1      17.000  35.294  21.901  1.00  0.00     0.003 C 
HETATM    8  C   LIG     1      15.938  34.524  21.115  1.00  0.00     0.005 C 
ENDBRANCH   6   7
ENDBRANCH   1   6
TORSDOF 4
ENDMDL
MODEL 10
REMARK VINA RESULT:      -4.4      2.206      2.557
REMARK  4 active torsions:
REMARK  status: ('A' for Active; 'I' for Inactive)
REMARK    1  A    between atoms: C_2  and  C_3 
REMARK    2  A    between atoms: C_3  and  C_4 
REMARK    3  A    between atoms: C_4  and  C_5 
REMARK    4  A    between atoms: C_5  and  C_6 
ROOT
HETATM    1  C   LIG     1      16.901  35.889  22.744  1.00  0.00     0.127 C 
HETATM    2  O   LIG     1      16.396  34.830  22.400  1.00  0.00    -0.298 OA
ENDROOT
BRANCH   1   3
HETATM    3  C   LIG     1      17.242  36.151  24.192  1.00  0.00     0.078 C 
BRANCH   3   4
HETATM    4  C   LIG     1      17.300  34.869  25.037  1.00  0.00     0.003 C 
HETATM    5  C   LIG     1      18.200  35.054  26.255  1.00  0.00     0.005 C 
ENDBRANCH   3   4
ENDBRANCH   1   3
BRANCH   1   6
HETATM    6  C   LIG     1      17.164  36.953  21.710  1.00  0.00     0.078 C 
BRANCH   6   7
HETATM    7  C   LIG     1      17.767  38.222  22.328  1.00  0.00     0.003 C 
HETATM    8  C   LIG     1      16.729  39.322  22.551  1.00  0.00     0.005 C 
ENDBRANCH   6   7
ENDBRANCH   1   6
TORSDOF 4
ENDMDL
MODEL 11
REMARK VINA RESULT:      -4.4      3.469      5.774
REMARK  4 active torsions:
REMARK  status: ('A' for Active; 'I' for Inactive)
REMARK    1  A    between atoms: C_2  and  C_3 
REMARK    2  A    between atoms: C_3  and  C_4 
REMARK    3  A    between atoms: C_4  and  C_5 
REMARK    4  A    between atoms: C_5  and  C_6 
ROOT
HETATM    1  C   LIG     1      17.877  36.534  20.247  1.00  0.00     0.127 C 
HETATM    2  O   LIG     1      17.088  35.712  19.803  1.00  0.00    -0.298 OA
ENDROOT
BRANCH   1   3
HETATM    3  C   LIG     1      19.176  36.825  19.532  1.00  0.00     0.078 C 
BRANCH   3   4
HETATM    4  C   LIG     1      19.585  38.304  19.607  1.00  0.00     0.003 C 
HETATM    5  C   LIG     1      19.053  39.084  18.409  1.00  0.00     0.005 C 
ENDBRANCH   3   4
ENDBRANCH   1   3
BRANCH   1   6
HETATM    6  C   LIG     1      17.557  37.247  21.535  1.00  0.00     0.078 C 
BRANCH   6   7
HETATM    7  C   LIG     1      16.488  36.508  22.353  1.00  0.00     0.003 C 
HETATM    8  C   LIG     1      17.083  35.462  23.296  1.00  0.00     0.005 C 
ENDBRANCH   6   7
ENDBRANCH   1   6
TORSDOF 4
ENDMDL
MODEL 12
REMARK VINA RESULT:      -4.4      9.422     10.111
REMARK  4 active torsions:
REMARK  status: ('A' for Active; 'I' for Inactive)
REMARK    1  A    between atoms: C_2  and  C_3 
REMARK    2  A    between atoms: C_3  and  C_4 
REMARK    3  A    between atoms: C_4  and  C_5 
REMARK    4  A    between atoms: C_5  and  C_6 
ROOT
HETATM    1  C   LIG     1      15.325  33.079  16.482  1.00  0.00     0.127 C 
HETATM    2  O   LIG     1      15.647  34.258  16.498  1.00  0.00    -0.298 OA
ENDROOT
BRANCH   1   3
HETATM    3  C   LIG     1      14.555  32.471  17.631  1.00  0.00     0.078 C 
BRANCH   3   4
HETATM    4  C   LIG     1      15.317  32.530  18.964  1.00  0.00     0.003 C 
HETATM    5  C   LIG     1      14.843  31.438  19.918  1.00  0.00     0.005 C 
ENDBRANCH   3   4
ENDBRANCH   1   3
BRANCH   1   6
HETATM    6  C   LIG     1      15.720  32.219  15.310  1.00  0.00     0.078 C 
BRANCH   6   7
HETATM    7  C   LIG     1      14.782  31.017  15.133  1.00  0.00     0.003 C 
HETATM    8  C   LIG     1      15.298  30.010  14.104  1.00  0.00     0.005 C 
ENDBRANCH   6   7
ENDBRANCH   1   6
TORSDOF 4
ENDMDL
MODEL 13
REMARK VINA RESULT:      -4.3      2.027      3.987
REMARK  4 active torsions:
REMARK  status: ('A' for Active; 'I' for Inactive)
REMARK    1  A    between atoms: C_2  and  C_3 
REMARK    2  A    between atoms: C_3  and  C_4 
REMARK    3  A    between atoms: C_4  and  C_5 
REMARK    4  A    between atoms: C_5  and  C_6 
ROOT
HETATM    1  C   LIG     1      17.854  38.472  22.848  1.00  0.00     0.127 C 
HETATM    2  O   LIG     1      18.311  39.349  22.130  1.00  0.00    -0.298 OA
ENDROOT
BRANCH   1   3
HETATM    3  C   LIG     1      16.652  37.666  22.415  1.00  0.00     0.078 C 
BRANCH   3   4
HETATM    4  C   LIG     1      17.023  36.280  21.866  1.00  0.00     0.003 C 
HETATM    5  C   LIG     1      17.838  36.396  20.582  1.00  0.00     0.005 C 
ENDBRANCH   3   4
ENDBRANCH   1   3
BRANCH   1   6
HETATM    6  C   LIG     1      18.486  38.209  24.190  1.00  0.00     0.078 C 
BRANCH   6   7
HETATM    7  C   LIG     1      17.471  37.678  25.212  1.00  0.00     0.003 C 
HETATM    8  C   LIG     1      18.123  36.844  26.315  1.00  0.00     0.005 C 
ENDBRANCH   6   7
ENDBRANCH   1   6
TORSDOF 4
ENDMDL
MODEL 14
REMARK VINA RESULT:      -4.3      9.989     11.072
REMARK  4 active torsions:
REMARK  status: ('A' for Active; 'I' for Inactive)
REMARK    1  A    between atoms: C_2  and  C_3 
REMARK    2  A    between atoms: C_3  and  C_4 
REMARK    3  A    between atoms: C_4  and  C_5 
REMARK    4  A    between atoms: C_5  and  C_6 
ROOT
HETATM    1  C   LIG     1      13.528  31.502  16.759  1.00  0.00     0.127 C 
HETATM    2  O   LIG     1      12.341  31.619  17.024  1.00  0.00    -0.298 OA
ENDROOT
BRANCH   1   3
HETATM    3  C   LIG     1      13.987  30.593  15.643  1.00  0.00     0.078 C 
BRANCH   3   4
HETATM    4  C   LIG     1      15.225  31.125  14.905  1.00  0.00     0.003 C 
HETATM    5  C   LIG     1      15.308  30.558  13.491  1.00  0.00     0.005 C 
ENDBRANCH   3   4
ENDBRANCH   1   3
BRANCH   1   6
HETATM    6  C   LIG     1      14.546  32.260  17.572  1.00  0.00     0.078 C 
BRANCH   6   7
HETATM    7  C   LIG     1      14.670  31.709  18.999  1.00  0.00     0.003 C 
HETATM    8  C   LIG     1      15.546  32.584  19.897  1.00  0.00     0.005 C 
ENDBRANCH   6   7
ENDBRANCH   1   6
TORSDOF 4
ENDMDL
MODEL 15
REMARK VINA RESULT:      -4.3      4.098      5.867
REMARK  4 active torsions:
REMARK  status: ('A' for Active; 'I' for Inactive)
REMARK    1  A    between atoms: C_2  and  C_3 
REMARK    2  A    between atoms: C_3  and  C_4 
REMARK    3  A    between atoms: C_4  and  C_5 
REMARK    4  A    between atoms: C_5  and  C_6 
ROOT
HETATM    1  C   LIG     1      19.579  39.035  19.583  1.00  0.00     0.127 C 
HETATM    2  O   LIG     1      20.796  38.934  19.635  1.00  0.00    -0.298 OA
ENDROOT
BRANCH   1   3
HETATM    3  C   LIG     1      18.789  39.503  20.783  1.00  0.00     0.078 C 
BRANCH   3   4
HETATM    4  C   LIG     1      18.006  38.371  21.465  1.00  0.00     0.003 C 
HETATM    5  C   LIG     1      17.070  38.919  22.538  1.00  0.00     0.005 C 
ENDBRANCH   3   4
ENDBRANCH   1   3
BRANCH   1   6
HETATM    6  C   LIG     1      18.860  38.668  18.311  1.00  0.00     0.078 C 
BRANCH   6   7
HETATM    7  C   LIG     1      18.348  39.904  17.560  1.00  0.00     0.003 C 
HETATM    8  C   LIG     1      18.513  39.787  16.045  1.00  0.00     0.005 C 
ENDBRANCH   6   7
ENDBRANCH   1   6
TORSDOF 4
ENDMDL
MODEL 16
REMARK VINA RESULT:      -4.2      2.844      4.439
REMARK  4 active torsions:
REMARK  status: ('A' for Active; 'I' for Inactive)
REMARK    1  A    between atoms: C_2  and  C_3 
REMARK    2  A    between atoms: C_3  and  C_4 
REMARK    3  A    between atoms: C_4  and  C_5 
REMARK    4  A    between atoms: C_5  and  C_6 
ROOT
HETATM    1  C   LIG     1      16.899  36.463  22.709  1.00  0.00     0.127 C 
HETATM    2  O   LIG     1      17.075  35.996  23.825  1.00  0.00    -0.298 OA
ENDROOT
BRANCH   1   3
HETATM    3  C   LIG     1      16.370  37.866  22.532  1.00  0.00     0.078 C 
BRANCH   3   4
HETATM    4  C   LIG     1      17.458  38.942  22.669  1.00  0.00     0.003 C 
HETATM    5  C   LIG     1      18.226  39.119  21.363  1.00  0.00     0.005 C 
ENDBRANCH   3   4
ENDBRANCH   1   3
BRANCH   1   6
HETATM    6  C   LIG     1      17.194  35.616  21.498  1.00  0.00     0.078 C 
BRANCH   6   7
HETATM    7  C   LIG     1      15.934  35.340  20.666  1.00  0.00     0.003 C 
HETATM    8  C   LIG     1      15.007  34.315  21.320  1.00  0.00     0.005 C 
ENDBRANCH   6   7
ENDBRANCH   1   6
TORSDOF 4
ENDMDL
MODEL 17
REMARK VINA RESULT:      -4.2      3.151      5.138
REMARK  4 active torsions:
REMARK  status: ('A' for Active; 'I' for Inactive)
REMARK    1  A    between atoms: C_2  and  C_3 
REMARK    2  A    between atoms: C_3  and  C_4 
REMARK    3  A    between atoms: C_4  and  C_5 
REMARK    4  A    between atoms: C_5  and  C_6 
ROOT
HETATM    1  C   LIG     1      18.267  38.741  21.757  1.00  0.00     0.127 C 
HETATM    2  O   LIG     1      19.032  38.927  22.691  1.00  0.00    -0.298 OA
ENDROOT
BRANCH   1   3
HETATM    3  C   LIG     1      18.471  39.445  20.436  1.00  0.00     0.078 C 
BRANCH   3   4
HETATM    4  C   LIG     1      19.122  38.549  19.371  1.00  0.00     0.003 C 
HETATM    5  C   LIG     1      20.643  38.583  19.478  1.00  0.00     0.005 C 
ENDBRANCH   3   4
ENDBRANCH   1   3
BRANCH   1   6
HETATM    6  C   LIG     1      17.092  37.814  21.936  1.00  0.00     0.078 C 
BRANCH   6   7
HETATM    7  C   LIG     1      17.399  36.393  21.443  1.00  0.00     0.003 C 
HETATM    8  C   LIG     1      16.905  35.314  22.408  1.00  0.00     0.005 C 
ENDBRANCH   6   7
ENDBRANCH   1   6
TORSDOF 4
ENDMDL
MODEL 18
REMARK VINA RESULT:      -4.2      2.985      4.057
REMARK  4 active torsions:
REMARK  status: ('A' for Active; 'I' for Inactive)
REMARK    1  A    between atoms: C_2  and  C_3 
REMARK    2  A    between atoms: C_3  and  C_4 
REMARK    3  A    between atoms: C_4  and  C_5 
REMARK    4  A    between atoms: C_5  and  C_6 
ROOT
HETATM    1  C   LIG     1      16.813  36.177  22.674  1.00  0.00     0.127 C 
HETATM    2  O   LIG     1      17.144  35.611  23.705  1.00  0.00    -0.298 OA
ENDROOT
BRANCH   1   3
HETATM    3  C   LIG     1      16.849  35.453  21.348  1.00  0.00     0.078 C 
BRANCH   3   4
HETATM    4  C   LIG     1      15.472  34.928  20.913  1.00  0.00     0.003 C 
HETATM    5  C   LIG     1      15.588  33.552  20.265  1.00  0.00     0.005 C 
ENDBRANCH   3   4
ENDBRANCH   1   3
BRANCH   1   6
HETATM    6  C   LIG     1      16.387  37.621  22.726  1.00  0.00     0.078 C 
BRANCH   6   7
HETATM    7  C   LIG     1      17.586  38.574  22.823  1.00  0.00     0.003 C 
HETATM    8  C   LIG     1      18.166  38.937  21.456  1.00  0.00     0.005 C 
ENDBRANCH   6   7
ENDBRANCH   1   6
TORSDOF 4
ENDMDL
MODEL 19
REMARK VINA RESULT:      -4.2     10.969     11.874
REMARK  4 active torsions:
REMARK  status: ('A' for Active; 'I' for Inactive)
REMARK    1  A    between atoms: C_2  and  C_3 
REMARK    2  A    between atoms: C_3  and  C_4 
REMARK    3  A    between atoms: C_4  and  C_5 
REMARK    4  A    between atoms: C_5  and  C_6 
ROOT
HETATM    1  C   LIG     1      16.086  32.205  14.048  1.00  0.00     0.127 C 
HETATM    2  O   LIG     1      16.376  33.153  13.333  1.00  0.00    -0.298 OA
ENDROOT
BRANCH   1   3
HETATM    3  C   LIG     1      16.381  32.233  15.529  1.00  0.00     0.078 C 
BRANCH   3   4
HETATM    4  C   LIG     1      15.417  33.131  16.319  1.00  0.00     0.003 C 
HETATM    5  C   LIG     1      14.887  32.415  17.557  1.00  0.00     0.005 C 
ENDBRANCH   3   4
ENDBRANCH   1   3
BRANCH   1   6
HETATM    6  C   LIG     1      15.444  30.987  13.437  1.00  0.00     0.078 C 
BRANCH   6   7
HETATM    7  C   LIG     1      15.051  29.948  14.497  1.00  0.00     0.003 C 
HETATM    8  C   LIG     1      13.569  30.014  14.869  1.00  0.00     0.005 C 
ENDBRANCH   6   7
ENDBRANCH   1   6
TORSDOF 4
ENDMDL
MODEL 20
REMARK VINA RESULT:      -4.0      8.273      9.392
REMARK  4 active torsions:
REMARK  status: ('A' for Active; 'I' for Inactive)
REMARK    1  A    between atoms: C_2  and  C_3 
REMARK    2  A    between atoms: C_3  and  C_4 
REMARK    3  A    between atoms: C_4  and  C_5 
REMARK    4  A    between atoms: C_5  and  C_6 
ROOT
HETATM    1  C   LIG     1      14.628  32.057  18.138  1.00  0.00     0.127 C 
HETATM    2  O   LIG     1      13.781  31.177  18.085  1.00  0.00    -0.298 OA
ENDROOT
BRANCH   1   3
HETATM    3  C   LIG     1      14.767  33.066  17.023  1.00  0.00     0.078 C 
BRANCH   3   4
HETATM    4  C   LIG     1      15.893  32.722  16.036  1.00  0.00     0.003 C 
HETATM    5  C   LIG     1      15.444  31.659  15.038  1.00  0.00     0.005 C 
ENDBRANCH   3   4
ENDBRANCH   1   3
BRANCH   1   6
HETATM    6  C   LIG     1      15.558  32.117  19.321  1.00  0.00     0.078 C 
BRANCH   6   7
HETATM    7  C   LIG     1      15.068  33.103  20.391  1.00  0.00     0.003 C 
HETATM    8  C   LIG     1      15.854  34.415  20.392  1.00  0.00     0.005 C 
ENDBRANCH   6   7
ENDBRANCH   1   6
TORSDOF 4
ENDMDL
