MODEL 1
REMARK VINA RESULT:      -6.1      0.000      0.000
REMARK  2 active torsions:
REMARK  status: ('A' for Active; 'I' for Inactive)
REMARK    1  A    between atoms: C_2  and  C_3 
REMARK    2  A    between atoms: C_6  and  O_7 
ROOT
HETATM    1  C   LIG     1      18.244  37.391  20.553  1.00  0.00     0.002 A 
HETATM    2  C   LIG     1      17.442  36.413  21.161  1.00  0.00     0.017 A 
HETATM    3  C   LIG     1      16.875  36.644  22.418  1.00  0.00     0.037 A 
HETATM    4  C   LIG     1      17.100  37.862  23.087  1.00  0.00     0.068 A 
HETATM    5  C   LIG     1      17.900  38.835  22.479  1.00  0.00     0.037 A 
HETATM    6  C   LIG     1      18.469  38.606  21.221  1.00  0.00     0.017 A 
ENDROOT
BRANCH   1   7
HETATM    7  C   LIG     1      18.833  37.130  19.228  1.00  0.00     0.269 C 
HETATM    8  O   LIG     1      18.167  36.564  18.320  1.00  0.00    -0.301 OA
ENDBRANCH   1   7
BRANCH   4   9
HETATM    9  O   LIG     1      16.554  38.140  24.349  1.00  0.00    -0.356 OA
HETATM   10  C   LIG     1      17.278  38.069  25.572  1.00  0.00     0.210 C 
ENDBRANCH   4   9
TORSDOF 2
ENDMDL
MODEL 2
REMARK VINA RESULT:      -5.9      1.469      2.132
REMARK  2 active torsions:
REMARK  status: ('A' for Active; 'I' for Inactive)
REMARK    1  A    between atoms: C_2  and  C_3 
REMARK    2  A    between atoms: C_6  and  O_7 
ROOT
HETATM    1  C   LIG     1      18.782  38.330  20.249  1.00  0.00     0.002 A 
HETATM    2  C   LIG     1      18.652  39.260  21.291  1.00  0.00     0.017 A 
HETATM    3  C   LIG     1      17.928  38.937  22.442  1.00  0.00     0.037 A 
HETATM    4  C   LIG     1      17.322  37.672  22.569  1.00  0.00     0.068 A 
HETATM    5  C   LIG     1      17.453  36.747  21.528  1.00  0.00     0.037 A 
HETATM    6  C   LIG     1      18.177  37.069  20.376  1.00  0.00     0.017 A 
ENDROOT
BRANCH   1   7
HETATM    7  C   LIG     1      19.549  38.690  19.043  1.00  0.00     0.269 C 
HETATM    8  O   LIG     1      20.584  39.404  19.119  1.00  0.00    -0.301 OA
ENDBRANCH   1   7
BRANCH   4   9
HETATM    9  O   LIG     1      16.585  37.301  23.704  1.00  0.00    -0.356 OA
HETATM   10  C   LIG     1      16.963  37.603  25.042  1.00  0.00     0.210 C 
ENDBRANCH   4   9
TORSDOF 2
ENDMDL
MODEL 3
REMARK VINA RESULT:      -5.7      1.361      4.689
REMARK  2 active torsions:
REMARK  status: ('A' for Active; 'I' for Inactive)
REMARK    1  A    between atoms: C_2  and  C_3 
REMARK    2  A    between atoms: C_6  and  O_7 
ROOT
HETATM    1  C   LIG     1      17.359  37.634  22.310  1.00  0.00     0.002 A 
HETATM    2  C   LIG     1      17.859  38.942  22.219  1.00  0.00     0.017 A 
HETATM    3  C   LIG     1      18.588  39.345  21.097  1.00  0.00     0.037 A 
HETATM    4  C   LIG     1      18.828  38.443  20.043  1.00  0.00     0.068 A 
HETATM    5  C   LIG     1      18.329  37.139  20.136  1.00  0.00     0.037 A 
HETATM    6  C   LIG     1      17.600  36.734  21.258  1.00  0.00     0.017 A 
ENDROOT
BRANCH   1   7
HETATM    7  C   LIG     1      16.592  37.227  23.501  1.00  0.00     0.269 C 
HETATM    8  O   LIG     1      16.036  38.083  24.240  1.00  0.00    -0.301 OA
ENDBRANCH   1   7
BRANCH   4   9
HETATM    9  O   LIG     1      19.555  38.800  18.897  1.00  0.00    -0.356 OA
HETATM   10  C   LIG     1      18.967  39.235  17.677  1.00  0.00     0.210 C 
ENDBRANCH   4   9
TORSDOF 2
ENDMDL
MODEL 4
REMARK VINA RESULT:      -5.7      2.049      3.128
REMARK  2 active torsions:
REMARK  status: ('A' for Active; 'I' for Inactive)
REMARK    1  A    between atoms: C_2  and  C_3 
REMARK    2  A    between atoms: C_6  and  O_7 
ROOT
HETATM    1  C   LIG     1      18.426  38.401  20.850  1.00  0.00     0.002 A 
HETATM    2  C   LIG     1      17.598  38.559  21.971  1.00  0.00     0.017 A 
HETATM    3  C   LIG     1      16.779  37.510  22.400  1.00  0.00     0.037 A 
HETATM    4  C   LIG     1      16.776  36.283  21.711  1.00  0.00     0.068 A 
HETATM    5  C   LIG     1      17.603  36.128  20.593  1.00  0.00     0.037 A 
HETATM    6  C   LIG     1      18.423  37.176  20.163  1.00  0.00     0.017 A 
ENDROOT
BRANCH   1   7
HETATM    7  C   LIG     1      19.283  39.518  20.414  1.00  0.00     0.269 C 
HETATM    8  O   LIG     1      20.248  39.328  19.626  1.00  0.00    -0.301 OA
ENDBRANCH   1   7
BRANCH   4   9
HETATM    9  O   LIG     1      15.972  35.202  22.101  1.00  0.00    -0.356 OA
HETATM   10  C   LIG     1      15.296  34.335  21.197  1.00  0.00     0.210 C 
ENDBRANCH   4   9
TORSDOF 2
ENDMDL
MODEL 5
REMARK VINA RESULT:      -5.7      2.010      2.703
REMARK  2 active torsions:
REMARK  status: ('A' for Active; 'I' for Inactive)
REMARK    1  A    between atoms: C_2  and  C_3 
REMARK    2  A    between atoms: C_6  and  O_7 
ROOT
HETATM    1  C   LIG     1      19.197  38.446  19.800  1.00  0.00     0.002 A 
HETATM    2  C   LIG     1      18.628  39.156  20.868  1.00  0.00     0.017 A 
HETATM    3  C   LIG     1      17.754  38.521  21.755  1.00  0.00     0.037 A 
HETATM    4  C   LIG     1      17.436  37.160  21.588  1.00  0.00     0.068 A 
HETATM    5  C   LIG     1      18.005  36.453  20.522  1.00  0.00     0.037 A 
HETATM    6  C   LIG     1      18.880  37.088  19.633  1.00  0.00     0.017 A 
ENDROOT
BRANCH   1   7
HETATM    7  C   LIG     1      20.116  39.133  18.876  1.00  0.00     0.269 C 
HETATM    8  O   LIG     1      19.694  39.670  17.817  1.00  0.00    -0.301 OA
ENDBRANCH   1   7
BRANCH   4   9
HETATM    9  O   LIG     1      16.565  36.478  22.451  1.00  0.00    -0.356 OA
HETATM   10  C   LIG     1      16.830  35.199  23.015  1.00  0.00     0.210 C 
ENDBRANCH   4   9
TORSDOF 2
ENDMDL
MODEL 6
REMARK VINA RESULT:      -5.6      1.898      2.683
REMARK  2 active torsions:
REMARK  status: ('A' for Active; 'I' for Inactive)
REMARK    1  A    between atoms: C_2  and  C_3 
REMARK    2  A    between atoms: C_6  and  O_7 
ROOT
HETATM    1  C   LIG     1      16.747  35.973  21.972  1.00  0.00     0.002 A 
HETATM    2  C   LIG     1      16.816  37.336  22.295  1.00  0.00     0.017 A 
HETATM    3  C   LIG     1      17.090  37.741  23.604  1.00  0.00     0.037 A 
HETATM    4  C   LIG     1      17.301  36.784  24.615  1.00  0.00     0.068 A 
HETATM    5  C   LIG     1      17.231  35.424  24.291  1.00  0.00     0.037 A 
HETATM    6  C   LIG     1      16.957  35.018  22.981  1.00  0.00     0.017 A 
ENDROOT
BRANCH   1   7
HETATM    7  C   LIG     1      16.458  35.565  20.585  1.00  0.00     0.269 C 
HETATM    8  O   LIG     1      17.255  35.836  19.648  1.00  0.00    -0.301 OA
ENDBRANCH   1   7
BRANCH   4   9
HETATM    9  O   LIG     1      17.577  37.140  25.943  1.00  0.00    -0.356 OA
HETATM   10  C   LIG     1      18.335  36.343  26.848  1.00  0.00     0.210 C 
ENDBRANCH   4   9
TORSDOF 2
ENDMDL
MODEL 7
REMARK VINA RESULT:      -5.4      2.557      2.699
REMARK  2 active torsions:
REMARK  status: ('A' for Active; 'I' for Inactive)
REMARK    1  A    between atoms: C_2  and  C_3 
REMARK    2  A    between atoms: C_6  and  O_7 
ROOT
HETATM    1  C   LIG     1      16.050  35.195  21.636  1.00  0.00     0.002 A 
HETATM    2  C   LIG     1      16.974  35.006  22.674  1.00  0.00     0.017 A 
HETATM    3  C   LIG     1      17.127  35.973  23.672  1.00  0.00     0.037 A 
HETATM    4  C   LIG     1      16.353  37.149  23.647  1.00  0.00     0.068 A 
HETATM    5  C   LIG     1      15.431  37.335  22.611  1.00  0.00     0.037 A 
HETATM    6  C   LIG     1      15.277  36.369  21.611  1.00  0.00     0.017 A 
ENDROOT
BRANCH   1   7
HETATM    7  C   LIG     1      15.902  34.164  20.593  1.00  0.00     0.269 C 
HETATM    8  O   LIG     1      15.817  34.477  19.376  1.00  0.00    -0.301 OA
ENDBRANCH   1   7
BRANCH   4   9
HETATM    9  O   LIG     1      16.470  38.148  24.624  1.00  0.00    -0.356 OA
HETATM   10  C   LIG     1      17.416  38.126  25.687  1.00  0.00     0.210 C 
ENDBRANCH   4   9
TORSDOF 2
ENDMDL
MODEL 8
REMARK VINA RESULT:      -5.4      8.152     10.272
REMARK  2 active torsions:
REMARK  status: ('A' for Active; 'I' for Inactive)
REMARK    1  A    between atoms: C_2  and  C_3 
REMARK    2  A    between atoms: C_6  and  O_7 
ROOT
HETATM    1  C   LIG     1      14.865  32.425  16.217  1.00  0.00     0.002 A 
HETATM    2  C   LIG     1      13.746  31.631  16.509  1.00  0.00     0.017 A 
HETATM    3  C   LIG     1      13.502  30.458  15.790  1.00  0.00     0.037 A 
HETATM    4  C   LIG     1      14.379  30.059  14.763  1.00  0.00     0.068 A 
HETATM    5  C   LIG     1      15.495  30.852  14.474  1.00  0.00     0.037 A 
HETATM    6  C   LIG     1      15.740  32.026  15.193  1.00  0.00     0.017 A 
ENDROOT
BRANCH   1   7
HETATM    7  C   LIG     1      15.105  33.659  16.987  1.00  0.00     0.269 C 
HETATM    8  O   LIG     1      15.730  34.629  16.483  1.00  0.00    -0.301 OA
ENDBRANCH   1   7
BRANCH   4   9
HETATM    9  O   LIG     1      14.178  28.891  14.013  1.00  0.00    -0.356 OA
HETATM   10  C   LIG     1      15.210  27.981  13.649  1.00  0.00     0.210 C 
ENDBRANCH   4   9
TORSDOF 2
ENDMDL
MODEL 9
REMARK VINA RESULT:      -5.2      7.492      8.836
REMARK  2 active torsions:
REMARK  status: ('A' for Active; 'I' for Inactive)
REMARK    1  A    between atoms: C_2  and  C_3 
REMARK    2  A    between atoms: C_6  and  O_7 
ROOT
HETATM    1  C   LIG     1      14.421  30.727  15.262  1.00  0.00     0.002 A 
HETATM    2  C   LIG     1      13.662  30.763  16.441  1.00  0.00     0.017 A 
HETATM    3  C   LIG     1      13.971  31.674  17.455  1.00  0.00     0.037 A 
HETATM    4  C   LIG     1      15.048  32.569  17.303  1.00  0.00     0.068 A 
HETATM    5  C   LIG     1      15.803  32.531  16.126  1.00  0.00     0.037 A 
HETATM    6  C   LIG     1      15.496  31.619  15.111  1.00  0.00     0.017 A 
ENDROOT
BRANCH   1   7
HETATM    7  C   LIG     1      14.080  29.759  14.205  1.00  0.00     0.269 C 
HETATM    8  O   LIG     1      13.000  29.111  14.238  1.00  0.00    -0.301 OA
ENDBRANCH   1   7
BRANCH   4   9
HETATM    9  O   LIG     1      15.397  33.501  18.291  1.00  0.00    -0.356 OA
HETATM   10  C   LIG     1      15.414  33.225  19.687  1.00  0.00     0.210 C 
ENDBRANCH   4   9
TORSDOF 2
ENDMDL
MODEL 10
REMARK VINA RESULT:      -5.1      8.589     10.218
REMARK  2 active torsions:
REMARK  status: ('A' for Active; 'I' for Inactive)
REMARK    1  A    between atoms: C_2  and  C_3 
REMARK    2  A    between atoms: C_6  and  O_7 
ROOT
HETATM    1  C   LIG     1      13.830  29.833  14.656  1.00  0.00     0.002 A 
HETATM    2  C   LIG     1      15.026  30.305  14.095  1.00  0.00     0.017 A 
HETATM    3  C   LIG     1      15.697  31.390  14.667  1.00  0.00     0.037 A 
HETATM    4  C   LIG     1      15.180  32.021  15.814  1.00  0.00     0.068 A 
HETATM    5  C   LIG     1      13.987  31.549  16.372  1.00  0.00     0.037 A 
HETATM    6  C   LIG     1      13.314  30.463  15.801  1.00  0.00     0.017 A 
ENDROOT
BRANCH   1   7
HETATM    7  C   LIG     1      13.137  28.688  14.040  1.00  0.00     0.269 C 
HETATM    8  O   LIG     1      13.752  27.622  13.773  1.00  0.00    -0.301 OA
ENDBRANCH   1   7
BRANCH   4   9
HETATM    9  O   LIG     1      15.816  33.112  16.424  1.00  0.00    -0.356 OA
HETATM   10  C   LIG     1      15.133  34.201  17.036  1.00  0.00     0.210 C 
ENDBRANCH   4   9
TORSDOF 2
ENDMDL
MODEL 11
REMARK VINA RESULT:      -5.1      8.585     10.183
REMARK  2 active torsions:
REMARK  status: ('A' for Active; 'I' for Inactive)
REMARK    1  A    between atoms: C_2  and  C_3 
REMARK    2  A    between atoms: C_6  and  O_7 
ROOT
HETATM    1  C   LIG     1      13.877  29.824  14.631  1.00  0.00     0.002 A 
HETATM    2  C   LIG     1      13.297  30.448  15.745  1.00  0.00     0.017 A 
HETATM    3  C   LIG     1      13.920  31.545  16.347  1.00  0.00     0.037 A 
HETATM    4  C   LIG     1      15.138  32.038  15.839  1.00  0.00     0.068 A 
HETATM    5  C   LIG     1      15.714  31.414  14.727  1.00  0.00     0.037 A 
HETATM    6  C   LIG     1      15.092  30.316  14.125  1.00  0.00     0.017 A 
ENDROOT
BRANCH   1   7
HETATM    7  C   LIG     1      13.204  28.669  14.010  1.00  0.00     0.269 C 
HETATM    8  O   LIG     1      13.840  27.617  13.734  1.00  0.00    -0.301 OA
ENDBRANCH   1   7
BRANCH   4   9
HETATM    9  O   LIG     1      15.802  33.134  16.408  1.00  0.00    -0.356 OA
HETATM   10  C   LIG     1      15.149  34.229  17.042  1.00  0.00     0.210 C 
ENDBRANCH   4   9
TORSDOF 2
ENDMDL
MODEL 12
REMARK VINA RESULT:      -5.1      8.415     10.047
REMARK  2 active torsions:
REMARK  status: ('A' for Active; 'I' for Inactive)
REMARK    1  A    between atoms: C_2  and  C_3 
REMARK    2  A    between atoms: C_6  and  O_7 
ROOT
HETATM    1  C   LIG     1      14.542  31.420  15.869  1.00  0.00     0.002 A 
HETATM    2  C   LIG     1      14.601  30.696  14.669  1.00  0.00     0.017 A 
HETATM    3  C   LIG     1      15.537  31.030  13.686  1.00  0.00     0.037 A 
HETATM    4  C   LIG     1      16.433  32.097  13.891  1.00  0.00     0.068 A 
HETATM    5  C   LIG     1      16.372  32.817  15.089  1.00  0.00     0.037 A 
HETATM    6  C   LIG     1      15.435  32.484  16.073  1.00  0.00     0.017 A 
ENDROOT
BRANCH   1   7
HETATM    7  C   LIG     1      13.548  31.053  16.893  1.00  0.00     0.269 C 
HETATM    8  O   LIG     1      13.850  31.033  18.116  1.00  0.00    -0.301 OA
ENDBRANCH   1   7
BRANCH   4   9
HETATM    9  O   LIG     1      17.390  32.471  12.935  1.00  0.00    -0.356 OA
HETATM   10  C   LIG     1      18.158  33.668  12.993  1.00  0.00     0.210 C 
ENDBRANCH   4   9
TORSDOF 2
ENDMDL
MODEL 13
REMARK VINA RESULT:      -5.1      2.343      3.681
REMARK  2 active torsions:
REMARK  status: ('A' for Active; 'I' for Inactive)
REMARK    1  A    between atoms: C_2  and  C_3 
REMARK    2  A    between atoms: C_6  and  O_7 
ROOT
HETATM    1  C   LIG     1      16.079  35.868  21.408  1.00  0.00     0.002 A 
HETATM    2  C   LIG     1      17.090  35.738  20.443  1.00  0.00     0.017 A 
HETATM    3  C   LIG     1      18.085  36.713  20.324  1.00  0.00     0.037 A 
HETATM    4  C   LIG     1      18.084  37.836  21.173  1.00  0.00     0.068 A 
HETATM    5  C   LIG     1      17.075  37.963  22.135  1.00  0.00     0.037 A 
HETATM    6  C   LIG     1      16.079  36.988  22.254  1.00  0.00     0.017 A 
ENDROOT
BRANCH   1   7
HETATM    7  C   LIG     1      15.039  34.829  21.518  1.00  0.00     0.269 C 
HETATM    8  O   LIG     1      15.131  33.746  20.882  1.00  0.00    -0.301 OA
ENDBRANCH   1   7
BRANCH   4   9
HETATM    9  O   LIG     1      19.060  38.841  21.093  1.00  0.00    -0.356 OA
HETATM   10  C   LIG     1      19.934  39.025  19.985  1.00  0.00     0.210 C 
ENDBRANCH   4   9
TORSDOF 2
ENDMDL
MODEL 14
REMARK VINA RESULT:      -5.0      8.927     10.935
REMARK  2 active torsions:
REMARK  status: ('A' for Active; 'I' for Inactive)
REMARK    1  A    between atoms: C_2  and  C_3 
REMARK    2  A    between atoms: C_6  and  O_7 
ROOT
HETATM    1  C   LIG     1      15.025  31.796  15.621  1.00  0.00     0.002 A 
HETATM    2  C   LIG     1      15.517  31.068  14.529  1.00  0.00     0.017 A 
HETATM    3  C   LIG     1      14.786  29.999  14.003  1.00  0.00     0.037 A 
HETATM    4  C   LIG     1      13.544  29.642  14.564  1.00  0.00     0.068 A 
HETATM    5  C   LIG     1      13.055  30.371  15.654  1.00  0.00     0.037 A 
HETATM    6  C   LIG     1      13.787  31.441  16.181  1.00  0.00     0.017 A 
ENDROOT
BRANCH   1   7
HETATM    7  C   LIG     1      15.811  32.920  16.161  1.00  0.00     0.269 C 
HETATM    8  O   LIG     1      17.001  33.116  15.799  1.00  0.00    -0.301 OA
ENDBRANCH   1   7
BRANCH   4   9
HETATM    9  O   LIG     1      12.774  28.578  14.073  1.00  0.00    -0.356 OA
HETATM   10  C   LIG     1      13.309  27.339  13.621  1.00  0.00     0.210 C 
ENDBRANCH   4   9
TORSDOF 2
ENDMDL
MODEL 15
REMARK VINA RESULT:      -4.6      2.761      4.414
REMARK  2 active torsions:
REMARK  status: ('A' for Active; 'I' for Inactive)
REMARK    1  A    between atoms: C_2  and  C_3 
REMARK    2  A    between atoms: C_6  and  O_7 
ROOT
HETATM    1  C   LIG     1      16.706  37.095  22.064  1.00  0.00     0.002 A 
HETATM    2  C   LIG     1      15.307  37.005  22.010  1.00  0.00     0.017 A 
HETATM    3  C   LIG     1      14.689  35.820  21.600  1.00  0.00     0.037 A 
HETATM    4  C   LIG     1      15.465  34.703  21.235  1.00  0.00     0.068 A 
HETATM    5  C   LIG     1      16.860  34.795  21.290  1.00  0.00     0.037 A 
HETATM    6  C   LIG     1      17.480  35.980  21.700  1.00  0.00     0.017 A 
ENDROOT
BRANCH   1   7
HETATM    7  C   LIG     1      17.340  38.352  22.500  1.00  0.00     0.269 C 
HETATM    8  O   LIG     1      18.310  38.847  21.866  1.00  0.00    -0.301 OA
ENDBRANCH   1   7
BRANCH   4   9
HETATM    9  O   LIG     1      14.892  33.493  20.816  1.00  0.00    -0.356 OA
HETATM   10  C   LIG     1      15.405  32.683  19.765  1.00  0.00     0.210 C 
ENDBRANCH   4   9
TORSDOF 2
ENDMDL
MODEL 16
REMARK VINA RESULT:      -4.6      8.454      9.420
REMARK  2 active torsions:
REMARK  status: ('A' for Active; 'I' for Inactive)
REMARK    1  A    between atoms: C_2  and  C_3 
REMARK    2  A    between atoms: C_6  and  O_7 
ROOT
HETATM    1  C   LIG     1      16.853  32.921  13.905  1.00  0.00     0.002 A 
HETATM    2  C   LIG     1      16.177  31.850  13.302  1.00  0.00     0.017 A 
HETATM    3  C   LIG     1      15.274  31.077  14.038  1.00  0.00     0.037 A 
HETATM    4  C   LIG     1      15.032  31.366  15.394  1.00  0.00     0.068 A 
HETATM    5  C   LIG     1      15.708  32.435  15.994  1.00  0.00     0.037 A 
HETATM    6  C   LIG     1      16.612  33.209  15.259  1.00  0.00     0.017 A 
ENDROOT
BRANCH   1   7
HETATM    7  C   LIG     1      17.801  33.725  13.113  1.00  0.00     0.269 C 
HETATM    8  O   LIG     1      17.518  34.899  12.755  1.00  0.00    -0.301 OA
ENDBRANCH   1   7
BRANCH   4   9
HETATM    9  O   LIG     1      14.137  30.620  16.175  1.00  0.00    -0.356 OA
HETATM   10  C   LIG     1      12.745  30.895  16.285  1.00  0.00     0.210 C 
ENDBRANCH   4   9
TORSDOF 2
ENDMDL
MODEL 17
REMARK VINA RESULT:      -4.5      5.625      6.764
REMARK  2 active torsions:
REMARK  status: ('A' for Active; 'I' for Inactive)
REMARK    1  A    between atoms: C_2  and  C_3 
REMARK    2  A    between atoms: C_6  and  O_7 
ROOT
HETATM    1  C   LIG     1      14.365  32.015  17.473  1.00  0.00     0.002 A 
HETATM    2  C   LIG     1      14.644  31.667  18.803  1.00  0.00     0.017 A 
HETATM    3  C   LIG     1      15.226  32.595  19.671  1.00  0.00     0.037 A 
HETATM    4  C   LIG     1      15.539  33.892  19.220  1.00  0.00     0.068 A 
HETATM    5  C   LIG     1      15.260  34.237  17.893  1.00  0.00     0.037 A 
HETATM    6  C   LIG     1      14.677  33.309  17.023  1.00  0.00     0.017 A 
ENDROOT
BRANCH   1   7
HETATM    7  C   LIG     1      13.751  31.023  16.573  1.00  0.00     0.269 C 
HETATM    8  O   LIG     1      12.616  30.534  16.821  1.00  0.00    -0.301 OA
ENDBRANCH   1   7
BRANCH   4   9
HETATM    9  O   LIG     1      16.124  34.858  20.052  1.00  0.00    -0.356 OA
HETATM   10  C   LIG     1      15.419  35.603  21.039  1.00  0.00     0.210 C 
ENDBRANCH   4   9
TORSDOF 2
ENDMDL
MODEL 18
REMARK VINA RESULT:      -4.4      2.797      3.890
REMARK  2 active torsions:
REMARK  status: ('A' for Active; 'I' for Inactive)
REMARK    1  A    between atoms: C_2  and  C_3 
REMARK    2  A    between atoms: C_6  and  O_7 
ROOT
HETATM    1  C   LIG     1      16.821  37.758  23.267  1.00  0.00     0.002 A 
HETATM    2  C   LIG     1      17.204  38.037  24.587  1.00  0.00     0.017 A 
HETATM    3  C   LIG     1      17.528  36.999  25.465  1.00  0.00     0.037 A 
HETATM    4  C   LIG     1      17.474  35.660  25.033  1.00  0.00     0.068 A 
HETATM    5  C   LIG     1      17.092  35.384  23.715  1.00  0.00     0.037 A 
HETATM    6  C   LIG     1      16.768  36.422  22.836  1.00  0.00     0.017 A 
ENDROOT
BRANCH   1   7
HETATM    7  C   LIG     1      16.484  38.866  22.356  1.00  0.00     0.269 C 
HETATM    8  O   LIG     1      15.399  39.498  22.472  1.00  0.00    -0.301 OA
ENDBRANCH   1   7
BRANCH   4   9
HETATM    9  O   LIG     1      17.789  34.583  25.876  1.00  0.00    -0.356 OA
HETATM   10  C   LIG     1      18.837  34.596  26.839  1.00  0.00     0.210 C 
ENDBRANCH   4   9
TORSDOF 2
ENDMDL
MODEL 19
REMARK VINA RESULT:      -4.3     10.116     12.066
REMARK  2 active torsions:
REMARK  status: ('A' for Active; 'I' for Inactive)
REMARK    1  A    between atoms: C_2  and  C_3 
REMARK    2  A    between atoms: C_6  and  O_7 
ROOT
HETATM    1  C   LIG     1      15.066  30.716  14.697  1.00  0.00     0.002 A 
HETATM    2  C   LIG     1      13.752  30.723  15.189  1.00  0.00     0.017 A 
HETATM    3  C   LIG     1      12.899  29.643  14.945  1.00  0.00     0.037 A 
HETATM    4  C   LIG     1      13.349  28.534  14.203  1.00  0.00     0.068 A 
HETATM    5  C   LIG     1      14.661  28.529  13.714  1.00  0.00     0.037 A 
HETATM    6  C   LIG     1      15.515  29.609  13.957  1.00  0.00     0.017 A 
ENDROOT
BRANCH   1   7
HETATM    7  C   LIG     1      15.951  31.863  14.966  1.00  0.00     0.269 C 
HETATM    8  O   LIG     1      17.020  32.025  14.320  1.00  0.00    -0.301 OA
ENDBRANCH   1   7
BRANCH   4   9
HETATM    9  O   LIG     1      12.532  27.427  13.931  1.00  0.00    -0.356 OA
HETATM   10  C   LIG     1      12.588  26.662  12.733  1.00  0.00     0.210 C 
ENDBRANCH   4   9
TORSDOF 2
ENDMDL
MODEL 20
REMARK VINA RESULT:      -4.0      9.642     11.762
REMARK  2 active torsions:
REMARK  status: ('A' for Active; 'I' for Inactive)
REMARK    1  A    between atoms: C_2  and  C_3 
REMARK    2  A    between atoms: C_6  and  O_7 
ROOT
HETATM    1  C   LIG     1      14.445  31.036  15.499  1.00  0.00     0.002 A 
HETATM    2  C   LIG     1      13.258  30.306  15.343  1.00  0.00     0.017 A 
HETATM    3  C   LIG     1      13.230  29.163  14.538  1.00  0.00     0.037 A 
HETATM    4  C   LIG     1      14.396  28.731  13.876  1.00  0.00     0.068 A 
HETATM    5  C   LIG     1      15.579  29.462  14.034  1.00  0.00     0.037 A 
HETATM    6  C   LIG     1      15.608  30.606  14.838  1.00  0.00     0.017 A 
ENDROOT
BRANCH   1   7
HETATM    7  C   LIG     1      14.455  32.239  16.352  1.00  0.00     0.269 C 
HETATM    8  O   LIG     1      13.385  32.715  16.817  1.00  0.00    -0.301 OA
ENDBRANCH   1   7
BRANCH   4   9
HETATM    9  O   LIG     1      14.419  27.592  13.059  1.00  0.00    -0.356 OA
HETATM   10  C   LIG     1      15.602  27.015  12.517  1.00  0.00     0.210 C 
ENDBRANCH   4   9
TORSDOF 2
ENDMDL
