REMARK  2 active torsions:
REMARK  status: ('A' for Active; 'I' for Inactive)
REMARK    1  A    between atoms: C_2  and  C_3 
REMARK    2  A    between atoms: C_3  and  C_4 
ROOT
HETATM    1  C   LIG     1       0.064  -1.044   0.441  1.00  0.00     0.155 C 
ENDROOT
BRANCH   1   2
HETATM    2  C   LIG     1       0.780   0.111   1.084  1.00  0.00     0.130 C 
HETATM    3  C   LIG     1       1.960   0.744   0.410  1.00  0.00     0.091 C 
HETATM    4  O   LIG     1       0.407   0.527   2.171  1.00  0.00    -0.298 OA
ENDBRANCH   1   2
BRANCH   1   5
HETATM    5  C   LIG     1      -1.363  -0.680   0.131  1.00  0.00     0.130 C 
HETATM    6  C   LIG     1      -1.690   0.336  -0.923  1.00  0.00     0.091 C 
HETATM    7  O   LIG     1      -2.272  -1.221   0.742  1.00  0.00    -0.298 OA
ENDBRANCH   1   5
TORSDOF 2
