MODEL 1
REMARK VINA RESULT:      -6.5      0.000      0.000
REMARK  9 active torsions:
REMARK  status: ('A' for Active; 'I' for Inactive)
REMARK    1  A    between atoms: C_2  and  C_6 
REMARK    2  A    between atoms: C_2  and  O_3 
REMARK    3  A    between atoms: O_3  and  C_4 
REMARK    4  A    between atoms: C_6  and  C_7 
REMARK    5  A    between atoms: C_7  and  C_8 
REMARK    6  A    between atoms: C_8  and  C_9 
REMARK    7  A    between atoms: C_9  and  C_10 
REMARK    8  A    between atoms: C_10  and  C_11 
REMARK    9  A    between atoms: C_11  and  C_12 
ROOT
HETATM    1  C   LIG     1      17.881  38.070  21.555  1.00  0.00     0.010 C 
ENDROOT
BRANCH   1   2
HETATM    2  C   LIG     1      18.940  39.172  21.413  1.00  0.00     0.111 C 
BRANCH   2   3
HETATM    3  C   LIG     1      19.530  39.197  20.037  1.00  0.00     0.258 C 
HETATM    4  O   LIG     1      20.736  38.867  19.868  1.00  0.00    -0.265 OA
BRANCH   3   5
HETATM    5  O   LIG     1      18.744  39.618  18.959  1.00  0.00    -0.322 OA
BRANCH   5   6
HETATM    6  C   LIG     1      18.806  39.024  17.664  1.00  0.00     0.174 C 
HETATM    7  C   LIG     1      18.601  40.078  16.582  1.00  0.00     0.034 C 
ENDBRANCH   5   6
ENDBRANCH   3   5
ENDBRANCH   2   3
ENDBRANCH   1   2
BRANCH   1   8
HETATM    8  C   LIG     1      16.822  38.416  22.617  1.00  0.00     0.000 C 
BRANCH   8   9
HETATM    9  C   LIG     1      16.810  37.427  23.798  1.00  0.00     0.000 C 
BRANCH   9  10
HETATM   10  C   LIG     1      17.296  38.003  25.140  1.00  0.00     0.000 C 
BRANCH  10  11
HETATM   11  C   LIG     1      18.577  37.326  25.656  1.00  0.00    -0.000 C 
BRANCH  11  12
HETATM   12  C   LIG     1      18.292  36.278  26.743  1.00  0.00    -0.005 C 
HETATM   13  C   LIG     1      18.142  34.864  26.180  1.00  0.00     0.005 C 
ENDBRANCH  11  12
ENDBRANCH  10  11
ENDBRANCH   9  10
ENDBRANCH   8   9
ENDBRANCH   1   8
TORSDOF 9
ENDMDL
MODEL 2
REMARK VINA RESULT:      -6.4      2.906      6.318
REMARK  9 active torsions:
REMARK  status: ('A' for Active; 'I' for Inactive)
REMARK    1  A    between atoms: C_2  and  C_6 
REMARK    2  A    between atoms: C_2  and  O_3 
REMARK    3  A    between atoms: O_3  and  C_4 
REMARK    4  A    between atoms: C_6  and  C_7 
REMARK    5  A    between atoms: C_7  and  C_8 
REMARK    6  A    between atoms: C_8  and  C_9 
REMARK    7  A    between atoms: C_9  and  C_10 
REMARK    8  A    between atoms: C_10  and  C_11 
REMARK    9  A    between atoms: C_11  and  C_12 
ROOT
HETATM    1  C   LIG     1      16.789  38.181  22.506  1.00  0.00     0.010 C 
ENDROOT
BRANCH   1   2
HETATM    2  C   LIG     1      18.018  38.417  23.394  1.00  0.00     0.111 C 
BRANCH   2   3
HETATM    3  C   LIG     1      17.758  38.023  24.815  1.00  0.00     0.258 C 
HETATM    4  O   LIG     1      16.763  38.502  25.425  1.00  0.00    -0.265 OA
BRANCH   3   5
HETATM    5  O   LIG     1      18.642  37.151  25.459  1.00  0.00    -0.322 OA
BRANCH   5   6
HETATM    6  C   LIG     1      18.237  36.222  26.462  1.00  0.00     0.174 C 
HETATM    7  C   LIG     1      17.625  34.979  25.824  1.00  0.00     0.034 C 
ENDBRANCH   5   6
ENDBRANCH   3   5
ENDBRANCH   2   3
ENDBRANCH   1   2
BRANCH   1   8
HETATM    8  C   LIG     1      16.388  36.697  22.452  1.00  0.00     0.000 C 
BRANCH   8   9
HETATM    9  C   LIG     1      17.362  35.841  21.620  1.00  0.00     0.000 C 
BRANCH   9  10
HETATM   10  C   LIG     1      17.499  36.253  20.142  1.00  0.00     0.000 C 
BRANCH  10  11
HETATM   11  C   LIG     1      18.923  36.699  19.772  1.00  0.00    -0.000 C 
BRANCH  11  12
HETATM   12  C   LIG     1      18.970  38.143  19.250  1.00  0.00    -0.005 C 
HETATM   13  C   LIG     1      19.817  39.064  20.129  1.00  0.00     0.005 C 
ENDBRANCH  11  12
ENDBRANCH  10  11
ENDBRANCH   9  10
ENDBRANCH   8   9
ENDBRANCH   1   8
TORSDOF 9
ENDMDL
MODEL 3
REMARK VINA RESULT:      -6.4      1.941      2.737
REMARK  9 active torsions:
REMARK  status: ('A' for Active; 'I' for Inactive)
REMARK    1  A    between atoms: C_2  and  C_6 
REMARK    2  A    between atoms: C_2  and  O_3 
REMARK    3  A    between atoms: O_3  and  C_4 
REMARK    4  A    between atoms: C_6  and  C_7 
REMARK    5  A    between atoms: C_7  and  C_8 
REMARK    6  A    between atoms: C_8  and  C_9 
REMARK    7  A    between atoms: C_9  and  C_10 
REMARK    8  A    between atoms: C_10  and  C_11 
REMARK    9  A    between atoms: C_11  and  C_12 
ROOT
HETATM    1  C   LIG     1      15.864  37.077  22.290  1.00  0.00     0.010 C 
ENDROOT
BRANCH   1   2
HETATM    2  C   LIG     1      16.994  36.070  22.041  1.00  0.00     0.111 C 
BRANCH   2   3
HETATM    3  C   LIG     1      17.458  36.100  20.617  1.00  0.00     0.258 C 
HETATM    4  O   LIG     1      16.797  35.493  19.731  1.00  0.00    -0.265 OA
BRANCH   3   5
HETATM    5  O   LIG     1      18.639  36.776  20.293  1.00  0.00    -0.322 OA
BRANCH   5   6
HETATM    6  C   LIG     1      18.664  38.085  19.729  1.00  0.00     0.174 C 
HETATM    7  C   LIG     1      19.270  39.080  20.713  1.00  0.00     0.034 C 
ENDBRANCH   5   6
ENDBRANCH   3   5
ENDBRANCH   2   3
ENDBRANCH   1   2
BRANCH   1   8
HETATM    8  C   LIG     1      16.350  38.317  23.061  1.00  0.00     0.000 C 
BRANCH   8   9
HETATM    9  C   LIG     1      17.637  38.056  23.867  1.00  0.00     0.000 C 
BRANCH   9  10
HETATM   10  C   LIG     1      17.427  37.782  25.367  1.00  0.00     0.000 C 
BRANCH  10  11
HETATM   11  C   LIG     1      18.613  37.047  26.015  1.00  0.00    -0.000 C 
BRANCH  11  12
HETATM   12  C   LIG     1      18.225  35.659  26.548  1.00  0.00    -0.005 C 
HETATM   13  C   LIG     1      17.347  34.873  25.573  1.00  0.00     0.005 C 
ENDBRANCH  11  12
ENDBRANCH  10  11
ENDBRANCH   9  10
ENDBRANCH   8   9
ENDBRANCH   1   8
TORSDOF 9
ENDMDL
MODEL 4
REMARK VINA RESULT:      -6.3      3.086      5.967
REMARK  9 active torsions:
REMARK  status: ('A' for Active; 'I' for Inactive)
REMARK    1  A    between atoms: C_2  and  C_6 
REMARK    2  A    between atoms: C_2  and  O_3 
REMARK    3  A    between atoms: O_3  and  C_4 
REMARK    4  A    between atoms: C_6  and  C_7 
REMARK    5  A    between atoms: C_7  and  C_8 
REMARK    6  A    between atoms: C_8  and  C_9 
REMARK    7  A    between atoms: C_9  and  C_10 
REMARK    8  A    between atoms: C_10  and  C_11 
REMARK    9  A    between atoms: C_11  and  C_12 
ROOT
HETATM    1  C   LIG     1      17.698  38.914  22.430  1.00  0.00     0.010 C 
ENDROOT
BRANCH   1   2
HETATM    2  C   LIG     1      18.205  38.382  23.777  1.00  0.00     0.111 C 
BRANCH   2   3
HETATM    3  C   LIG     1      17.079  37.910  24.644  1.00  0.00     0.258 C 
HETATM    4  O   LIG     1      15.898  37.932  24.202  1.00  0.00    -0.265 OA
BRANCH   3   5
HETATM    5  O   LIG     1      17.349  37.482  25.948  1.00  0.00    -0.322 OA
BRANCH   5   6
HETATM    6  C   LIG     1      18.138  36.333  26.249  1.00  0.00     0.174 C 
HETATM    7  C   LIG     1      17.553  35.092  25.584  1.00  0.00     0.034 C 
ENDBRANCH   5   6
ENDBRANCH   3   5
ENDBRANCH   2   3
ENDBRANCH   1   2
BRANCH   1   8
HETATM    8  C   LIG     1      18.841  39.131  21.423  1.00  0.00     0.000 C 
BRANCH   8   9
HETATM    9  C   LIG     1      18.574  38.468  20.058  1.00  0.00     0.000 C 
BRANCH   9  10
HETATM   10  C   LIG     1      18.720  36.936  20.034  1.00  0.00     0.000 C 
BRANCH  10  11
HETATM   11  C   LIG     1      17.379  36.202  20.202  1.00  0.00    -0.000 C 
BRANCH  11  12
HETATM   12  C   LIG     1      17.298  35.420  21.522  1.00  0.00    -0.005 C 
HETATM   13  C   LIG     1      15.891  34.902  21.820  1.00  0.00     0.005 C 
ENDBRANCH  11  12
ENDBRANCH  10  11
ENDBRANCH   9  10
ENDBRANCH   8   9
ENDBRANCH   1   8
TORSDOF 9
ENDMDL
MODEL 5
REMARK VINA RESULT:      -6.2      4.097      4.996
REMARK  9 active torsions:
REMARK  status: ('A' for Active; 'I' for Inactive)
REMARK    1  A    between atoms: C_2  and  C_6 
REMARK    2  A    between atoms: C_2  and  O_3 
REMARK    3  A    between atoms: O_3  and  C_4 
REMARK    4  A    between atoms: C_6  and  C_7 
REMARK    5  A    between atoms: C_7  and  C_8 
REMARK    6  A    between atoms: C_8  and  C_9 
REMARK    7  A    between atoms: C_9  and  C_10 
REMARK    8  A    between atoms: C_10  and  C_11 
REMARK    9  A    between atoms: C_11  and  C_12 
ROOT
HETATM    1  C   LIG     1      17.493  36.018  21.282  1.00  0.00     0.010 C 
ENDROOT
BRANCH   1   2
HETATM    2  C   LIG     1      16.484  35.231  22.130  1.00  0.00     0.111 C 
BRANCH   2   3
HETATM    3  C   LIG     1      15.544  34.437  21.275  1.00  0.00     0.258 C 
HETATM    4  O   LIG     1      14.373  34.207  21.682  1.00  0.00    -0.265 OA
BRANCH   3   5
HETATM    5  O   LIG     1      15.990  33.933  20.049  1.00  0.00    -0.322 OA
BRANCH   5   6
HETATM    6  C   LIG     1      15.263  32.974  19.285  1.00  0.00     0.174 C 
HETATM    7  C   LIG     1      15.454  31.575  19.860  1.00  0.00     0.034 C 
ENDBRANCH   5   6
ENDBRANCH   3   5
ENDBRANCH   2   3
ENDBRANCH   1   2
BRANCH   1   8
HETATM    8  C   LIG     1      17.486  37.520  21.616  1.00  0.00     0.000 C 
BRANCH   8   9
HETATM    9  C   LIG     1      16.807  37.832  22.963  1.00  0.00     0.000 C 
BRANCH   9  10
HETATM   10  C   LIG     1      17.768  38.104  24.135  1.00  0.00     0.000 C 
BRANCH  10  11
HETATM   11  C   LIG     1      17.343  37.400  25.435  1.00  0.00    -0.000 C 
BRANCH  11  12
HETATM   12  C   LIG     1      18.502  36.635  26.094  1.00  0.00    -0.005 C 
HETATM   13  C   LIG     1      18.207  35.145  26.264  1.00  0.00     0.005 C 
ENDBRANCH  11  12
ENDBRANCH  10  11
ENDBRANCH   9  10
ENDBRANCH   8   9
ENDBRANCH   1   8
TORSDOF 9
ENDMDL
MODEL 6
REMARK VINA RESULT:      -5.9      4.502      6.164
REMARK  9 active torsions:
REMARK  status: ('A' for Active; 'I' for Inactive)
REMARK    1  A    between atoms: C_2  and  C_6 
REMARK    2  A    between atoms: C_2  and  O_3 
REMARK    3  A    between atoms: O_3  and  C_4 
REMARK    4  A    between atoms: C_6  and  C_7 
REMARK    5  A    between atoms: C_7  and  C_8 
REMARK    6  A    between atoms: C_8  and  C_9 
REMARK    7  A    between atoms: C_9  and  C_10 
REMARK    8  A    between atoms: C_10  and  C_11 
REMARK    9  A    between atoms: C_11  and  C_12 
ROOT
HETATM    1  C   LIG     1      15.827  36.426  21.775  1.00  0.00     0.010 C 
ENDROOT
BRANCH   1   2
HETATM    2  C   LIG     1      16.261  35.432  20.689  1.00  0.00     0.111 C 
BRANCH   2   3
HETATM    3  C   LIG     1      15.500  34.145  20.782  1.00  0.00     0.258 C 
HETATM    4  O   LIG     1      14.533  34.047  21.586  1.00  0.00    -0.265 OA
BRANCH   3   5
HETATM    5  O   LIG     1      15.894  33.055  19.998  1.00  0.00    -0.322 OA
BRANCH   5   6
HETATM    6  C   LIG     1      15.060  31.927  19.748  1.00  0.00     0.174 C 
HETATM    7  C   LIG     1      14.560  31.939  18.308  1.00  0.00     0.034 C 
ENDBRANCH   5   6
ENDBRANCH   3   5
ENDBRANCH   2   3
ENDBRANCH   1   2
BRANCH   1   8
HETATM    8  C   LIG     1      17.024  36.975  22.571  1.00  0.00     0.000 C 
BRANCH   8   9
HETATM    9  C   LIG     1      17.102  38.513  22.555  1.00  0.00     0.000 C 
BRANCH   9  10
HETATM   10  C   LIG     1      18.411  39.098  21.994  1.00  0.00     0.000 C 
BRANCH  10  11
HETATM   11  C   LIG     1      18.433  39.154  20.457  1.00  0.00    -0.000 C 
BRANCH  11  12
HETATM   12  C   LIG     1      19.621  38.385  19.857  1.00  0.00    -0.005 C 
HETATM   13  C   LIG     1      19.268  36.944  19.486  1.00  0.00     0.005 C 
ENDBRANCH  11  12
ENDBRANCH  10  11
ENDBRANCH   9  10
ENDBRANCH   8   9
ENDBRANCH   1   8
TORSDOF 9
ENDMDL
MODEL 7
REMARK VINA RESULT:      -5.7      5.804      6.340
REMARK  9 active torsions:
REMARK  status: ('A' for Active; 'I' for Inactive)
REMARK    1  A    between atoms: C_2  and  C_6 
REMARK    2  A    between atoms: C_2  and  O_3 
REMARK    3  A    between atoms: O_3  and  C_4 
REMARK    4  A    between atoms: C_6  and  C_7 
REMARK    5  A    between atoms: C_7  and  C_8 
REMARK    6  A    between atoms: C_8  and  C_9 
REMARK    7  A    between atoms: C_9  and  C_10 
REMARK    8  A    between atoms: C_10  and  C_11 
REMARK    9  A    between atoms: C_11  and  C_12 
ROOT
HETATM    1  C   LIG     1      14.996  34.031  21.309  1.00  0.00     0.010 C 
ENDROOT
BRANCH   1   2
HETATM    2  C   LIG     1      15.796  33.297  20.224  1.00  0.00     0.111 C 
BRANCH   2   3
HETATM    3  C   LIG     1      14.947  32.307  19.487  1.00  0.00     0.258 C 
HETATM    4  O   LIG     1      14.480  31.307  20.097  1.00  0.00    -0.265 OA
BRANCH   3   5
HETATM    5  O   LIG     1      14.709  32.489  18.120  1.00  0.00    -0.322 OA
BRANCH   5   6
HETATM    6  C   LIG     1      14.185  31.470  17.273  1.00  0.00     0.174 C 
HETATM    7  C   LIG     1      12.787  31.841  16.791  1.00  0.00     0.034 C 
ENDBRANCH   5   6
ENDBRANCH   3   5
ENDBRANCH   2   3
ENDBRANCH   1   2
BRANCH   1   8
HETATM    8  C   LIG     1      15.661  35.355  21.724  1.00  0.00     0.000 C 
BRANCH   8   9
HETATM    9  C   LIG     1      17.016  35.153  22.428  1.00  0.00     0.000 C 
BRANCH   9  10
HETATM   10  C   LIG     1      17.149  35.835  23.802  1.00  0.00     0.000 C 
BRANCH  10  11
HETATM   11  C   LIG     1      17.145  34.834  24.971  1.00  0.00    -0.000 C 
BRANCH  11  12
HETATM   12  C   LIG     1      18.228  35.145  26.015  1.00  0.00    -0.005 C 
HETATM   13  C   LIG     1      18.375  36.641  26.291  1.00  0.00     0.005 C 
ENDBRANCH  11  12
ENDBRANCH  10  11
ENDBRANCH   9  10
ENDBRANCH   8   9
ENDBRANCH   1   8
TORSDOF 9
ENDMDL
MODEL 8
REMARK VINA RESULT:      -5.6      5.174      6.151
REMARK  9 active torsions:
REMARK  status: ('A' for Active; 'I' for Inactive)
REMARK    1  A    between atoms: C_2  and  C_6 
REMARK    2  A    between atoms: C_2  and  O_3 
REMARK    3  A    between atoms: O_3  and  C_4 
REMARK    4  A    between atoms: C_6  and  C_7 
REMARK    5  A    between atoms: C_7  and  C_8 
REMARK    6  A    between atoms: C_8  and  C_9 
REMARK    7  A    between atoms: C_9  and  C_10 
REMARK    8  A    between atoms: C_10  and  C_11 
REMARK    9  A    between atoms: C_11  and  C_12 
ROOT
HETATM    1  C   LIG     1      15.768  35.010  20.082  1.00  0.00     0.010 C 
ENDROOT
BRANCH   1   2
HETATM    2  C   LIG     1      15.314  33.693  20.727  1.00  0.00     0.111 C 
BRANCH   2   3
HETATM    3  C   LIG     1      15.238  32.584  19.724  1.00  0.00     0.258 C 
HETATM    4  O   LIG     1      14.844  31.441  20.084  1.00  0.00    -0.265 OA
BRANCH   3   5
HETATM    5  O   LIG     1      15.637  32.822  18.404  1.00  0.00    -0.322 OA
BRANCH   5   6
HETATM    6  C   LIG     1      14.762  32.697  17.286  1.00  0.00     0.174 C 
HETATM    7  C   LIG     1      15.552  32.723  15.982  1.00  0.00     0.034 C 
ENDBRANCH   5   6
ENDBRANCH   3   5
ENDBRANCH   2   3
ENDBRANCH   1   2
BRANCH   1   8
HETATM    8  C   LIG     1      16.963  35.637  20.822  1.00  0.00     0.000 C 
BRANCH   8   9
HETATM    9  C   LIG     1      16.979  35.306  22.326  1.00  0.00     0.000 C 
BRANCH   9  10
HETATM   10  C   LIG     1      16.898  36.523  23.266  1.00  0.00     0.000 C 
BRANCH  10  11
HETATM   11  C   LIG     1      16.358  37.784  22.569  1.00  0.00    -0.000 C 
BRANCH  11  12
HETATM   12  C   LIG     1      17.334  38.967  22.654  1.00  0.00    -0.005 C 
HETATM   13  C   LIG     1      18.224  39.092  21.416  1.00  0.00     0.005 C 
ENDBRANCH  11  12
ENDBRANCH  10  11
ENDBRANCH   9  10
ENDBRANCH   8   9
ENDBRANCH   1   8
TORSDOF 9
ENDMDL
MODEL 9
REMARK VINA RESULT:      -5.6      4.127      6.210
REMARK  9 active torsions:
REMARK  status: ('A' for Active; 'I' for Inactive)
REMARK    1  A    between atoms: C_2  and  C_6 
REMARK    2  A    between atoms: C_2  and  O_3 
REMARK    3  A    between atoms: O_3  and  C_4 
REMARK    4  A    between atoms: C_6  and  C_7 
REMARK    5  A    between atoms: C_7  and  C_8 
REMARK    6  A    between atoms: C_8  and  C_9 
REMARK    7  A    between atoms: C_9  and  C_10 
REMARK    8  A    between atoms: C_10  and  C_11 
REMARK    9  A    between atoms: C_11  and  C_12 
ROOT
HETATM    1  C   LIG     1      17.575  37.554  21.193  1.00  0.00     0.010 C 
ENDROOT
BRANCH   1   2
HETATM    2  C   LIG     1      17.816  38.267  22.530  1.00  0.00     0.111 C 
BRANCH   2   3
HETATM    3  C   LIG     1      16.539  38.476  23.283  1.00  0.00     0.258 C 
HETATM    4  O   LIG     1      15.619  39.172  22.773  1.00  0.00    -0.265 OA
BRANCH   3   5
HETATM    5  O   LIG     1      16.396  37.923  24.560  1.00  0.00    -0.322 OA
BRANCH   5   6
HETATM    6  C   LIG     1      17.489  37.420  25.324  1.00  0.00     0.174 C 
HETATM    7  C   LIG     1      17.477  35.895  25.335  1.00  0.00     0.034 C 
ENDBRANCH   5   6
ENDBRANCH   3   5
ENDBRANCH   2   3
ENDBRANCH   1   2
BRANCH   1   8
HETATM    8  C   LIG     1      17.907  36.054  21.267  1.00  0.00     0.000 C 
BRANCH   8   9
HETATM    9  C   LIG     1      16.709  35.194  21.713  1.00  0.00     0.000 C 
BRANCH   9  10
HETATM   10  C   LIG     1      15.655  34.923  20.623  1.00  0.00     0.000 C 
BRANCH  10  11
HETATM   11  C   LIG     1      14.991  33.542  20.762  1.00  0.00    -0.000 C 
BRANCH  11  12
HETATM   12  C   LIG     1      15.647  32.482  19.864  1.00  0.00    -0.005 C 
HETATM   13  C   LIG     1      14.653  31.810  18.916  1.00  0.00     0.005 C 
ENDBRANCH  11  12
ENDBRANCH  10  11
ENDBRANCH   9  10
ENDBRANCH   8   9
ENDBRANCH   1   8
TORSDOF 9
ENDMDL
MODEL 10
REMARK VINA RESULT:      -5.4      5.616      7.825
REMARK  9 active torsions:
REMARK  status: ('A' for Active; 'I' for Inactive)
REMARK    1  A    between atoms: C_2  and  C_6 
REMARK    2  A    between atoms: C_2  and  O_3 
REMARK    3  A    between atoms: O_3  and  C_4 
REMARK    4  A    between atoms: C_6  and  C_7 
REMARK    5  A    between atoms: C_7  and  C_8 
REMARK    6  A    between atoms: C_8  and  C_9 
REMARK    7  A    between atoms: C_9  and  C_10 
REMARK    8  A    between atoms: C_10  and  C_11 
REMARK    9  A    between atoms: C_11  and  C_12 
ROOT
HETATM    1  C   LIG     1      15.451  35.187  21.323  1.00  0.00     0.010 C 
ENDROOT
BRANCH   1   2
HETATM    2  C   LIG     1      16.786  35.186  22.081  1.00  0.00     0.111 C 
BRANCH   2   3
HETATM    3  C   LIG     1      16.898  36.360  23.004  1.00  0.00     0.258 C 
HETATM    4  O   LIG     1      16.737  37.527  22.554  1.00  0.00    -0.265 OA
BRANCH   3   5
HETATM    5  O   LIG     1      17.212  36.147  24.351  1.00  0.00    -0.322 OA
BRANCH   5   6
HETATM    6  C   LIG     1      17.609  37.190  25.238  1.00  0.00     0.174 C 
HETATM    7  C   LIG     1      18.387  36.621  26.420  1.00  0.00     0.034 C 
ENDBRANCH   5   6
ENDBRANCH   3   5
ENDBRANCH   2   3
ENDBRANCH   1   2
BRANCH   1   8
HETATM    8  C   LIG     1      15.539  34.423  19.991  1.00  0.00     0.000 C 
BRANCH   8   9
HETATM    9  C   LIG     1      15.662  32.899  20.178  1.00  0.00     0.000 C 
BRANCH   9  10
HETATM   10  C   LIG     1      14.897  32.048  19.147  1.00  0.00     0.000 C 
BRANCH  10  11
HETATM   11  C   LIG     1      15.029  32.583  17.711  1.00  0.00    -0.000 C 
BRANCH  11  12
HETATM   12  C   LIG     1      13.757  32.357  16.880  1.00  0.00    -0.005 C 
HETATM   13  C   LIG     1      13.498  30.880  16.582  1.00  0.00     0.005 C 
ENDBRANCH  11  12
ENDBRANCH  10  11
ENDBRANCH   9  10
ENDBRANCH   8   9
ENDBRANCH   1   8
TORSDOF 9
ENDMDL
MODEL 11
REMARK VINA RESULT:      -5.4      4.691      6.137
REMARK  9 active torsions:
REMARK  status: ('A' for Active; 'I' for Inactive)
REMARK    1  A    between atoms: C_2  and  C_6 
REMARK    2  A    between atoms: C_2  and  O_3 
REMARK    3  A    between atoms: O_3  and  C_4 
REMARK    4  A    between atoms: C_6  and  C_7 
REMARK    5  A    between atoms: C_7  and  C_8 
REMARK    6  A    between atoms: C_8  and  C_9 
REMARK    7  A    between atoms: C_9  and  C_10 
REMARK    8  A    between atoms: C_10  and  C_11 
REMARK    9  A    between atoms: C_11  and  C_12 
ROOT
HETATM    1  C   LIG     1      16.812  35.199  22.123  1.00  0.00     0.010 C 
ENDROOT
BRANCH   1   2
HETATM    2  C   LIG     1      16.854  36.184  23.299  1.00  0.00     0.111 C 
BRANCH   2   3
HETATM    3  C   LIG     1      16.936  37.604  22.828  1.00  0.00     0.258 C 
HETATM    4  O   LIG     1      16.126  38.460  23.279  1.00  0.00    -0.265 OA
BRANCH   3   5
HETATM    5  O   LIG     1      17.891  37.956  21.868  1.00  0.00    -0.322 OA
BRANCH   5   6
HETATM    6  C   LIG     1      18.366  39.287  21.686  1.00  0.00     0.174 C 
HETATM    7  C   LIG     1      18.835  39.497  20.250  1.00  0.00     0.034 C 
ENDBRANCH   5   6
ENDBRANCH   3   5
ENDBRANCH   2   3
ENDBRANCH   1   2
BRANCH   1   8
HETATM    8  C   LIG     1      15.472  35.253  21.368  1.00  0.00     0.000 C 
BRANCH   8   9
HETATM    9  C   LIG     1      14.893  33.856  21.071  1.00  0.00     0.000 C 
BRANCH   9  10
HETATM   10  C   LIG     1      15.698  33.013  20.064  1.00  0.00     0.000 C 
BRANCH  10  11
HETATM   11  C   LIG     1      14.964  31.732  19.633  1.00  0.00    -0.000 C 
BRANCH  11  12
HETATM   12  C   LIG     1      14.339  31.855  18.235  1.00  0.00    -0.005 C 
HETATM   13  C   LIG     1      15.121  32.794  17.316  1.00  0.00     0.005 C 
ENDBRANCH  11  12
ENDBRANCH  10  11
ENDBRANCH   9  10
ENDBRANCH   8   9
ENDBRANCH   1   8
TORSDOF 9
ENDMDL
MODEL 12
REMARK VINA RESULT:      -5.3      8.459      9.569
REMARK  9 active torsions:
REMARK  status: ('A' for Active; 'I' for Inactive)
REMARK    1  A    between atoms: C_2  and  C_6 
REMARK    2  A    between atoms: C_2  and  O_3 
REMARK    3  A    between atoms: O_3  and  C_4 
REMARK    4  A    between atoms: C_6  and  C_7 
REMARK    5  A    between atoms: C_7  and  C_8 
REMARK    6  A    between atoms: C_8  and  C_9 
REMARK    7  A    between atoms: C_9  and  C_10 
REMARK    8  A    between atoms: C_10  and  C_11 
REMARK    9  A    between atoms: C_11  and  C_12 
ROOT
HETATM    1  C   LIG     1      15.011  30.128  14.575  1.00  0.00     0.010 C 
ENDROOT
BRANCH   1   2
HETATM    2  C   LIG     1      15.482  31.165  13.546  1.00  0.00     0.111 C 
BRANCH   2   3
HETATM    3  C   LIG     1      16.496  32.100  14.129  1.00  0.00     0.258 C 
HETATM    4  O   LIG     1      17.196  31.731  15.111  1.00  0.00    -0.265 OA
BRANCH   3   5
HETATM    5  O   LIG     1      16.630  33.387  13.596  1.00  0.00    -0.322 OA
BRANCH   5   6
HETATM    6  C   LIG     1      17.857  34.113  13.599  1.00  0.00     0.174 C 
HETATM    7  C   LIG     1      18.593  33.925  12.277  1.00  0.00     0.034 C 
ENDBRANCH   5   6
ENDBRANCH   3   5
ENDBRANCH   2   3
ENDBRANCH   1   2
BRANCH   1   8
HETATM    8  C   LIG     1      13.627  30.470  15.153  1.00  0.00     0.000 C 
BRANCH   8   9
HETATM    9  C   LIG     1      13.661  30.758  16.665  1.00  0.00     0.000 C 
BRANCH   9  10
HETATM   10  C   LIG     1      13.936  32.225  17.047  1.00  0.00     0.000 C 
BRANCH  10  11
HETATM   11  C   LIG     1      15.267  32.411  17.795  1.00  0.00    -0.000 C 
BRANCH  11  12
HETATM   12  C   LIG     1      15.073  32.582  19.309  1.00  0.00    -0.005 C 
HETATM   13  C   LIG     1      14.915  31.250  20.042  1.00  0.00     0.005 C 
ENDBRANCH  11  12
ENDBRANCH  10  11
ENDBRANCH   9  10
ENDBRANCH   8   9
ENDBRANCH   1   8
TORSDOF 9
ENDMDL
MODEL 13
REMARK VINA RESULT:      -5.2      6.303      6.991
REMARK  9 active torsions:
REMARK  status: ('A' for Active; 'I' for Inactive)
REMARK    1  A    between atoms: C_2  and  C_6 
REMARK    2  A    between atoms: C_2  and  O_3 
REMARK    3  A    between atoms: O_3  and  C_4 
REMARK    4  A    between atoms: C_6  and  C_7 
REMARK    5  A    between atoms: C_7  and  C_8 
REMARK    6  A    between atoms: C_8  and  C_9 
REMARK    7  A    between atoms: C_9  and  C_10 
REMARK    8  A    between atoms: C_10  and  C_11 
REMARK    9  A    between atoms: C_11  and  C_12 
ROOT
HETATM    1  C   LIG     1      15.979  33.155  20.336  1.00  0.00     0.010 C 
ENDROOT
BRANCH   1   2
HETATM    2  C   LIG     1      14.808  32.255  19.917  1.00  0.00     0.111 C 
BRANCH   2   3
HETATM    3  C   LIG     1      14.760  32.065  18.432  1.00  0.00     0.258 C 
HETATM    4  O   LIG     1      15.588  32.670  17.698  1.00  0.00    -0.265 OA
BRANCH   3   5
HETATM    5  O   LIG     1      13.775  31.242  17.876  1.00  0.00    -0.322 OA
BRANCH   5   6
HETATM    6  C   LIG     1      13.005  31.604  16.732  1.00  0.00     0.174 C 
HETATM    7  C   LIG     1      13.145  30.552  15.637  1.00  0.00     0.034 C 
ENDBRANCH   5   6
ENDBRANCH   3   5
ENDBRANCH   2   3
ENDBRANCH   1   2
BRANCH   1   8
HETATM    8  C   LIG     1      15.507  34.544  20.798  1.00  0.00     0.000 C 
BRANCH   8   9
HETATM    9  C   LIG     1      16.634  35.380  21.435  1.00  0.00     0.000 C 
BRANCH   9  10
HETATM   10  C   LIG     1      16.172  36.659  22.159  1.00  0.00     0.000 C 
BRANCH  10  11
HETATM   11  C   LIG     1      17.202  37.798  22.079  1.00  0.00    -0.000 C 
BRANCH  11  12
HETATM   12  C   LIG     1      17.311  38.586  23.393  1.00  0.00    -0.005 C 
HETATM   13  C   LIG     1      17.001  37.733  24.624  1.00  0.00     0.005 C 
ENDBRANCH  11  12
ENDBRANCH  10  11
ENDBRANCH   9  10
ENDBRANCH   8   9
ENDBRANCH   1   8
TORSDOF 9
ENDMDL
MODEL 14
REMARK VINA RESULT:      -5.2      9.672     10.607
REMARK  9 active torsions:
REMARK  status: ('A' for Active; 'I' for Inactive)
REMARK    1  A    between atoms: C_2  and  C_6 
REMARK    2  A    between atoms: C_2  and  O_3 
REMARK    3  A    between atoms: O_3  and  C_4 
REMARK    4  A    between atoms: C_6  and  C_7 
REMARK    5  A    between atoms: C_7  and  C_8 
REMARK    6  A    between atoms: C_8  and  C_9 
REMARK    7  A    between atoms: C_9  and  C_10 
REMARK    8  A    between atoms: C_10  and  C_11 
REMARK    9  A    between atoms: C_11  and  C_12 
ROOT
HETATM    1  C   LIG     1      17.809  33.278  14.372  1.00  0.00     0.010 C 
ENDROOT
BRANCH   1   2
HETATM    2  C   LIG     1      17.864  33.188  12.842  1.00  0.00     0.111 C 
BRANCH   2   3
HETATM    3  C   LIG     1      18.128  34.524  12.218  1.00  0.00     0.258 C 
HETATM    4  O   LIG     1      17.209  35.387  12.177  1.00  0.00    -0.265 OA
BRANCH   3   5
HETATM    5  O   LIG     1      19.384  34.786  11.661  1.00  0.00    -0.322 OA
BRANCH   5   6
HETATM    6  C   LIG     1      20.480  33.877  11.736  1.00  0.00     0.174 C 
HETATM    7  C   LIG     1      21.546  34.401  12.693  1.00  0.00     0.034 C 
ENDBRANCH   5   6
ENDBRANCH   3   5
ENDBRANCH   2   3
ENDBRANCH   1   2
BRANCH   1   8
HETATM    8  C   LIG     1      16.499  32.707  14.942  1.00  0.00     0.000 C 
BRANCH   8   9
HETATM    9  C   LIG     1      15.828  31.688  14.001  1.00  0.00     0.000 C 
BRANCH   9  10
HETATM   10  C   LIG     1      15.477  30.334  14.644  1.00  0.00     0.000 C 
BRANCH  10  11
HETATM   11  C   LIG     1      14.024  29.903  14.379  1.00  0.00    -0.000 C 
BRANCH  11  12
HETATM   12  C   LIG     1      13.041  30.485  15.406  1.00  0.00    -0.005 C 
HETATM   13  C   LIG     1      13.716  30.867  16.724  1.00  0.00     0.005 C 
ENDBRANCH  11  12
ENDBRANCH  10  11
ENDBRANCH   9  10
ENDBRANCH   8   9
ENDBRANCH   1   8
TORSDOF 9
ENDMDL
MODEL 15
REMARK VINA RESULT:      -5.1      8.657     11.366
REMARK  9 active torsions:
REMARK  status: ('A' for Active; 'I' for Inactive)
REMARK    1  A    between atoms: C_2  and  C_6 
REMARK    2  A    between atoms: C_2  and  O_3 
REMARK    3  A    between atoms: O_3  and  C_4 
REMARK    4  A    between atoms: C_6  and  C_7 
REMARK    5  A    between atoms: C_7  and  C_8 
REMARK    6  A    between atoms: C_8  and  C_9 
REMARK    7  A    between atoms: C_9  and  C_10 
REMARK    8  A    between atoms: C_10  and  C_11 
REMARK    9  A    between atoms: C_11  and  C_12 
ROOT
HETATM    1  C   LIG     1      14.881  30.363  15.209  1.00  0.00     0.010 C 
ENDROOT
BRANCH   1   2
HETATM    2  C   LIG     1      13.371  30.485  15.453  1.00  0.00     0.111 C 
BRANCH   2   3
HETATM    3  C   LIG     1      13.074  31.191  16.740  1.00  0.00     0.258 C 
HETATM    4  O   LIG     1      12.120  32.013  16.797  1.00  0.00    -0.265 OA
BRANCH   3   5
HETATM    5  O   LIG     1      13.883  30.953  17.857  1.00  0.00    -0.322 OA
BRANCH   5   6
HETATM    6  C   LIG     1      14.622  31.975  18.522  1.00  0.00     0.174 C 
HETATM    7  C   LIG     1      15.068  31.501  19.901  1.00  0.00     0.034 C 
ENDBRANCH   5   6
ENDBRANCH   3   5
ENDBRANCH   2   3
ENDBRANCH   1   2
BRANCH   1   8
HETATM    8  C   LIG     1      15.263  30.697  13.756  1.00  0.00     0.000 C 
BRANCH   8   9
HETATM    9  C   LIG     1      15.964  32.061  13.618  1.00  0.00     0.000 C 
BRANCH   9  10
HETATM   10  C   LIG     1      16.889  32.445  14.788  1.00  0.00     0.000 C 
BRANCH  10  11
HETATM   11  C   LIG     1      17.555  33.819  14.602  1.00  0.00    -0.000 C 
BRANCH  11  12
HETATM   12  C   LIG     1      17.992  34.068  13.150  1.00  0.00    -0.005 C 
HETATM   13  C   LIG     1      19.460  33.716  12.903  1.00  0.00     0.005 C 
ENDBRANCH  11  12
ENDBRANCH  10  11
ENDBRANCH   9  10
ENDBRANCH   8   9
ENDBRANCH   1   8
TORSDOF 9
ENDMDL
MODEL 16
REMARK VINA RESULT:      -5.0      7.761      9.238
REMARK  9 active torsions:
REMARK  status: ('A' for Active; 'I' for Inactive)
REMARK    1  A    between atoms: C_2  and  C_6 
REMARK    2  A    between atoms: C_2  and  O_3 
REMARK    3  A    between atoms: O_3  and  C_4 
REMARK    4  A    between atoms: C_6  and  C_7 
REMARK    5  A    between atoms: C_7  and  C_8 
REMARK    6  A    between atoms: C_8  and  C_9 
REMARK    7  A    between atoms: C_9  and  C_10 
REMARK    8  A    between atoms: C_10  and  C_11 
REMARK    9  A    between atoms: C_11  and  C_12 
ROOT
HETATM    1  C   LIG     1      17.139  32.466  14.963  1.00  0.00     0.010 C 
ENDROOT
BRANCH   1   2
HETATM    2  C   LIG     1      17.266  33.013  13.534  1.00  0.00     0.111 C 
BRANCH   2   3
HETATM    3  C   LIG     1      17.956  34.342  13.511  1.00  0.00     0.258 C 
HETATM    4  O   LIG     1      17.344  35.371  13.908  1.00  0.00    -0.265 OA
BRANCH   3   5
HETATM    5  O   LIG     1      19.262  34.431  13.016  1.00  0.00    -0.322 OA
BRANCH   5   6
HETATM    6  C   LIG     1      19.616  34.102  11.675  1.00  0.00     0.174 C 
HETATM    7  C   LIG     1      18.796  34.925  10.688  1.00  0.00     0.034 C 
ENDBRANCH   5   6
ENDBRANCH   3   5
ENDBRANCH   2   3
ENDBRANCH   1   2
BRANCH   1   8
HETATM    8  C   LIG     1      15.692  32.533  15.483  1.00  0.00     0.000 C 
BRANCH   8   9
HETATM    9  C   LIG     1      14.927  31.209  15.303  1.00  0.00     0.000 C 
BRANCH   9  10
HETATM   10  C   LIG     1      13.823  30.943  16.343  1.00  0.00     0.000 C 
BRANCH  10  11
HETATM   11  C   LIG     1      13.803  31.984  17.476  1.00  0.00    -0.000 C 
BRANCH  11  12
HETATM   12  C   LIG     1      14.513  31.486  18.744  1.00  0.00    -0.005 C 
HETATM   13  C   LIG     1      15.356  32.569  19.417  1.00  0.00     0.005 C 
ENDBRANCH  11  12
ENDBRANCH  10  11
ENDBRANCH   9  10
ENDBRANCH   8   9
ENDBRANCH   1   8
TORSDOF 9
ENDMDL
MODEL 17
REMARK VINA RESULT:      -4.9      6.709      8.490
REMARK  9 active torsions:
REMARK  status: ('A' for Active; 'I' for Inactive)
REMARK    1  A    between atoms: C_2  and  C_6 
REMARK    2  A    between atoms: C_2  and  O_3 
REMARK    3  A    between atoms: O_3  and  C_4 
REMARK    4  A    between atoms: C_6  and  C_7 
REMARK    5  A    between atoms: C_7  and  C_8 
REMARK    6  A    between atoms: C_8  and  C_9 
REMARK    7  A    between atoms: C_9  and  C_10 
REMARK    8  A    between atoms: C_10  and  C_11 
REMARK    9  A    between atoms: C_11  and  C_12 
ROOT
HETATM    1  C   LIG     1      15.642  33.108  20.195  1.00  0.00     0.010 C 
ENDROOT
BRANCH   1   2
HETATM    2  C   LIG     1      15.649  34.540  19.644  1.00  0.00     0.111 C 
BRANCH   2   3
HETATM    3  C   LIG     1      15.548  35.555  20.740  1.00  0.00     0.258 C 
HETATM    4  O   LIG     1      14.487  35.639  21.418  1.00  0.00    -0.265 OA
BRANCH   3   5
HETATM    5  O   LIG     1      16.621  36.420  20.978  1.00  0.00    -0.322 OA
BRANCH   5   6
HETATM    6  C   LIG     1      17.982  36.061  20.752  1.00  0.00     0.174 C 
HETATM    7  C   LIG     1      18.632  37.025  19.765  1.00  0.00     0.034 C 
ENDBRANCH   5   6
ENDBRANCH   3   5
ENDBRANCH   2   3
ENDBRANCH   1   2
BRANCH   1   8
HETATM    8  C   LIG     1      15.202  32.080  19.138  1.00  0.00     0.000 C 
BRANCH   8   9
HETATM    9  C   LIG     1      14.949  32.711  17.756  1.00  0.00     0.000 C 
BRANCH   9  10
HETATM   10  C   LIG     1      13.659  32.251  17.051  1.00  0.00     0.000 C 
BRANCH  10  11
HETATM   11  C   LIG     1      13.870  31.011  16.165  1.00  0.00    -0.000 C 
BRANCH  11  12
HETATM   12  C   LIG     1      15.011  31.199  15.153  1.00  0.00    -0.005 C 
HETATM   13  C   LIG     1      14.989  30.158  14.034  1.00  0.00     0.005 C 
ENDBRANCH  11  12
ENDBRANCH  10  11
ENDBRANCH   9  10
ENDBRANCH   8   9
ENDBRANCH   1   8
TORSDOF 9
ENDMDL
MODEL 18
REMARK VINA RESULT:      -4.9      7.873      8.760
REMARK  9 active torsions:
REMARK  status: ('A' for Active; 'I' for Inactive)
REMARK    1  A    between atoms: C_2  and  C_6 
REMARK    2  A    between atoms: C_2  and  O_3 
REMARK    3  A    between atoms: O_3  and  C_4 
REMARK    4  A    between atoms: C_6  and  C_7 
REMARK    5  A    between atoms: C_7  and  C_8 
REMARK    6  A    between atoms: C_8  and  C_9 
REMARK    7  A    between atoms: C_9  and  C_10 
REMARK    8  A    between atoms: C_10  and  C_11 
REMARK    9  A    between atoms: C_11  and  C_12 
ROOT
HETATM    1  C   LIG     1      14.051  32.178  17.184  1.00  0.00     0.010 C 
ENDROOT
BRANCH   1   2
HETATM    2  C   LIG     1      13.272  31.061  16.476  1.00  0.00     0.111 C 
BRANCH   2   3
HETATM    3  C   LIG     1      14.022  30.527  15.295  1.00  0.00     0.258 C 
HETATM    4  O   LIG     1      13.451  29.732  14.499  1.00  0.00    -0.265 OA
BRANCH   3   5
HETATM    5  O   LIG     1      15.360  30.891  15.109  1.00  0.00    -0.322 OA
BRANCH   5   6
HETATM    6  C   LIG     1      15.804  31.725  14.041  1.00  0.00     0.174 C 
HETATM    7  C   LIG     1      16.789  32.770  14.553  1.00  0.00     0.034 C 
ENDBRANCH   5   6
ENDBRANCH   3   5
ENDBRANCH   2   3
ENDBRANCH   1   2
BRANCH   1   8
HETATM    8  C   LIG     1      14.599  31.728  18.549  1.00  0.00     0.000 C 
BRANCH   8   9
HETATM    9  C   LIG     1      15.365  32.843  19.286  1.00  0.00     0.000 C 
BRANCH   9  10
HETATM   10  C   LIG     1      14.890  33.125  20.723  1.00  0.00     0.000 C 
BRANCH  10  11
HETATM   11  C   LIG     1      15.447  34.441  21.292  1.00  0.00    -0.000 C 
BRANCH  11  12
HETATM   12  C   LIG     1      16.182  35.275  20.231  1.00  0.00    -0.005 C 
HETATM   13  C   LIG     1      17.325  36.106  20.817  1.00  0.00     0.005 C 
ENDBRANCH  11  12
ENDBRANCH  10  11
ENDBRANCH   9  10
ENDBRANCH   8   9
ENDBRANCH   1   8
TORSDOF 9
ENDMDL
MODEL 19
REMARK VINA RESULT:      -4.9      9.374     10.985
REMARK  9 active torsions:
REMARK  status: ('A' for Active; 'I' for Inactive)
REMARK    1  A    between atoms: C_2  and  C_6 
REMARK    2  A    between atoms: C_2  and  O_3 
REMARK    3  A    between atoms: O_3  and  C_4 
REMARK    4  A    between atoms: C_6  and  C_7 
REMARK    5  A    between atoms: C_7  and  C_8 
REMARK    6  A    between atoms: C_8  and  C_9 
REMARK    7  A    between atoms: C_9  and  C_10 
REMARK    8  A    between atoms: C_10  and  C_11 
REMARK    9  A    between atoms: C_11  and  C_12 
ROOT
HETATM    1  C   LIG     1      13.826  32.253  17.264  1.00  0.00     0.010 C 
ENDROOT
BRANCH   1   2
HETATM    2  C   LIG     1      15.293  32.333  16.821  1.00  0.00     0.111 C 
BRANCH   2   3
HETATM    3  C   LIG     1      15.723  33.748  16.584  1.00  0.00     0.258 C 
HETATM    4  O   LIG     1      15.396  34.647  17.407  1.00  0.00    -0.265 OA
BRANCH   3   5
HETATM    5  O   LIG     1      16.454  34.061  15.433  1.00  0.00    -0.322 OA
BRANCH   5   6
HETATM    6  C   LIG     1      17.268  33.117  14.740  1.00  0.00     0.174 C 
HETATM    7  C   LIG     1      16.571  32.641  13.470  1.00  0.00     0.034 C 
ENDBRANCH   5   6
ENDBRANCH   3   5
ENDBRANCH   2   3
ENDBRANCH   1   2
BRANCH   1   8
HETATM    8  C   LIG     1      12.978  31.394  16.311  1.00  0.00     0.000 C 
BRANCH   8   9
HETATM    9  C   LIG     1      13.677  30.085  15.898  1.00  0.00     0.000 C 
BRANCH   9  10
HETATM   10  C   LIG     1      13.771  29.843  14.380  1.00  0.00     0.000 C 
BRANCH  10  11
HETATM   11  C   LIG     1      15.100  29.192  13.958  1.00  0.00    -0.000 C 
BRANCH  11  12
HETATM   12  C   LIG     1      14.941  27.703  13.612  1.00  0.00    -0.005 C 
HETATM   13  C   LIG     1      15.903  27.243  12.516  1.00  0.00     0.005 C 
ENDBRANCH  11  12
ENDBRANCH  10  11
ENDBRANCH   9  10
ENDBRANCH   8   9
ENDBRANCH   1   8
TORSDOF 9
ENDMDL
MODEL 20
REMARK VINA RESULT:      -4.8      6.497      7.428
REMARK  9 active torsions:
REMARK  status: ('A' for Active; 'I' for Inactive)
REMARK    1  A    between atoms: C_2  and  C_6 
REMARK    2  A    between atoms: C_2  and  O_3 
REMARK    3  A    between atoms: O_3  and  C_4 
REMARK    4  A    between atoms: C_6  and  C_7 
REMARK    5  A    between atoms: C_7  and  C_8 
REMARK    6  A    between atoms: C_8  and  C_9 
REMARK    7  A    between atoms: C_9  and  C_10 
REMARK    8  A    between atoms: C_10  and  C_11 
REMARK    9  A    between atoms: C_11  and  C_12 
ROOT
HETATM    1  C   LIG     1      15.131  33.070  17.174  1.00  0.00     0.010 C 
ENDROOT
BRANCH   1   2
HETATM    2  C   LIG     1      15.253  32.288  15.859  1.00  0.00     0.111 C 
BRANCH   2   3
HETATM    3  C   LIG     1      16.586  32.502  15.210  1.00  0.00     0.258 C 
HETATM    4  O   LIG     1      17.607  31.928  15.677  1.00  0.00    -0.265 OA
BRANCH   3   5
HETATM    5  O   LIG     1      16.686  33.363  14.112  1.00  0.00    -0.322 OA
BRANCH   5   6
HETATM    6  C   LIG     1      17.840  34.153  13.838  1.00  0.00     0.174 C 
HETATM    7  C   LIG     1      18.106  34.211  12.338  1.00  0.00     0.034 C 
ENDBRANCH   5   6
ENDBRANCH   3   5
ENDBRANCH   2   3
ENDBRANCH   1   2
BRANCH   1   8
HETATM    8  C   LIG     1      14.729  32.165  18.352  1.00  0.00     0.000 C 
BRANCH   8   9
HETATM    9  C   LIG     1      15.597  32.388  19.605  1.00  0.00     0.000 C 
BRANCH   9  10
HETATM   10  C   LIG     1      15.088  33.475  20.569  1.00  0.00     0.000 C 
BRANCH  10  11
HETATM   11  C   LIG     1      15.664  34.868  20.261  1.00  0.00    -0.000 C 
BRANCH  11  12
HETATM   12  C   LIG     1      16.785  35.270  21.232  1.00  0.00    -0.005 C 
HETATM   13  C   LIG     1      17.740  36.305  20.639  1.00  0.00     0.005 C 
ENDBRANCH  11  12
ENDBRANCH  10  11
ENDBRANCH   9  10
ENDBRANCH   8   9
ENDBRANCH   1   8
TORSDOF 9
ENDMDL
