REMARK  2 active torsions:
REMARK  status: ('A' for Active; 'I' for Inactive)
REMARK    1  A    between atoms: N_1  and  C_2 
REMARK    2  A    between atoms: C_5  and  O_6 
ROOT
HETATM    1  C   LIG     1      -1.160  -0.003   0.202  1.00  0.00     0.025 A 
HETATM    2  C   LIG     1      -0.500  -1.046  -0.465  1.00  0.00     0.031 A 
HETATM    3  C   LIG     1       0.882  -0.984  -0.674  1.00  0.00     0.039 A 
HETATM    4  C   LIG     1       1.614   0.122  -0.218  1.00  0.00     0.065 A 
HETATM    5  C   LIG     1       0.957   1.163   0.447  1.00  0.00     0.039 A 
HETATM    6  C   LIG     1      -0.425   1.102   0.656  1.00  0.00     0.031 A 
ENDROOT
BRANCH   1   7
HETATM    7  N   LIG     1      -2.572  -0.065   0.416  1.00  0.00    -0.399 N 
HETATM    8  H   LIG     1      -3.128  -0.884   0.081  1.00  0.00     0.156 HD
HETATM    9  H   LIG     1      -3.073   0.707   0.911  1.00  0.00     0.156 HD
ENDBRANCH   1   7
BRANCH   4  10
HETATM   10  O   LIG     1       2.990   0.195  -0.420  1.00  0.00    -0.361 OA
HETATM   11  H   LIG     1       3.495  -0.543  -0.898  1.00  0.00     0.217 HD
ENDBRANCH   4  10
TORSDOF 2
