REMARK  6 active torsions:
REMARK  status: ('A' for Active; 'I' for Inactive)
REMARK    1  A    between atoms: C_2  and  C_4 
REMARK    2  A    between atoms: C_2  and  O_3 
REMARK    3  A    between atoms: C_4  and  C_5 
REMARK    4  A    between atoms: C_5  and  C_6 
REMARK    5  A    between atoms: C_6  and  C_7 
REMARK    6  A    between atoms: C_7  and  C_8 
ROOT
HETATM    1  C   LIG     1       1.494  -0.363  -0.188  1.00  0.00     0.031 C 
ENDROOT
BRANCH   1   2
HETATM    2  C   LIG     1       2.405   0.873  -0.303  1.00  0.00     0.114 C 
HETATM    3  C   LIG     1       3.042   1.245   1.041  1.00  0.00     0.039 C 
BRANCH   2   4
HETATM    4  O   LIG     1       3.418   0.596  -1.236  1.00  0.00    -0.396 OA
HETATM    5  H   LIG     1       3.787   1.470  -1.530  1.00  0.00     0.210 HD
ENDBRANCH   2   4
ENDBRANCH   1   2
BRANCH   1   6
HETATM    6  C   LIG     1       0.224  -0.095   0.639  1.00  0.00     0.002 C 
BRANCH   6   7
HETATM    7  C   LIG     1      -0.756  -1.281   0.597  1.00  0.00     0.000 C 
BRANCH   7   8
HETATM    8  C   LIG     1      -1.595  -1.333  -0.700  1.00  0.00    -0.000 C 
BRANCH   8   9
HETATM    9  C   LIG     1      -3.029  -0.807  -0.522  1.00  0.00    -0.005 C 
HETATM   10  C   LIG     1      -3.082   0.694  -0.244  1.00  0.00     0.005 C 
ENDBRANCH   8   9
ENDBRANCH   7   8
ENDBRANCH   6   7
ENDBRANCH   1   6
TORSDOF 6
