REMARK  4 active torsions:
REMARK  status: ('A' for Active; 'I' for Inactive)
REMARK    1  A    between atoms: C_2  and  O_3 
REMARK    2  A    between atoms: O_3  and  C_4 
REMARK    3  A    between atoms: C_4  and  C_5 
REMARK    4  A    between atoms: C_5  and  C_6 
ROOT
HETATM    1  O   LIG     1       1.161  -0.382  -0.933  1.00  0.00    -0.322 OA
ENDROOT
BRANCH   1   2
HETATM    2  C   LIG     1       2.160   0.078  -0.069  1.00  0.00     0.254 C 
HETATM    3  C   LIG     1       3.011   1.230  -0.486  1.00  0.00     0.126 C 
HETATM    4  O   LIG     1       2.352  -0.472   1.050  1.00  0.00    -0.266 OA
ENDBRANCH   1   2
BRANCH   1   5
HETATM    5  C   LIG     1       0.256  -1.434  -0.600  1.00  0.00     0.178 C 
BRANCH   5   6
HETATM    6  C   LIG     1      -0.810  -0.958   0.393  1.00  0.00     0.026 C 
BRANCH   6   7
HETATM    7  C   LIG     1      -1.660   0.178  -0.190  1.00  0.00    -0.002 C 
HETATM    8  C   LIG     1      -2.738   0.620   0.795  1.00  0.00     0.005 C 
ENDBRANCH   6   7
ENDBRANCH   5   6
ENDBRANCH   1   5
TORSDOF 4
