REMARK  4 active torsions:
REMARK  status: ('A' for Active; 'I' for Inactive)
REMARK    1  A    between atoms: C_2  and  O_3 
REMARK    2  A    between atoms: O_3  and  C_4 
REMARK    3  A    between atoms: C_4  and  C_5 
REMARK    4  A    between atoms: C_5  and  C_6 
ROOT
HETATM    1  C   LIG     1       0.573   0.479  -0.057  1.00  0.00     0.179 C 
ENDROOT
BRANCH   1   2
HETATM    2  O   LIG     1       1.826  -0.155  -0.291  1.00  0.00    -0.322 OA
BRANCH   2   3
HETATM    3  C   LIG     1       3.011   0.564  -0.473  1.00  0.00     0.254 C 
HETATM    4  C   LIG     1       4.283  -0.176  -0.713  1.00  0.00     0.126 C 
HETATM    5  O   LIG     1       3.013   1.824  -0.438  1.00  0.00    -0.266 OA
ENDBRANCH   2   3
ENDBRANCH   1   2
BRANCH   1   6
HETATM    6  C   LIG     1      -0.513  -0.588   0.103  1.00  0.00     0.031 C 
BRANCH   6   7
HETATM    7  C   LIG     1      -1.876  -0.000   0.533  1.00  0.00    -0.021 C 
HETATM    8  C   LIG     1      -2.502   0.863  -0.573  1.00  0.00     0.009 C 
HETATM    9  C   LIG     1      -2.838  -1.132   0.918  1.00  0.00     0.009 C 
ENDBRANCH   6   7
ENDBRANCH   1   6
TORSDOF 4
