REMARK  9 active torsions:
REMARK  status: ('A' for Active; 'I' for Inactive)
REMARK    1  A    between atoms: C_2  and  C_6 
REMARK    2  A    between atoms: C_2  and  O_3 
REMARK    3  A    between atoms: O_3  and  C_4 
REMARK    4  A    between atoms: C_6  and  C_7 
REMARK    5  A    between atoms: C_7  and  C_8 
REMARK    6  A    between atoms: C_8  and  C_9 
REMARK    7  A    between atoms: C_9  and  C_10 
REMARK    8  A    between atoms: C_10  and  C_11 
REMARK    9  A    between atoms: C_11  and  C_12 
ROOT
HETATM    1  C   LIG     1       0.522   1.089   0.842  1.00  0.00     0.010 C 
ENDROOT
BRANCH   1   2
HETATM    2  C   LIG     1       1.552   0.874   1.959  1.00  0.00     0.111 C 
BRANCH   2   3
HETATM    3  C   LIG     1       2.937   0.717   1.411  1.00  0.00     0.258 C 
HETATM    4  O   LIG     1       3.583   1.736   1.043  1.00  0.00    -0.265 OA
BRANCH   3   5
HETATM    5  O   LIG     1       3.485  -0.564   1.284  1.00  0.00    -0.322 OA
BRANCH   5   6
HETATM    6  C   LIG     1       4.738  -0.822   0.655  1.00  0.00     0.174 C 
HETATM    7  C   LIG     1       4.606  -0.725  -0.861  1.00  0.00     0.034 C 
ENDBRANCH   5   6
ENDBRANCH   3   5
ENDBRANCH   2   3
ENDBRANCH   1   2
BRANCH   1   8
HETATM    8  C   LIG     1       0.318  -0.175  -0.011  1.00  0.00     0.000 C 
BRANCH   8   9
HETATM    9  C   LIG     1      -0.606   0.059  -1.221  1.00  0.00     0.000 C 
BRANCH   9  10
HETATM   10  C   LIG     1      -2.042   0.494  -0.875  1.00  0.00     0.000 C 
BRANCH  10  11
HETATM   11  C   LIG     1      -2.806  -0.558  -0.053  1.00  0.00    -0.000 C 
BRANCH  11  12
HETATM   12  C   LIG     1      -4.269  -0.160   0.197  1.00  0.00    -0.005 C 
HETATM   13  C   LIG     1      -5.146  -0.312  -1.046  1.00  0.00     0.005 C 
ENDBRANCH  11  12
ENDBRANCH  10  11
ENDBRANCH   9  10
ENDBRANCH   8   9
ENDBRANCH   1   8
TORSDOF 9
