MODEL 1
REMARK VINA RESULT:      -6.2      0.000      0.000
REMARK  2 active torsions:
REMARK  status: ('A' for Active; 'I' for Inactive)
REMARK    1  A    between atoms: O_1  and  C_2 
REMARK    2  A    between atoms: C_5  and  C_6 
ROOT
HETATM    1  C   LIG     1      19.652  38.768  19.760  1.00  0.00     0.065 A 
HETATM    2  C   LIG     1      19.364  37.435  19.442  1.00  0.00     0.037 A 
HETATM    3  C   LIG     1      18.394  36.734  20.166  1.00  0.00     0.017 A 
HETATM    4  C   LIG     1      17.703  37.360  21.216  1.00  0.00     0.002 A 
HETATM    5  C   LIG     1      17.997  38.698  21.531  1.00  0.00     0.017 A 
HETATM    6  C   LIG     1      18.967  39.397  20.804  1.00  0.00     0.037 A 
ENDROOT
BRANCH   1   7
HETATM    7  O   LIG     1      20.616  39.477  19.045  1.00  0.00    -0.361 OA
HETATM    8  H   LIG     1      21.217  40.156  19.496  1.00  0.00     0.217 HD
ENDBRANCH   1   7
BRANCH   4   9
HETATM    9  C   LIG     1      16.684  36.606  21.969  1.00  0.00     0.269 C 
HETATM   10  O   LIG     1      16.961  35.507  22.519  1.00  0.00    -0.301 OA
ENDBRANCH   4   9
TORSDOF 2
ENDMDL
MODEL 2
REMARK VINA RESULT:      -6.1      0.456      1.678
REMARK  2 active torsions:
REMARK  status: ('A' for Active; 'I' for Inactive)
REMARK    1  A    between atoms: O_1  and  C_2 
REMARK    2  A    between atoms: C_5  and  C_6 
ROOT
HETATM    1  C   LIG     1      19.678  38.788  19.742  1.00  0.00     0.065 A 
HETATM    2  C   LIG     1      18.996  39.425  20.787  1.00  0.00     0.037 A 
HETATM    3  C   LIG     1      18.024  38.734  21.517  1.00  0.00     0.017 A 
HETATM    4  C   LIG     1      17.724  37.398  21.209  1.00  0.00     0.002 A 
HETATM    5  C   LIG     1      18.410  36.763  20.159  1.00  0.00     0.017 A 
HETATM    6  C   LIG     1      19.383  37.457  19.431  1.00  0.00     0.037 A 
ENDROOT
BRANCH   1   7
HETATM    7  O   LIG     1      20.648  39.467  19.008  1.00  0.00    -0.361 OA
HETATM    8  H   LIG     1      21.247  40.162  19.438  1.00  0.00     0.217 HD
ENDBRANCH   1   7
BRANCH   4   9
HETATM    9  C   LIG     1      16.695  36.684  21.988  1.00  0.00     0.269 C 
HETATM   10  O   LIG     1      16.748  36.636  23.246  1.00  0.00    -0.301 OA
ENDBRANCH   4   9
TORSDOF 2
ENDMDL
MODEL 3
REMARK VINA RESULT:      -5.7      1.286      4.192
REMARK  2 active torsions:
REMARK  status: ('A' for Active; 'I' for Inactive)
REMARK    1  A    between atoms: O_1  and  C_2 
REMARK    2  A    between atoms: C_5  and  C_6 
ROOT
HETATM    1  C   LIG     1      16.819  37.988  22.626  1.00  0.00     0.065 A 
HETATM    2  C   LIG     1      17.528  39.183  22.447  1.00  0.00     0.037 A 
HETATM    3  C   LIG     1      18.462  39.297  21.413  1.00  0.00     0.017 A 
HETATM    4  C   LIG     1      18.697  38.218  20.547  1.00  0.00     0.002 A 
HETATM    5  C   LIG     1      17.983  37.021  20.731  1.00  0.00     0.017 A 
HETATM    6  C   LIG     1      17.048  36.909  21.766  1.00  0.00     0.037 A 
ENDROOT
BRANCH   1   7
HETATM    7  O   LIG     1      15.885  37.862  23.653  1.00  0.00    -0.361 OA
HETATM    8  H   LIG     1      16.077  37.307  24.477  1.00  0.00     0.217 HD
ENDBRANCH   1   7
BRANCH   4   9
HETATM    9  C   LIG     1      19.686  38.356  19.462  1.00  0.00     0.269 C 
HETATM   10  O   LIG     1      20.448  39.357  19.399  1.00  0.00    -0.301 OA
ENDBRANCH   4   9
TORSDOF 2
ENDMDL
MODEL 4
REMARK VINA RESULT:      -5.6      1.957      2.664
REMARK  2 active torsions:
REMARK  status: ('A' for Active; 'I' for Inactive)
REMARK    1  A    between atoms: O_1  and  C_2 
REMARK    2  A    between atoms: C_5  and  C_6 
ROOT
HETATM    1  C   LIG     1      18.303  37.023  20.056  1.00  0.00     0.065 A 
HETATM    2  C   LIG     1      18.742  38.280  20.492  1.00  0.00     0.037 A 
HETATM    3  C   LIG     1      18.336  38.774  21.736  1.00  0.00     0.017 A 
HETATM    4  C   LIG     1      17.487  38.015  22.556  1.00  0.00     0.002 A 
HETATM    5  C   LIG     1      17.050  36.754  22.115  1.00  0.00     0.017 A 
HETATM    6  C   LIG     1      17.458  36.262  20.870  1.00  0.00     0.037 A 
ENDROOT
BRANCH   1   7
HETATM    7  O   LIG     1      18.702  36.521  18.819  1.00  0.00    -0.361 OA
HETATM    8  H   LIG     1      18.036  36.366  18.071  1.00  0.00     0.217 HD
ENDBRANCH   1   7
BRANCH   4   9
HETATM    9  C   LIG     1      17.069  38.551  23.865  1.00  0.00     0.269 C 
HETATM   10  O   LIG     1      16.240  37.934  24.587  1.00  0.00    -0.301 OA
ENDBRANCH   4   9
TORSDOF 2
ENDMDL
MODEL 5
REMARK VINA RESULT:      -5.5      3.360      4.457
REMARK  2 active torsions:
REMARK  status: ('A' for Active; 'I' for Inactive)
REMARK    1  A    between atoms: O_1  and  C_2 
REMARK    2  A    between atoms: C_5  and  C_6 
ROOT
HETATM    1  C   LIG     1      17.231  37.627  24.715  1.00  0.00     0.065 A 
HETATM    2  C   LIG     1      16.893  38.115  23.446  1.00  0.00     0.037 A 
HETATM    3  C   LIG     1      16.682  37.228  22.386  1.00  0.00     0.017 A 
HETATM    4  C   LIG     1      16.805  35.845  22.584  1.00  0.00     0.002 A 
HETATM    5  C   LIG     1      17.145  35.360  23.859  1.00  0.00     0.017 A 
HETATM    6  C   LIG     1      17.356  36.250  24.919  1.00  0.00     0.037 A 
ENDROOT
BRANCH   1   7
HETATM    7  O   LIG     1      17.445  38.502  25.779  1.00  0.00    -0.361 OA
HETATM    8  H   LIG     1      18.158  39.219  25.740  1.00  0.00     0.217 HD
ENDBRANCH   1   7
BRANCH   4   9
HETATM    9  C   LIG     1      16.579  34.924  21.455  1.00  0.00     0.269 C 
HETATM   10  O   LIG     1      16.686  35.316  20.262  1.00  0.00    -0.301 OA
ENDBRANCH   4   9
TORSDOF 2
ENDMDL
MODEL 6
REMARK VINA RESULT:      -5.5      3.659      5.520
REMARK  2 active torsions:
REMARK  status: ('A' for Active; 'I' for Inactive)
REMARK    1  A    between atoms: O_1  and  C_2 
REMARK    2  A    between atoms: C_5  and  C_6 
ROOT
HETATM    1  C   LIG     1      17.736  35.568  25.584  1.00  0.00     0.065 A 
HETATM    2  C   LIG     1      17.939  36.913  25.921  1.00  0.00     0.037 A 
HETATM    3  C   LIG     1      17.649  37.920  24.996  1.00  0.00     0.017 A 
HETATM    4  C   LIG     1      17.151  37.594  23.725  1.00  0.00     0.002 A 
HETATM    5  C   LIG     1      16.949  36.243  23.391  1.00  0.00     0.017 A 
HETATM    6  C   LIG     1      17.240  35.237  24.319  1.00  0.00     0.037 A 
ENDROOT
BRANCH   1   7
HETATM    7  O   LIG     1      18.022  34.555  26.497  1.00  0.00    -0.361 OA
HETATM    8  H   LIG     1      18.573  34.732  27.328  1.00  0.00     0.217 HD
ENDBRANCH   1   7
BRANCH   4   9
HETATM    9  C   LIG     1      16.850  38.670  22.762  1.00  0.00     0.269 C 
HETATM   10  O   LIG     1      15.730  39.247  22.760  1.00  0.00    -0.301 OA
ENDBRANCH   4   9
TORSDOF 2
ENDMDL
MODEL 7
REMARK VINA RESULT:      -5.4      8.389      9.672
REMARK  2 active torsions:
REMARK  status: ('A' for Active; 'I' for Inactive)
REMARK    1  A    between atoms: O_1  and  C_2 
REMARK    2  A    between atoms: C_5  and  C_6 
ROOT
HETATM    1  C   LIG     1      13.969  30.015  14.661  1.00  0.00     0.065 A 
HETATM    2  C   LIG     1      15.149  30.707  14.361  1.00  0.00     0.037 A 
HETATM    3  C   LIG     1      15.530  31.813  15.129  1.00  0.00     0.017 A 
HETATM    4  C   LIG     1      14.734  32.237  16.204  1.00  0.00     0.002 A 
HETATM    5  C   LIG     1      13.551  31.539  16.501  1.00  0.00     0.017 A 
HETATM    6  C   LIG     1      13.172  30.433  15.731  1.00  0.00     0.037 A 
ENDROOT
BRANCH   1   7
HETATM    7  O   LIG     1      13.580  28.912  13.903  1.00  0.00    -0.361 OA
HETATM    8  H   LIG     1      12.970  29.011  13.100  1.00  0.00     0.217 HD
ENDBRANCH   1   7
BRANCH   4   9
HETATM    9  C   LIG     1      15.151  33.404  17.003  1.00  0.00     0.269 C 
HETATM   10  O   LIG     1      15.740  34.382  16.470  1.00  0.00    -0.301 OA
ENDBRANCH   4   9
TORSDOF 2
ENDMDL
MODEL 8
REMARK VINA RESULT:      -5.4      7.950      9.442
REMARK  2 active torsions:
REMARK  status: ('A' for Active; 'I' for Inactive)
REMARK    1  A    between atoms: O_1  and  C_2 
REMARK    2  A    between atoms: C_5  and  C_6 
ROOT
HETATM    1  C   LIG     1      13.432  30.867  16.264  1.00  0.00     0.065 A 
HETATM    2  C   LIG     1      14.076  30.412  15.105  1.00  0.00     0.037 A 
HETATM    3  C   LIG     1      15.219  31.066  14.634  1.00  0.00     0.017 A 
HETATM    4  C   LIG     1      15.730  32.180  15.317  1.00  0.00     0.002 A 
HETATM    5  C   LIG     1      15.081  32.632  16.479  1.00  0.00     0.017 A 
HETATM    6  C   LIG     1      13.938  31.976  16.949  1.00  0.00     0.037 A 
ENDROOT
BRANCH   1   7
HETATM    7  O   LIG     1      12.293  30.224  16.743  1.00  0.00    -0.361 OA
HETATM    8  H   LIG     1      12.004  29.322  16.384  1.00  0.00     0.217 HD
ENDBRANCH   1   7
BRANCH   4   9
HETATM    9  C   LIG     1      16.937  32.857  14.806  1.00  0.00     0.269 C 
HETATM   10  O   LIG     1      18.082  32.564  15.242  1.00  0.00    -0.301 OA
ENDBRANCH   4   9
TORSDOF 2
ENDMDL
MODEL 9
REMARK VINA RESULT:      -5.3      8.336      9.653
REMARK  2 active torsions:
REMARK  status: ('A' for Active; 'I' for Inactive)
REMARK    1  A    between atoms: O_1  and  C_2 
REMARK    2  A    between atoms: C_5  and  C_6 
ROOT
HETATM    1  C   LIG     1      14.166  30.021  14.627  1.00  0.00     0.065 A 
HETATM    2  C   LIG     1      13.326  30.417  15.676  1.00  0.00     0.037 A 
HETATM    3  C   LIG     1      13.650  31.534  16.452  1.00  0.00     0.017 A 
HETATM    4  C   LIG     1      14.817  32.267  16.187  1.00  0.00     0.002 A 
HETATM    5  C   LIG     1      15.657  31.865  15.133  1.00  0.00     0.017 A 
HETATM    6  C   LIG     1      15.330  30.747  14.358  1.00  0.00     0.037 A 
ENDROOT
BRANCH   1   7
HETATM    7  O   LIG     1      13.853  28.909  13.847  1.00  0.00    -0.361 OA
HETATM    8  H   LIG     1      13.458  28.070  14.255  1.00  0.00     0.217 HD
ENDBRANCH   1   7
BRANCH   4   9
HETATM    9  C   LIG     1      15.144  33.443  17.015  1.00  0.00     0.269 C 
HETATM   10  O   LIG     1      15.669  34.470  16.509  1.00  0.00    -0.301 OA
ENDBRANCH   4   9
TORSDOF 2
ENDMDL
MODEL 10
REMARK VINA RESULT:      -5.3      3.395      4.355
REMARK  2 active torsions:
REMARK  status: ('A' for Active; 'I' for Inactive)
REMARK    1  A    between atoms: O_1  and  C_2 
REMARK    2  A    between atoms: C_5  and  C_6 
ROOT
HETATM    1  C   LIG     1      16.973  37.925  23.146  1.00  0.00     0.065 A 
HETATM    2  C   LIG     1      16.897  36.574  22.784  1.00  0.00     0.037 A 
HETATM    3  C   LIG     1      17.105  35.577  23.743  1.00  0.00     0.017 A 
HETATM    4  C   LIG     1      17.391  35.921  25.073  1.00  0.00     0.002 A 
HETATM    5  C   LIG     1      17.466  37.278  25.431  1.00  0.00     0.017 A 
HETATM    6  C   LIG     1      17.257  38.274  24.470  1.00  0.00     0.037 A 
ENDROOT
BRANCH   1   7
HETATM    7  O   LIG     1      16.767  38.927  22.200  1.00  0.00    -0.361 OA
HETATM    8  H   LIG     1      17.418  39.078  21.439  1.00  0.00     0.217 HD
ENDBRANCH   1   7
BRANCH   4   9
HETATM    9  C   LIG     1      17.608  34.857  26.071  1.00  0.00     0.269 C 
HETATM   10  O   LIG     1      18.769  34.537  26.439  1.00  0.00    -0.301 OA
ENDBRANCH   4   9
TORSDOF 2
ENDMDL
MODEL 11
REMARK VINA RESULT:      -5.2      7.931      9.348
REMARK  2 active torsions:
REMARK  status: ('A' for Active; 'I' for Inactive)
REMARK    1  A    between atoms: O_1  and  C_2 
REMARK    2  A    between atoms: C_5  and  C_6 
ROOT
HETATM    1  C   LIG     1      14.298  31.772  17.461  1.00  0.00     0.065 A 
HETATM    2  C   LIG     1      13.719  30.821  16.612  1.00  0.00     0.037 A 
HETATM    3  C   LIG     1      14.177  30.680  15.298  1.00  0.00     0.017 A 
HETATM    4  C   LIG     1      15.219  31.490  14.820  1.00  0.00     0.002 A 
HETATM    5  C   LIG     1      15.797  32.443  15.676  1.00  0.00     0.017 A 
HETATM    6  C   LIG     1      15.337  32.582  16.990  1.00  0.00     0.037 A 
ENDROOT
BRANCH   1   7
HETATM    7  O   LIG     1      13.851  31.921  18.772  1.00  0.00    -0.361 OA
HETATM    8  H   LIG     1      13.388  31.165  19.262  1.00  0.00     0.217 HD
ENDBRANCH   1   7
BRANCH   4   9
HETATM    9  C   LIG     1      15.689  31.328  13.431  1.00  0.00     0.269 C 
HETATM   10  O   LIG     1      16.781  31.830  13.051  1.00  0.00    -0.301 OA
ENDBRANCH   4   9
TORSDOF 2
ENDMDL
MODEL 12
REMARK VINA RESULT:      -5.1      8.147      9.285
REMARK  2 active torsions:
REMARK  status: ('A' for Active; 'I' for Inactive)
REMARK    1  A    between atoms: O_1  and  C_2 
REMARK    2  A    between atoms: C_5  and  C_6 
ROOT
HETATM    1  C   LIG     1      14.895  32.823  17.015  1.00  0.00     0.065 A 
HETATM    2  C   LIG     1      13.813  31.952  17.194  1.00  0.00     0.037 A 
HETATM    3  C   LIG     1      13.586  30.917  16.281  1.00  0.00     0.017 A 
HETATM    4  C   LIG     1      14.439  30.743  15.180  1.00  0.00     0.002 A 
HETATM    5  C   LIG     1      15.523  31.621  15.005  1.00  0.00     0.017 A 
HETATM    6  C   LIG     1      15.748  32.655  15.920  1.00  0.00     0.037 A 
ENDROOT
BRANCH   1   7
HETATM    7  O   LIG     1      15.131  33.858  17.918  1.00  0.00    -0.361 OA
HETATM    8  H   LIG     1      15.878  33.805  18.600  1.00  0.00     0.217 HD
ENDBRANCH   1   7
BRANCH   4   9
HETATM    9  C   LIG     1      14.185  29.647  14.227  1.00  0.00     0.269 C 
HETATM   10  O   LIG     1      13.105  28.999  14.252  1.00  0.00    -0.301 OA
ENDBRANCH   4   9
TORSDOF 2
ENDMDL
MODEL 13
REMARK VINA RESULT:      -5.1      8.588      9.319
REMARK  2 active torsions:
REMARK  status: ('A' for Active; 'I' for Inactive)
REMARK    1  A    between atoms: O_1  and  C_2 
REMARK    2  A    between atoms: C_5  and  C_6 
ROOT
HETATM    1  C   LIG     1      16.222  31.831  13.728  1.00  0.00     0.065 A 
HETATM    2  C   LIG     1      15.382  30.736  13.488  1.00  0.00     0.037 A 
HETATM    3  C   LIG     1      14.433  30.356  14.443  1.00  0.00     0.017 A 
HETATM    4  C   LIG     1      14.315  31.068  15.647  1.00  0.00     0.002 A 
HETATM    5  C   LIG     1      15.160  32.166  15.883  1.00  0.00     0.017 A 
HETATM    6  C   LIG     1      16.108  32.544  14.925  1.00  0.00     0.037 A 
ENDROOT
BRANCH   1   7
HETATM    7  O   LIG     1      17.171  32.219  12.784  1.00  0.00    -0.361 OA
HETATM    8  H   LIG     1      17.035  32.045  11.795  1.00  0.00     0.217 HD
ENDBRANCH   1   7
BRANCH   4   9
HETATM    9  C   LIG     1      13.309  30.653  16.643  1.00  0.00     0.269 C 
HETATM   10  O   LIG     1      12.434  31.459  17.058  1.00  0.00    -0.301 OA
ENDBRANCH   4   9
TORSDOF 2
ENDMDL
MODEL 14
REMARK VINA RESULT:      -4.9      3.616      4.522
REMARK  2 active torsions:
REMARK  status: ('A' for Active; 'I' for Inactive)
REMARK    1  A    between atoms: O_1  and  C_2 
REMARK    2  A    between atoms: C_5  and  C_6 
ROOT
HETATM    1  C   LIG     1      16.327  36.132  22.226  1.00  0.00     0.065 A 
HETATM    2  C   LIG     1      16.866  35.121  23.032  1.00  0.00     0.037 A 
HETATM    3  C   LIG     1      17.383  35.430  24.294  1.00  0.00     0.017 A 
HETATM    4  C   LIG     1      17.366  36.752  24.762  1.00  0.00     0.002 A 
HETATM    5  C   LIG     1      16.824  37.764  23.950  1.00  0.00     0.017 A 
HETATM    6  C   LIG     1      16.307  37.452  22.687  1.00  0.00     0.037 A 
ENDROOT
BRANCH   1   7
HETATM    7  O   LIG     1      15.808  35.836  20.966  1.00  0.00    -0.361 OA
HETATM    8  H   LIG     1      15.311  36.531  20.422  1.00  0.00     0.217 HD
ENDBRANCH   1   7
BRANCH   4   9
HETATM    9  C   LIG     1      17.916  37.061  26.096  1.00  0.00     0.269 C 
HETATM   10  O   LIG     1      18.101  36.152  26.950  1.00  0.00    -0.301 OA
ENDBRANCH   4   9
TORSDOF 2
ENDMDL
MODEL 15
REMARK VINA RESULT:      -4.8      1.638      2.153
REMARK  2 active torsions:
REMARK  status: ('A' for Active; 'I' for Inactive)
REMARK    1  A    between atoms: O_1  and  C_2 
REMARK    2  A    between atoms: C_5  and  C_6 
ROOT
HETATM    1  C   LIG     1      18.243  38.479  21.614  1.00  0.00     0.065 A 
HETATM    2  C   LIG     1      18.414  37.480  20.647  1.00  0.00     0.037 A 
HETATM    3  C   LIG     1      17.475  36.452  20.526  1.00  0.00     0.017 A 
HETATM    4  C   LIG     1      16.354  36.411  21.370  1.00  0.00     0.002 A 
HETATM    5  C   LIG     1      16.187  37.416  22.339  1.00  0.00     0.017 A 
HETATM    6  C   LIG     1      17.128  38.445  22.458  1.00  0.00     0.037 A 
ENDROOT
BRANCH   1   7
HETATM    7  O   LIG     1      19.172  39.509  21.745  1.00  0.00    -0.361 OA
HETATM    8  H   LIG     1      19.165  40.131  22.545  1.00  0.00     0.217 HD
ENDBRANCH   1   7
BRANCH   4   9
HETATM    9  C   LIG     1      15.373  35.319  21.228  1.00  0.00     0.269 C 
HETATM   10  O   LIG     1      15.359  34.348  22.031  1.00  0.00    -0.301 OA
ENDBRANCH   4   9
TORSDOF 2
ENDMDL
MODEL 16
REMARK VINA RESULT:      -4.8      2.846      3.748
REMARK  2 active torsions:
REMARK  status: ('A' for Active; 'I' for Inactive)
REMARK    1  A    between atoms: O_1  and  C_2 
REMARK    2  A    between atoms: C_5  and  C_6 
ROOT
HETATM    1  C   LIG     1      16.559  38.223  22.536  1.00  0.00     0.065 A 
HETATM    2  C   LIG     1      15.345  37.532  22.635  1.00  0.00     0.037 A 
HETATM    3  C   LIG     1      15.162  36.330  21.945  1.00  0.00     0.017 A 
HETATM    4  C   LIG     1      16.193  35.805  21.150  1.00  0.00     0.002 A 
HETATM    5  C   LIG     1      17.410  36.502  21.054  1.00  0.00     0.017 A 
HETATM    6  C   LIG     1      17.590  37.705  21.745  1.00  0.00     0.037 A 
ENDROOT
BRANCH   1   7
HETATM    7  O   LIG     1      16.753  39.422  23.219  1.00  0.00    -0.361 OA
HETATM    8  H   LIG     1      17.475  39.520  23.922  1.00  0.00     0.217 HD
ENDBRANCH   1   7
BRANCH   4   9
HETATM    9  C   LIG     1      15.984  34.535  20.429  1.00  0.00     0.269 C 
HETATM   10  O   LIG     1      15.772  34.519  19.187  1.00  0.00    -0.301 OA
ENDBRANCH   4   9
TORSDOF 2
ENDMDL
MODEL 17
REMARK VINA RESULT:      -4.6      2.558      3.625
REMARK  2 active torsions:
REMARK  status: ('A' for Active; 'I' for Inactive)
REMARK    1  A    between atoms: O_1  and  C_2 
REMARK    2  A    between atoms: C_5  and  C_6 
ROOT
HETATM    1  C   LIG     1      17.387  38.157  22.069  1.00  0.00     0.065 A 
HETATM    2  C   LIG     1      17.497  38.397  23.445  1.00  0.00     0.037 A 
HETATM    3  C   LIG     1      17.429  37.333  24.351  1.00  0.00     0.017 A 
HETATM    4  C   LIG     1      17.249  36.020  23.890  1.00  0.00     0.002 A 
HETATM    5  C   LIG     1      17.139  35.785  22.508  1.00  0.00     0.017 A 
HETATM    6  C   LIG     1      17.208  36.851  21.604  1.00  0.00     0.037 A 
ENDROOT
BRANCH   1   7
HETATM    7  O   LIG     1      17.454  39.209  21.157  1.00  0.00    -0.361 OA
HETATM    8  H   LIG     1      18.135  39.216  20.407  1.00  0.00     0.217 HD
ENDBRANCH   1   7
BRANCH   4   9
HETATM    9  C   LIG     1      17.179  34.911  24.859  1.00  0.00     0.269 C 
HETATM   10  O   LIG     1      17.893  34.907  25.898  1.00  0.00    -0.301 OA
ENDBRANCH   4   9
TORSDOF 2
ENDMDL
MODEL 18
REMARK VINA RESULT:      -4.4      7.816      9.373
REMARK  2 active torsions:
REMARK  status: ('A' for Active; 'I' for Inactive)
REMARK    1  A    between atoms: O_1  and  C_2 
REMARK    2  A    between atoms: C_5  and  C_6 
ROOT
HETATM    1  C   LIG     1      14.868  31.383  15.524  1.00  0.00     0.065 A 
HETATM    2  C   LIG     1      15.130  31.072  14.184  1.00  0.00     0.037 A 
HETATM    3  C   LIG     1      16.072  31.812  13.462  1.00  0.00     0.017 A 
HETATM    4  C   LIG     1      16.761  32.870  14.074  1.00  0.00     0.002 A 
HETATM    5  C   LIG     1      16.495  33.179  15.419  1.00  0.00     0.017 A 
HETATM    6  C   LIG     1      15.552  32.437  16.139  1.00  0.00     0.037 A 
ENDROOT
BRANCH   1   7
HETATM    7  O   LIG     1      13.931  30.653  16.253  1.00  0.00    -0.361 OA
HETATM    8  H   LIG     1      13.447  29.861  15.849  1.00  0.00     0.217 HD
ENDBRANCH   1   7
BRANCH   4   9
HETATM    9  C   LIG     1      17.752  33.640  13.298  1.00  0.00     0.269 C 
HETATM   10  O   LIG     1      17.463  34.764  12.806  1.00  0.00    -0.301 OA
ENDBRANCH   4   9
TORSDOF 2
ENDMDL
MODEL 19
REMARK VINA RESULT:      -3.9      4.694      6.233
REMARK  2 active torsions:
REMARK  status: ('A' for Active; 'I' for Inactive)
REMARK    1  A    between atoms: O_1  and  C_2 
REMARK    2  A    between atoms: C_5  and  C_6 
ROOT
HETATM    1  C   LIG     1      14.869  32.779  17.642  1.00  0.00     0.065 A 
HETATM    2  C   LIG     1      15.188  34.142  17.665  1.00  0.00     0.037 A 
HETATM    3  C   LIG     1      15.574  34.753  18.862  1.00  0.00     0.017 A 
HETATM    4  C   LIG     1      15.646  34.007  20.048  1.00  0.00     0.002 A 
HETATM    5  C   LIG     1      15.325  32.638  20.020  1.00  0.00     0.017 A 
HETATM    6  C   LIG     1      14.939  32.029  18.821  1.00  0.00     0.037 A 
ENDROOT
BRANCH   1   7
HETATM    7  O   LIG     1      14.482  32.159  16.456  1.00  0.00    -0.361 OA
HETATM    8  H   LIG     1      14.443  32.668  15.581  1.00  0.00     0.217 HD
ENDBRANCH   1   7
BRANCH   4   9
HETATM    9  C   LIG     1      16.056  34.667  21.302  1.00  0.00     0.269 C 
HETATM   10  O   LIG     1      16.924  35.581  21.303  1.00  0.00    -0.301 OA
ENDBRANCH   4   9
TORSDOF 2
ENDMDL
