REMARK  3 active torsions:
REMARK  status: ('A' for Active; 'I' for Inactive)
REMARK    1  A    between atoms: C_2  and  C_4 
REMARK    2  A    between atoms: C_4  and  C_5 
REMARK    3  A    between atoms: C_5  and  O_6 
ROOT
HETATM    1  C   LIG     1       0.406  -0.879   0.548  1.00  0.00     0.030 C 
ENDROOT
BRANCH   1   2
HETATM    2  C   LIG     1      -0.699   0.040  -0.025  1.00  0.00    -0.021 C 
HETATM    3  C   LIG     1      -0.501   1.508   0.381  1.00  0.00     0.009 C 
HETATM    4  C   LIG     1      -2.077  -0.447   0.442  1.00  0.00     0.009 C 
ENDBRANCH   1   2
BRANCH   1   5
HETATM    5  C   LIG     1       1.797  -0.606  -0.039  1.00  0.00     0.164 C 
BRANCH   5   6
HETATM    6  O   LIG     1       2.382   0.501   0.589  1.00  0.00    -0.401 OA
HETATM    7  H   LIG     1       3.263   0.632   0.151  1.00  0.00     0.209 HD
ENDBRANCH   5   6
ENDBRANCH   1   5
TORSDOF 3
