REMARK  6 active torsions:
REMARK  status: ('A' for Active; 'I' for Inactive)
REMARK    1  A    between atoms: C_2  and  C_3 
REMARK    2  A    between atoms: C_3  and  C_4 
REMARK    3  A    between atoms: C_4  and  C_5 
REMARK    4  A    between atoms: C_5  and  C_6 
REMARK    5  A    between atoms: C_6  and  O_7 
REMARK    6  A    between atoms: O_7  and  C_8 
ROOT
HETATM    1  C   LIG     1       0.009   0.255   0.880  1.00  0.00     0.111 C 
ENDROOT
BRANCH   1   2
HETATM    2  C   LIG     1       0.606  -0.247  -0.441  1.00  0.00     0.010 C 
BRANCH   2   3
HETATM    3  C   LIG     1       1.964   0.399  -0.759  1.00  0.00     0.000 C 
BRANCH   3   4
HETATM    4  C   LIG     1       3.090  -0.112   0.153  1.00  0.00    -0.005 C 
HETATM    5  C   LIG     1       4.442   0.450  -0.277  1.00  0.00     0.005 C 
ENDBRANCH   3   4
ENDBRANCH   2   3
ENDBRANCH   1   2
BRANCH   1   6
HETATM    6  C   LIG     1      -1.361  -0.315   1.089  1.00  0.00     0.258 C 
HETATM    7  O   LIG     1      -1.582  -1.075   2.072  1.00  0.00    -0.265 OA
BRANCH   6   8
HETATM    8  O   LIG     1      -2.385   0.011   0.196  1.00  0.00    -0.322 OA
BRANCH   8   9
HETATM    9  C   LIG     1      -3.709  -0.497   0.328  1.00  0.00     0.174 C 
HETATM   10  C   LIG     1      -4.575   0.038  -0.801  1.00  0.00     0.034 C 
ENDBRANCH   8   9
ENDBRANCH   6   8
ENDBRANCH   1   6
TORSDOF 6
