MODEL 1
REMARK VINA RESULT:      -5.5      0.000      0.000
REMARK  4 active torsions:
REMARK  status: ('A' for Active; 'I' for Inactive)
REMARK    1  A    between atoms: C_2  and  O_3 
REMARK    2  A    between atoms: O_3  and  C_4 
REMARK    3  A    between atoms: C_4  and  C_5 
REMARK    4  A    between atoms: C_5  and  C_6 
ROOT
HETATM    1  C   LIG     1      17.577  38.504  21.974  1.00  0.00     0.179 C 
ENDROOT
BRANCH   1   2
HETATM    2  O   LIG     1      18.004  38.397  23.328  1.00  0.00    -0.322 OA
BRANCH   2   3
HETATM    3  C   LIG     1      17.160  37.952  24.350  1.00  0.00     0.254 C 
HETATM    4  C   LIG     1      17.757  37.413  25.606  1.00  0.00     0.126 C 
HETATM    5  O   LIG     1      15.907  38.003  24.220  1.00  0.00    -0.266 OA
ENDBRANCH   2   3
ENDBRANCH   1   2
BRANCH   1   6
HETATM    6  C   LIG     1      18.639  39.253  21.165  1.00  0.00     0.031 C 
BRANCH   6   7
HETATM    7  C   LIG     1      18.973  38.562  19.824  1.00  0.00    -0.021 C 
HETATM    8  C   LIG     1      20.434  38.794  19.408  1.00  0.00     0.009 C 
HETATM    9  C   LIG     1      18.694  37.056  19.926  1.00  0.00     0.009 C 
ENDBRANCH   6   7
ENDBRANCH   1   6
TORSDOF 4
ENDMDL
MODEL 2
REMARK VINA RESULT:      -5.4      1.855      4.744
REMARK  4 active torsions:
REMARK  status: ('A' for Active; 'I' for Inactive)
REMARK    1  A    between atoms: C_2  and  O_3 
REMARK    2  A    between atoms: O_3  and  C_4 
REMARK    3  A    between atoms: C_4  and  C_5 
REMARK    4  A    between atoms: C_5  and  C_6 
ROOT
HETATM    1  C   LIG     1      17.294  38.115  25.219  1.00  0.00     0.179 C 
ENDROOT
BRANCH   1   2
HETATM    2  O   LIG     1      17.806  38.617  23.990  1.00  0.00    -0.322 OA
BRANCH   2   3
HETATM    3  C   LIG     1      17.063  38.610  22.806  1.00  0.00     0.254 C 
HETATM    4  C   LIG     1      17.657  38.010  21.576  1.00  0.00     0.126 C 
HETATM    5  O   LIG     1      15.902  39.100  22.769  1.00  0.00    -0.266 OA
ENDBRANCH   2   3
ENDBRANCH   1   2
BRANCH   1   6
HETATM    6  C   LIG     1      18.240  37.040  25.761  1.00  0.00     0.031 C 
BRANCH   6   7
HETATM    7  C   LIG     1      17.604  35.631  25.778  1.00  0.00    -0.021 C 
HETATM    8  C   LIG     1      17.250  35.145  24.364  1.00  0.00     0.009 C 
HETATM    9  C   LIG     1      18.557  34.633  26.448  1.00  0.00     0.009 C 
ENDBRANCH   6   7
ENDBRANCH   1   6
TORSDOF 4
ENDMDL
MODEL 3
REMARK VINA RESULT:      -5.3      1.326      2.205
REMARK  4 active torsions:
REMARK  status: ('A' for Active; 'I' for Inactive)
REMARK    1  A    between atoms: C_2  and  O_3 
REMARK    2  A    between atoms: O_3  and  C_4 
REMARK    3  A    between atoms: C_4  and  C_5 
REMARK    4  A    between atoms: C_5  and  C_6 
ROOT
HETATM    1  C   LIG     1      16.036  38.060  22.988  1.00  0.00     0.179 C 
ENDROOT
BRANCH   1   2
HETATM    2  O   LIG     1      16.233  37.783  24.371  1.00  0.00    -0.322 OA
BRANCH   2   3
HETATM    3  C   LIG     1      17.159  36.839  24.824  1.00  0.00     0.254 C 
HETATM    4  C   LIG     1      18.047  37.183  25.972  1.00  0.00     0.126 C 
HETATM    5  O   LIG     1      17.249  35.708  24.276  1.00  0.00    -0.266 OA
ENDBRANCH   2   3
ENDBRANCH   1   2
BRANCH   1   6
HETATM    6  C   LIG     1      17.111  39.039  22.509  1.00  0.00     0.031 C 
BRANCH   6   7
HETATM    7  C   LIG     1      18.196  38.364  21.641  1.00  0.00    -0.021 C 
HETATM    8  C   LIG     1      17.697  37.052  21.018  1.00  0.00     0.009 C 
HETATM    9  C   LIG     1      18.657  39.324  20.536  1.00  0.00     0.009 C 
ENDBRANCH   6   7
ENDBRANCH   1   6
TORSDOF 4
ENDMDL
MODEL 4
REMARK VINA RESULT:      -5.1      1.635      4.712
REMARK  4 active torsions:
REMARK  status: ('A' for Active; 'I' for Inactive)
REMARK    1  A    between atoms: C_2  and  O_3 
REMARK    2  A    between atoms: O_3  and  C_4 
REMARK    3  A    between atoms: C_4  and  C_5 
REMARK    4  A    between atoms: C_5  and  C_6 
ROOT
HETATM    1  C   LIG     1      16.292  37.516  23.909  1.00  0.00     0.179 C 
ENDROOT
BRANCH   1   2
HETATM    2  O   LIG     1      16.639  38.436  22.880  1.00  0.00    -0.322 OA
BRANCH   2   3
HETATM    3  C   LIG     1      17.597  38.146  21.903  1.00  0.00     0.254 C 
HETATM    4  C   LIG     1      18.641  39.161  21.582  1.00  0.00     0.126 C 
HETATM    5  O   LIG     1      17.587  37.041  21.298  1.00  0.00    -0.266 OA
ENDBRANCH   2   3
ENDBRANCH   1   2
BRANCH   1   6
HETATM    6  C   LIG     1      17.250  37.691  25.090  1.00  0.00     0.031 C 
BRANCH   6   7
HETATM    7  C   LIG     1      18.070  36.417  25.394  1.00  0.00    -0.021 C 
HETATM    8  C   LIG     1      18.337  36.253  26.898  1.00  0.00     0.009 C 
HETATM    9  C   LIG     1      17.336  35.180  24.858  1.00  0.00     0.009 C 
ENDBRANCH   6   7
ENDBRANCH   1   6
TORSDOF 4
ENDMDL
MODEL 5
REMARK VINA RESULT:      -5.1      2.174      3.056
REMARK  4 active torsions:
REMARK  status: ('A' for Active; 'I' for Inactive)
REMARK    1  A    between atoms: C_2  and  O_3 
REMARK    2  A    between atoms: O_3  and  C_4 
REMARK    3  A    between atoms: C_4  and  C_5 
REMARK    4  A    between atoms: C_5  and  C_6 
ROOT
HETATM    1  C   LIG     1      16.618  37.680  23.115  1.00  0.00     0.179 C 
ENDROOT
BRANCH   1   2
HETATM    2  O   LIG     1      17.220  36.922  24.159  1.00  0.00    -0.322 OA
BRANCH   2   3
HETATM    3  C   LIG     1      17.540  37.476  25.402  1.00  0.00     0.254 C 
HETATM    4  C   LIG     1      18.375  36.692  26.356  1.00  0.00     0.126 C 
HETATM    5  O   LIG     1      17.133  38.626  25.720  1.00  0.00    -0.266 OA
ENDBRANCH   2   3
ENDBRANCH   1   2
BRANCH   1   6
HETATM    6  C   LIG     1      15.924  36.730  22.135  1.00  0.00     0.031 C 
BRANCH   6   7
HETATM    7  C   LIG     1      16.885  35.682  21.529  1.00  0.00    -0.021 C 
HETATM    8  C   LIG     1      16.125  34.536  20.844  1.00  0.00     0.009 C 
HETATM    9  C   LIG     1      17.829  36.355  20.524  1.00  0.00     0.009 C 
ENDBRANCH   6   7
ENDBRANCH   1   6
TORSDOF 4
ENDMDL
MODEL 6
REMARK VINA RESULT:      -5.0      2.016      4.956
REMARK  4 active torsions:
REMARK  status: ('A' for Active; 'I' for Inactive)
REMARK    1  A    between atoms: C_2  and  O_3 
REMARK    2  A    between atoms: O_3  and  C_4 
REMARK    3  A    between atoms: C_4  and  C_5 
REMARK    4  A    between atoms: C_5  and  C_6 
ROOT
HETATM    1  C   LIG     1      16.661  36.812  23.058  1.00  0.00     0.179 C 
ENDROOT
BRANCH   1   2
HETATM    2  O   LIG     1      17.242  36.772  21.758  1.00  0.00    -0.322 OA
BRANCH   2   3
HETATM    3  C   LIG     1      18.014  37.819  21.247  1.00  0.00     0.254 C 
HETATM    4  C   LIG     1      18.075  39.110  21.990  1.00  0.00     0.126 C 
HETATM    5  O   LIG     1      18.657  37.681  20.172  1.00  0.00    -0.266 OA
ENDBRANCH   2   3
ENDBRANCH   1   2
BRANCH   1   6
HETATM    6  C   LIG     1      17.189  35.637  23.885  1.00  0.00     0.031 C 
BRANCH   6   7
HETATM    7  C   LIG     1      17.403  35.997  25.373  1.00  0.00    -0.021 C 
HETATM    8  C   LIG     1      18.083  34.857  26.146  1.00  0.00     0.009 C 
HETATM    9  C   LIG     1      18.240  37.277  25.488  1.00  0.00     0.009 C 
ENDBRANCH   6   7
ENDBRANCH   1   6
TORSDOF 4
ENDMDL
MODEL 7
REMARK VINA RESULT:      -5.0      2.007      4.744
REMARK  4 active torsions:
REMARK  status: ('A' for Active; 'I' for Inactive)
REMARK    1  A    between atoms: C_2  and  O_3 
REMARK    2  A    between atoms: O_3  and  C_4 
REMARK    3  A    between atoms: C_4  and  C_5 
REMARK    4  A    between atoms: C_5  and  C_6 
ROOT
HETATM    1  C   LIG     1      17.678  38.821  21.503  1.00  0.00     0.179 C 
ENDROOT
BRANCH   1   2
HETATM    2  O   LIG     1      19.019  39.155  21.160  1.00  0.00    -0.322 OA
BRANCH   2   3
HETATM    3  C   LIG     1      19.624  38.717  19.978  1.00  0.00     0.254 C 
HETATM    4  C   LIG     1      19.320  37.350  19.466  1.00  0.00     0.126 C 
HETATM    5  O   LIG     1      20.417  39.465  19.344  1.00  0.00    -0.266 OA
ENDBRANCH   2   3
ENDBRANCH   1   2
BRANCH   1   6
HETATM    6  C   LIG     1      17.461  39.072  22.998  1.00  0.00     0.031 C 
BRANCH   6   7
HETATM    7  C   LIG     1      17.661  37.803  23.857  1.00  0.00    -0.021 C 
HETATM    8  C   LIG     1      17.255  38.032  25.320  1.00  0.00     0.009 C 
HETATM    9  C   LIG     1      16.853  36.638  23.268  1.00  0.00     0.009 C 
ENDBRANCH   6   7
ENDBRANCH   1   6
TORSDOF 4
ENDMDL
MODEL 8
REMARK VINA RESULT:      -4.8      3.356      4.274
REMARK  4 active torsions:
REMARK  status: ('A' for Active; 'I' for Inactive)
REMARK    1  A    between atoms: C_2  and  O_3 
REMARK    2  A    between atoms: O_3  and  C_4 
REMARK    3  A    between atoms: C_4  and  C_5 
REMARK    4  A    between atoms: C_5  and  C_6 
ROOT
HETATM    1  C   LIG     1      16.981  36.025  21.174  1.00  0.00     0.179 C 
ENDROOT
BRANCH   1   2
HETATM    2  O   LIG     1      16.589  34.953  20.323  1.00  0.00    -0.322 OA
BRANCH   2   3
HETATM    3  C   LIG     1      15.576  34.052  20.665  1.00  0.00     0.254 C 
HETATM    4  C   LIG     1      15.442  32.781  19.898  1.00  0.00     0.126 C 
HETATM    5  O   LIG     1      14.782  34.303  21.611  1.00  0.00    -0.266 OA
ENDBRANCH   2   3
ENDBRANCH   1   2
BRANCH   1   6
HETATM    6  C   LIG     1      17.993  36.910  20.442  1.00  0.00     0.031 C 
BRANCH   6   7
HETATM    7  C   LIG     1      18.357  38.188  21.232  1.00  0.00    -0.021 C 
HETATM    8  C   LIG     1      18.871  39.304  20.309  1.00  0.00     0.009 C 
HETATM    9  C   LIG     1      17.138  38.683  22.020  1.00  0.00     0.009 C 
ENDBRANCH   6   7
ENDBRANCH   1   6
TORSDOF 4
ENDMDL
MODEL 9
REMARK VINA RESULT:      -4.7      2.284      4.791
REMARK  4 active torsions:
REMARK  status: ('A' for Active; 'I' for Inactive)
REMARK    1  A    between atoms: C_2  and  O_3 
REMARK    2  A    between atoms: O_3  and  C_4 
REMARK    3  A    between atoms: C_4  and  C_5 
REMARK    4  A    between atoms: C_5  and  C_6 
ROOT
HETATM    1  C   LIG     1      17.033  37.853  22.347  1.00  0.00     0.179 C 
ENDROOT
BRANCH   1   2
HETATM    2  O   LIG     1      17.983  37.457  21.364  1.00  0.00    -0.322 OA
BRANCH   2   3
HETATM    3  C   LIG     1      17.704  36.489  20.394  1.00  0.00     0.254 C 
HETATM    4  C   LIG     1      16.602  35.514  20.633  1.00  0.00     0.126 C 
HETATM    5  O   LIG     1      18.371  36.436  19.325  1.00  0.00    -0.266 OA
ENDBRANCH   2   3
ENDBRANCH   1   2
BRANCH   1   6
HETATM    6  C   LIG     1      17.739  38.023  23.695  1.00  0.00     0.031 C 
BRANCH   6   7
HETATM    7  C   LIG     1      17.211  37.055  24.778  1.00  0.00    -0.021 C 
HETATM    8  C   LIG     1      17.147  35.607  24.269  1.00  0.00     0.009 C 
HETATM    9  C   LIG     1      18.100  37.130  26.026  1.00  0.00     0.009 C 
ENDBRANCH   6   7
ENDBRANCH   1   6
TORSDOF 4
ENDMDL
MODEL 10
REMARK VINA RESULT:      -4.7      1.947      3.008
REMARK  4 active torsions:
REMARK  status: ('A' for Active; 'I' for Inactive)
REMARK    1  A    between atoms: C_2  and  O_3 
REMARK    2  A    between atoms: O_3  and  C_4 
REMARK    3  A    between atoms: C_4  and  C_5 
REMARK    4  A    between atoms: C_5  and  C_6 
ROOT
HETATM    1  C   LIG     1      16.926  35.970  23.381  1.00  0.00     0.179 C 
ENDROOT
BRANCH   1   2
HETATM    2  O   LIG     1      17.211  36.749  24.538  1.00  0.00    -0.322 OA
BRANCH   2   3
HETATM    3  C   LIG     1      17.863  36.224  25.657  1.00  0.00     0.254 C 
HETATM    4  C   LIG     1      17.581  34.819  26.073  1.00  0.00     0.126 C 
HETATM    5  O   LIG     1      18.683  36.921  26.313  1.00  0.00    -0.266 OA
ENDBRANCH   2   3
ENDBRANCH   1   2
BRANCH   1   6
HETATM    6  C   LIG     1      17.153  36.821  22.129  1.00  0.00     0.031 C 
BRANCH   6   7
HETATM    7  C   LIG     1      17.583  38.269  22.455  1.00  0.00    -0.021 C 
HETATM    8  C   LIG     1      18.559  38.827  21.408  1.00  0.00     0.009 C 
HETATM    9  C   LIG     1      16.347  39.175  22.549  1.00  0.00     0.009 C 
ENDBRANCH   6   7
ENDBRANCH   1   6
TORSDOF 4
ENDMDL
MODEL 11
REMARK VINA RESULT:      -4.7      2.877      5.056
REMARK  4 active torsions:
REMARK  status: ('A' for Active; 'I' for Inactive)
REMARK    1  A    between atoms: C_2  and  O_3 
REMARK    2  A    between atoms: O_3  and  C_4 
REMARK    3  A    between atoms: C_4  and  C_5 
REMARK    4  A    between atoms: C_5  and  C_6 
ROOT
HETATM    1  C   LIG     1      18.294  36.710  20.032  1.00  0.00     0.179 C 
ENDROOT
BRANCH   1   2
HETATM    2  O   LIG     1      19.503  37.321  19.594  1.00  0.00    -0.322 OA
BRANCH   2   3
HETATM    3  C   LIG     1      19.559  38.645  19.149  1.00  0.00     0.254 C 
HETATM    4  C   LIG     1      18.821  39.030  17.912  1.00  0.00     0.126 C 
HETATM    5  O   LIG     1      20.222  39.511  19.781  1.00  0.00    -0.266 OA
ENDBRANCH   2   3
ENDBRANCH   1   2
BRANCH   1   6
HETATM    6  C   LIG     1      17.764  37.457  21.259  1.00  0.00     0.031 C 
BRANCH   6   7
HETATM    7  C   LIG     1      16.546  36.762  21.907  1.00  0.00    -0.021 C 
HETATM    8  C   LIG     1      16.940  35.455  22.612  1.00  0.00     0.009 C 
HETATM    9  C   LIG     1      15.870  37.710  22.906  1.00  0.00     0.009 C 
ENDBRANCH   6   7
ENDBRANCH   1   6
TORSDOF 4
ENDMDL
MODEL 12
REMARK VINA RESULT:      -4.6      5.123      6.449
REMARK  4 active torsions:
REMARK  status: ('A' for Active; 'I' for Inactive)
REMARK    1  A    between atoms: C_2  and  O_3 
REMARK    2  A    between atoms: O_3  and  C_4 
REMARK    3  A    between atoms: C_4  and  C_5 
REMARK    4  A    between atoms: C_5  and  C_6 
ROOT
HETATM    1  C   LIG     1      15.689  34.469  20.024  1.00  0.00     0.179 C 
ENDROOT
BRANCH   1   2
HETATM    2  O   LIG     1      15.553  33.083  20.318  1.00  0.00    -0.322 OA
BRANCH   2   3
HETATM    3  C   LIG     1      15.017  32.169  19.405  1.00  0.00     0.254 C 
HETATM    4  C   LIG     1      14.997  32.514  17.955  1.00  0.00     0.126 C 
HETATM    5  O   LIG     1      14.557  31.062  19.795  1.00  0.00    -0.266 OA
ENDBRANCH   2   3
ENDBRANCH   1   2
BRANCH   1   6
HETATM    6  C   LIG     1      15.262  35.290  21.244  1.00  0.00     0.031 C 
BRANCH   6   7
HETATM    7  C   LIG     1      16.443  36.028  21.915  1.00  0.00    -0.021 C 
HETATM    8  C   LIG     1      17.015  35.234  23.099  1.00  0.00     0.009 C 
HETATM    9  C   LIG     1      17.548  36.297  20.885  1.00  0.00     0.009 C 
ENDBRANCH   6   7
ENDBRANCH   1   6
TORSDOF 4
ENDMDL
MODEL 13
REMARK VINA RESULT:      -4.6      3.357      5.358
REMARK  4 active torsions:
REMARK  status: ('A' for Active; 'I' for Inactive)
REMARK    1  A    between atoms: C_2  and  O_3 
REMARK    2  A    between atoms: O_3  and  C_4 
REMARK    3  A    between atoms: C_4  and  C_5 
REMARK    4  A    between atoms: C_5  and  C_6 
ROOT
HETATM    1  C   LIG     1      16.859  36.300  22.682  1.00  0.00     0.179 C 
ENDROOT
BRANCH   1   2
HETATM    2  O   LIG     1      15.568  36.124  22.110  1.00  0.00    -0.322 OA
BRANCH   2   3
HETATM    3  C   LIG     1      15.268  35.072  21.239  1.00  0.00     0.254 C 
HETATM    4  C   LIG     1      15.818  35.093  19.853  1.00  0.00     0.126 C 
HETATM    5  O   LIG     1      14.543  34.111  21.614  1.00  0.00    -0.266 OA
ENDBRANCH   2   3
ENDBRANCH   1   2
BRANCH   1   6
HETATM    6  C   LIG     1      16.991  35.409  23.920  1.00  0.00     0.031 C 
BRANCH   6   7
HETATM    7  C   LIG     1      17.840  36.054  25.039  1.00  0.00    -0.021 C 
HETATM    8  C   LIG     1      17.312  37.443  25.429  1.00  0.00     0.009 C 
HETATM    9  C   LIG     1      17.864  35.141  26.272  1.00  0.00     0.009 C 
ENDBRANCH   6   7
ENDBRANCH   1   6
TORSDOF 4
ENDMDL
MODEL 14
REMARK VINA RESULT:      -4.6      2.042      2.440
REMARK  4 active torsions:
REMARK  status: ('A' for Active; 'I' for Inactive)
REMARK    1  A    between atoms: C_2  and  O_3 
REMARK    2  A    between atoms: O_3  and  C_4 
REMARK    3  A    between atoms: C_4  and  C_5 
REMARK    4  A    between atoms: C_5  and  C_6 
ROOT
HETATM    1  C   LIG     1      18.027  37.890  21.951  1.00  0.00     0.179 C 
ENDROOT
BRANCH   1   2
HETATM    2  O   LIG     1      16.649  37.535  21.968  1.00  0.00    -0.322 OA
BRANCH   2   3
HETATM    3  C   LIG     1      16.215  36.208  22.051  1.00  0.00     0.254 C 
HETATM    4  C   LIG     1      14.961  35.807  21.351  1.00  0.00     0.126 C 
HETATM    5  O   LIG     1      16.871  35.354  22.706  1.00  0.00    -0.266 OA
ENDBRANCH   2   3
ENDBRANCH   1   2
BRANCH   1   6
HETATM    6  C   LIG     1      18.269  38.931  20.855  1.00  0.00     0.031 C 
BRANCH   6   7
HETATM    7  C   LIG     1      18.974  38.343  19.612  1.00  0.00    -0.021 C 
HETATM    8  C   LIG     1      20.428  38.826  19.497  1.00  0.00     0.009 C 
HETATM    9  C   LIG     1      18.937  36.810  19.663  1.00  0.00     0.009 C 
ENDBRANCH   6   7
ENDBRANCH   1   6
TORSDOF 4
ENDMDL
MODEL 15
REMARK VINA RESULT:      -4.4      4.589      5.722
REMARK  4 active torsions:
REMARK  status: ('A' for Active; 'I' for Inactive)
REMARK    1  A    between atoms: C_2  and  O_3 
REMARK    2  A    between atoms: O_3  and  C_4 
REMARK    3  A    between atoms: C_4  and  C_5 
REMARK    4  A    between atoms: C_5  and  C_6 
ROOT
HETATM    1  C   LIG     1      16.245  34.924  20.854  1.00  0.00     0.179 C 
ENDROOT
BRANCH   1   2
HETATM    2  O   LIG     1      15.741  33.593  20.844  1.00  0.00    -0.322 OA
BRANCH   2   3
HETATM    3  C   LIG     1      15.392  32.929  19.664  1.00  0.00     0.254 C 
HETATM    4  C   LIG     1      14.850  31.542  19.741  1.00  0.00     0.126 C 
HETATM    5  O   LIG     1      15.531  33.489  18.544  1.00  0.00    -0.266 OA
ENDBRANCH   2   3
ENDBRANCH   1   2
BRANCH   1   6
HETATM    6  C   LIG     1      16.601  35.321  22.289  1.00  0.00     0.031 C 
BRANCH   6   7
HETATM    7  C   LIG     1      16.996  36.809  22.422  1.00  0.00    -0.021 C 
HETATM    8  C   LIG     1      17.695  37.331  21.158  1.00  0.00     0.009 C 
HETATM    9  C   LIG     1      15.753  37.658  22.718  1.00  0.00     0.009 C 
ENDBRANCH   6   7
ENDBRANCH   1   6
TORSDOF 4
ENDMDL
MODEL 16
REMARK VINA RESULT:      -4.4      2.827      4.114
REMARK  4 active torsions:
REMARK  status: ('A' for Active; 'I' for Inactive)
REMARK    1  A    between atoms: C_2  and  O_3 
REMARK    2  A    between atoms: O_3  and  C_4 
REMARK    3  A    between atoms: C_4  and  C_5 
REMARK    4  A    between atoms: C_5  and  C_6 
ROOT
HETATM    1  C   LIG     1      17.695  36.529  21.337  1.00  0.00     0.179 C 
ENDROOT
BRANCH   1   2
HETATM    2  O   LIG     1      17.271  37.354  22.417  1.00  0.00    -0.322 OA
BRANCH   2   3
HETATM    3  C   LIG     1      17.433  38.742  22.413  1.00  0.00     0.254 C 
HETATM    4  C   LIG     1      18.511  39.348  21.580  1.00  0.00     0.126 C 
HETATM    5  O   LIG     1      16.679  39.482  23.102  1.00  0.00    -0.266 OA
ENDBRANCH   2   3
ENDBRANCH   1   2
BRANCH   1   6
HETATM    6  C   LIG     1      17.077  35.137  21.488  1.00  0.00     0.031 C 
BRANCH   6   7
HETATM    7  C   LIG     1      15.856  34.918  20.566  1.00  0.00    -0.021 C 
HETATM    8  C   LIG     1      15.593  33.426  20.310  1.00  0.00     0.009 C 
HETATM    9  C   LIG     1      14.610  35.568  21.181  1.00  0.00     0.009 C 
ENDBRANCH   6   7
ENDBRANCH   1   6
TORSDOF 4
ENDMDL
MODEL 17
REMARK VINA RESULT:      -4.4      8.824     10.354
REMARK  4 active torsions:
REMARK  status: ('A' for Active; 'I' for Inactive)
REMARK    1  A    between atoms: C_2  and  O_3 
REMARK    2  A    between atoms: O_3  and  C_4 
REMARK    3  A    between atoms: C_4  and  C_5 
REMARK    4  A    between atoms: C_5  and  C_6 
ROOT
HETATM    1  C   LIG     1      16.235  32.339  15.417  1.00  0.00     0.179 C 
ENDROOT
BRANCH   1   2
HETATM    2  O   LIG     1      16.291  33.376  14.443  1.00  0.00    -0.322 OA
BRANCH   2   3
HETATM    3  C   LIG     1      17.400  34.216  14.300  1.00  0.00     0.254 C 
HETATM    4  C   LIG     1      18.604  33.717  13.575  1.00  0.00     0.126 C 
HETATM    5  O   LIG     1      17.390  35.383  14.775  1.00  0.00    -0.266 OA
ENDBRANCH   2   3
ENDBRANCH   1   2
BRANCH   1   6
HETATM    6  C   LIG     1      15.242  31.267  14.959  1.00  0.00     0.031 C 
BRANCH   6   7
HETATM    7  C   LIG     1      14.204  30.906  16.045  1.00  0.00    -0.021 C 
HETATM    8  C   LIG     1      13.844  32.116  16.920  1.00  0.00     0.009 C 
HETATM    9  C   LIG     1      12.936  30.340  15.392  1.00  0.00     0.009 C 
ENDBRANCH   6   7
ENDBRANCH   1   6
TORSDOF 4
ENDMDL
MODEL 18
REMARK VINA RESULT:      -4.3      2.453      3.035
REMARK  4 active torsions:
REMARK  status: ('A' for Active; 'I' for Inactive)
REMARK    1  A    between atoms: C_2  and  O_3 
REMARK    2  A    between atoms: O_3  and  C_4 
REMARK    3  A    between atoms: C_4  and  C_5 
REMARK    4  A    between atoms: C_5  and  C_6 
ROOT
HETATM    1  C   LIG     1      17.287  36.225  20.005  1.00  0.00     0.179 C 
ENDROOT
BRANCH   1   2
HETATM    2  O   LIG     1      16.510  36.368  21.190  1.00  0.00    -0.322 OA
BRANCH   2   3
HETATM    3  C   LIG     1      16.237  35.296  22.045  1.00  0.00     0.254 C 
HETATM    4  C   LIG     1      17.061  35.117  23.275  1.00  0.00     0.126 C 
HETATM    5  O   LIG     1      15.306  34.486  21.788  1.00  0.00    -0.266 OA
ENDBRANCH   2   3
ENDBRANCH   1   2
BRANCH   1   6
HETATM    6  C   LIG     1      18.693  36.779  20.252  1.00  0.00     0.031 C 
BRANCH   6   7
HETATM    7  C   LIG     1      18.767  38.316  20.111  1.00  0.00    -0.021 C 
HETATM    8  C   LIG     1      18.588  39.024  21.462  1.00  0.00     0.009 C 
HETATM    9  C   LIG     1      20.108  38.721  19.483  1.00  0.00     0.009 C 
ENDBRANCH   6   7
ENDBRANCH   1   6
TORSDOF 4
ENDMDL
MODEL 19
REMARK VINA RESULT:      -4.3      8.220      9.967
REMARK  4 active torsions:
REMARK  status: ('A' for Active; 'I' for Inactive)
REMARK    1  A    between atoms: C_2  and  O_3 
REMARK    2  A    between atoms: O_3  and  C_4 
REMARK    3  A    between atoms: C_4  and  C_5 
REMARK    4  A    between atoms: C_5  and  C_6 
ROOT
HETATM    1  C   LIG     1      15.234  32.531  16.678  1.00  0.00     0.179 C 
ENDROOT
BRANCH   1   2
HETATM    2  O   LIG     1      14.847  31.454  15.832  1.00  0.00    -0.322 OA
BRANCH   2   3
HETATM    3  C   LIG     1      15.559  31.109  14.680  1.00  0.00     0.254 C 
HETATM    4  C   LIG     1      15.182  29.876  13.931  1.00  0.00     0.126 C 
HETATM    5  O   LIG     1      16.510  31.828  14.269  1.00  0.00    -0.266 OA
ENDBRANCH   2   3
ENDBRANCH   1   2
BRANCH   1   6
HETATM    6  C   LIG     1      14.480  32.429  18.007  1.00  0.00     0.031 C 
BRANCH   6   7
HETATM    7  C   LIG     1      15.417  32.201  19.214  1.00  0.00    -0.021 C 
HETATM    8  C   LIG     1      15.574  33.470  20.065  1.00  0.00     0.009 C 
HETATM    9  C   LIG     1      14.884  31.054  20.084  1.00  0.00     0.009 C 
ENDBRANCH   6   7
ENDBRANCH   1   6
TORSDOF 4
ENDMDL
MODEL 20
REMARK VINA RESULT:      -4.2      5.199      6.573
REMARK  4 active torsions:
REMARK  status: ('A' for Active; 'I' for Inactive)
REMARK    1  A    between atoms: C_2  and  O_3 
REMARK    2  A    between atoms: O_3  and  C_4 
REMARK    3  A    between atoms: C_4  and  C_5 
REMARK    4  A    between atoms: C_5  and  C_6 
ROOT
HETATM    1  C   LIG     1      15.693  34.763  19.683  1.00  0.00     0.179 C 
ENDROOT
BRANCH   1   2
HETATM    2  O   LIG     1      15.569  33.405  19.276  1.00  0.00    -0.322 OA
BRANCH   2   3
HETATM    3  C   LIG     1      15.182  33.038  17.984  1.00  0.00     0.254 C 
HETATM    4  C   LIG     1      14.232  31.903  17.802  1.00  0.00     0.126 C 
HETATM    5  O   LIG     1      15.624  33.656  16.978  1.00  0.00    -0.266 OA
ENDBRANCH   2   3
ENDBRANCH   1   2
BRANCH   1   6
HETATM    6  C   LIG     1      15.743  34.832  21.211  1.00  0.00     0.031 C 
BRANCH   6   7
HETATM    7  C   LIG     1      17.091  35.367  21.745  1.00  0.00    -0.021 C 
HETATM    8  C   LIG     1      17.718  36.396  20.792  1.00  0.00     0.009 C 
HETATM    9  C   LIG     1      16.895  35.994  23.132  1.00  0.00     0.009 C 
ENDBRANCH   6   7
ENDBRANCH   1   6
TORSDOF 4
ENDMDL
