REMARK  0 active torsions:
REMARK  status: ('A' for Active; 'I' for Inactive)
ROOT
HETATM    1  C   LIG     1       0.356   1.098   0.591  1.00  0.00     0.269 C 
HETATM    2  C   LIG     1       1.156  -0.026  -0.033  1.00  0.00     0.032 C 
HETATM    3  C   LIG     1       0.162  -1.153  -0.158  1.00  0.00     0.032 C 
HETATM    4  C   LIG     1      -1.188  -0.462  -0.265  1.00  0.00     0.269 C 
HETATM    5  N   LIG     1      -1.042   0.922   0.199  1.00  0.00     0.083 N 
HETATM    6  H   LIG     1      -1.238   1.562  -0.606  1.00  0.00     0.315 HD
ENDROOT
TORSDOF 0
