REMARK  2 active torsions:
REMARK  status: ('A' for Active; 'I' for Inactive)
REMARK    1  A    between atoms: O_1  and  C_2 
REMARK    2  A    between atoms: C_5  and  O_6 
ROOT
HETATM    1  C   LIG     1      -1.354  -0.279  -0.239  1.00  0.00     0.065 A 
HETATM    2  C   LIG     1      -0.486  -1.302   0.158  1.00  0.00     0.039 A 
HETATM    3  C   LIG     1       0.865  -1.026   0.397  1.00  0.00     0.039 A 
HETATM    4  C   LIG     1       1.354   0.279   0.239  1.00  0.00     0.065 A 
HETATM    5  C   LIG     1       0.486   1.302  -0.158  1.00  0.00     0.039 A 
HETATM    6  C   LIG     1      -0.865   1.026  -0.397  1.00  0.00     0.039 A 
ENDROOT
BRANCH   1   7
HETATM    7  O   LIG     1      -2.696  -0.568  -0.473  1.00  0.00    -0.361 OA
HETATM    8  H   LIG     1      -3.350   0.151  -0.761  1.00  0.00     0.217 HD
ENDBRANCH   1   7
BRANCH   4   9
HETATM    9  O   LIG     1       2.696   0.568   0.473  1.00  0.00    -0.361 OA
HETATM   10  H   LIG     1       3.350  -0.151   0.761  1.00  0.00     0.217 HD
ENDBRANCH   4   9
TORSDOF 2
