REMARK  4 active torsions:
REMARK  status: ('A' for Active; 'I' for Inactive)
REMARK    1  A    between atoms: C_2  and  C_3 
REMARK    2  A    between atoms: C_3  and  C_4 
REMARK    3  A    between atoms: C_4  and  C_5 
REMARK    4  A    between atoms: C_5  and  C_6 
ROOT
HETATM    1  C   LIG     1       0.246   0.423   0.494  1.00  0.00     0.127 C 
HETATM    2  O   LIG     1       0.386   1.605   0.216  1.00  0.00    -0.298 OA
ENDROOT
BRANCH   1   3
HETATM    3  C   LIG     1      -1.110  -0.237   0.410  1.00  0.00     0.078 C 
BRANCH   3   4
HETATM    4  C   LIG     1      -2.210   0.710  -0.093  1.00  0.00     0.003 C 
HETATM    5  C   LIG     1      -3.557  -0.002  -0.169  1.00  0.00     0.005 C 
ENDBRANCH   3   4
ENDBRANCH   1   3
BRANCH   1   6
HETATM    6  C   LIG     1       1.440  -0.377   0.947  1.00  0.00     0.078 C 
BRANCH   6   7
HETATM    7  C   LIG     1       2.320  -0.817  -0.231  1.00  0.00     0.003 C 
HETATM    8  C   LIG     1       3.093   0.344  -0.858  1.00  0.00     0.005 C 
ENDBRANCH   6   7
ENDBRANCH   1   6
TORSDOF 4
