REMARK  2 active torsions:
REMARK  status: ('A' for Active; 'I' for Inactive)
REMARK    1  A    between atoms: C_2  and  C_3 
REMARK    2  A    between atoms: C_6  and  O_7 
ROOT
HETATM    1  C   LIG     1       1.881   0.201  -0.021  1.00  0.00     0.002 A 
HETATM    2  C   LIG     1       0.985   0.381   1.043  1.00  0.00     0.017 A 
HETATM    3  C   LIG     1      -0.386   0.182   0.856  1.00  0.00     0.037 A 
HETATM    4  C   LIG     1      -0.883  -0.203  -0.404  1.00  0.00     0.068 A 
HETATM    5  C   LIG     1       0.013  -0.382  -1.464  1.00  0.00     0.037 A 
HETATM    6  C   LIG     1       1.385  -0.183  -1.278  1.00  0.00     0.017 A 
ENDROOT
BRANCH   1   7
HETATM    7  C   LIG     1       3.323   0.415   0.196  1.00  0.00     0.269 C 
HETATM    8  O   LIG     1       4.152   0.261  -0.740  1.00  0.00    -0.301 OA
ENDBRANCH   1   7
BRANCH   4   9
HETATM    9  O   LIG     1      -2.249  -0.414  -0.642  1.00  0.00    -0.356 OA
HETATM   10  C   LIG     1      -3.268  -0.269   0.341  1.00  0.00     0.210 C 
ENDBRANCH   4   9
TORSDOF 2
