MODEL 1
REMARK VINA RESULT:      -4.8      0.000      0.000
REMARK  0 active torsions:
REMARK  status: ('A' for Active; 'I' for Inactive)
ROOT
HETATM    1  O   LIG     1      20.470  39.427  19.294  1.00  0.00    -0.273 OA
HETATM    2  C   LIG     1      19.559  38.956  20.024  1.00  0.00     0.224 A 
HETATM    3  C   LIG     1      18.993  37.584  19.871  1.00  0.00     0.112 A 
HETATM    4  C   LIG     1      17.929  37.499  20.983  1.00  0.00     0.112 A 
HETATM    5  N   LIG     1      18.971  39.690  21.078  1.00  0.00    -0.298 N 
HETATM    6  C   LIG     1      18.005  38.833  21.649  1.00  0.00     0.224 A 
HETATM    7  O   LIG     1      17.285  39.174  22.625  1.00  0.00    -0.273 OA
HETATM    8  H   LIG     1      19.201  40.665  21.373  1.00  0.00     0.171 HD
ENDROOT
TORSDOF 0
ENDMDL
MODEL 2
REMARK VINA RESULT:      -4.8      0.131      2.867
REMARK  0 active torsions:
REMARK  status: ('A' for Active; 'I' for Inactive)
ROOT
HETATM    1  O   LIG     1      17.388  38.970  22.704  1.00  0.00    -0.273 OA
HETATM    2  C   LIG     1      18.074  38.699  21.683  1.00  0.00     0.224 A 
HETATM    3  C   LIG     1      17.967  37.418  20.923  1.00  0.00     0.112 A 
HETATM    4  C   LIG     1      18.996  37.579  19.787  1.00  0.00     0.112 A 
HETATM    5  N   LIG     1      19.028  39.591  21.146  1.00  0.00    -0.298 N 
HETATM    6  C   LIG     1      19.577  38.934  20.023  1.00  0.00     0.224 A 
HETATM    7  O   LIG     1      20.470  39.452  19.301  1.00  0.00    -0.273 OA
HETATM    8  H   LIG     1      19.276  40.540  21.504  1.00  0.00     0.171 HD
ENDROOT
TORSDOF 0
ENDMDL
MODEL 3
REMARK VINA RESULT:      -4.7      4.537      5.534
REMARK  0 active torsions:
REMARK  status: ('A' for Active; 'I' for Inactive)
ROOT
HETATM    1  O   LIG     1      17.890  34.580  26.414  1.00  0.00    -0.273 OA
HETATM    2  C   LIG     1      17.553  35.459  25.578  1.00  0.00     0.224 A 
HETATM    3  C   LIG     1      17.236  35.170  24.148  1.00  0.00     0.112 A 
HETATM    4  C   LIG     1      16.890  36.554  23.562  1.00  0.00     0.112 A 
HETATM    5  N   LIG     1      17.440  36.826  25.911  1.00  0.00    -0.298 N 
HETATM    6  C   LIG     1      17.048  37.480  24.722  1.00  0.00     0.224 A 
HETATM    7  O   LIG     1      16.854  38.723  24.662  1.00  0.00    -0.273 OA
HETATM    8  H   LIG     1      17.611  37.264  26.844  1.00  0.00     0.171 HD
ENDROOT
TORSDOF 0
ENDMDL
MODEL 4
REMARK VINA RESULT:      -4.7      1.922      3.143
REMARK  0 active torsions:
REMARK  status: ('A' for Active; 'I' for Inactive)
ROOT
HETATM    1  O   LIG     1      17.642  35.954  20.311  1.00  0.00    -0.273 OA
HETATM    2  C   LIG     1      18.207  37.077  20.377  1.00  0.00     0.224 A 
HETATM    3  C   LIG     1      17.882  38.116  21.398  1.00  0.00     0.112 A 
HETATM    4  C   LIG     1      18.832  39.280  21.054  1.00  0.00     0.112 A 
HETATM    5  N   LIG     1      19.222  37.474  19.478  1.00  0.00    -0.298 N 
HETATM    6  C   LIG     1      19.595  38.778  19.873  1.00  0.00     0.224 A 
HETATM    7  O   LIG     1      20.487  39.439  19.279  1.00  0.00    -0.273 OA
HETATM    8  H   LIG     1      19.614  36.920  18.685  1.00  0.00     0.171 HD
ENDROOT
TORSDOF 0
ENDMDL
MODEL 5
REMARK VINA RESULT:      -4.7      1.925      2.176
REMARK  0 active torsions:
REMARK  status: ('A' for Active; 'I' for Inactive)
ROOT
HETATM    1  O   LIG     1      20.460  39.429  19.343  1.00  0.00    -0.273 OA
HETATM    2  C   LIG     1      19.563  38.760  19.920  1.00  0.00     0.224 A 
HETATM    3  C   LIG     1      18.819  39.230  21.126  1.00  0.00     0.112 A 
HETATM    4  C   LIG     1      17.854  38.069  21.436  1.00  0.00     0.112 A 
HETATM    5  N   LIG     1      19.165  37.479  19.480  1.00  0.00    -0.298 N 
HETATM    6  C   LIG     1      18.153  37.064  20.374  1.00  0.00     0.224 A 
HETATM    7  O   LIG     1      17.569  35.953  20.271  1.00  0.00    -0.273 OA
HETATM    8  H   LIG     1      19.540  36.948  18.663  1.00  0.00     0.171 HD
ENDROOT
TORSDOF 0
ENDMDL
MODEL 6
REMARK VINA RESULT:      -4.5      4.742      5.695
REMARK  0 active torsions:
REMARK  status: ('A' for Active; 'I' for Inactive)
ROOT
HETATM    1  O   LIG     1      16.135  37.976  23.694  1.00  0.00    -0.273 OA
HETATM    2  C   LIG     1      16.824  37.390  24.570  1.00  0.00     0.224 A 
HETATM    3  C   LIG     1      17.510  38.090  25.696  1.00  0.00     0.112 A 
HETATM    4  C   LIG     1      18.204  36.950  26.467  1.00  0.00     0.112 A 
HETATM    5  N   LIG     1      17.021  35.991  24.576  1.00  0.00    -0.298 N 
HETATM    6  C   LIG     1      17.837  35.725  25.697  1.00  0.00     0.224 A 
HETATM    7  O   LIG     1      18.212  34.562  26.005  1.00  0.00    -0.273 OA
HETATM    8  H   LIG     1      16.642  35.298  23.894  1.00  0.00     0.171 HD
ENDROOT
TORSDOF 0
ENDMDL
MODEL 7
REMARK VINA RESULT:      -4.4      2.772      3.131
REMARK  0 active torsions:
REMARK  status: ('A' for Active; 'I' for Inactive)
ROOT
HETATM    1  O   LIG     1      17.537  35.939  20.284  1.00  0.00    -0.273 OA
HETATM    2  C   LIG     1      17.330  36.801  21.177  1.00  0.00     0.224 A 
HETATM    3  C   LIG     1      18.034  38.116  21.247  1.00  0.00     0.112 A 
HETATM    4  C   LIG     1      17.435  38.787  22.499  1.00  0.00     0.112 A 
HETATM    5  N   LIG     1      16.397  36.610  22.220  1.00  0.00    -0.298 N 
HETATM    6  C   LIG     1      16.455  37.782  23.006  1.00  0.00     0.224 A 
HETATM    7  O   LIG     1      15.743  37.949  24.031  1.00  0.00    -0.273 OA
HETATM    8  H   LIG     1      15.790  35.775  22.378  1.00  0.00     0.171 HD
ENDROOT
TORSDOF 0
ENDMDL
MODEL 8
REMARK VINA RESULT:      -4.3      8.415      9.057
REMARK  0 active torsions:
REMARK  status: ('A' for Active; 'I' for Inactive)
ROOT
HETATM    1  O   LIG     1      12.670  31.221  17.156  1.00  0.00    -0.273 OA
HETATM    2  C   LIG     1      13.686  31.822  16.719  1.00  0.00     0.224 A 
HETATM    3  C   LIG     1      14.633  31.240  15.722  1.00  0.00     0.112 A 
HETATM    4  C   LIG     1      15.684  32.351  15.524  1.00  0.00     0.112 A 
HETATM    5  N   LIG     1      14.039  33.125  17.133  1.00  0.00    -0.298 N 
HETATM    6  C   LIG     1      15.222  33.443  16.430  1.00  0.00     0.224 A 
HETATM    7  O   LIG     1      15.816  34.546  16.563  1.00  0.00    -0.273 OA
HETATM    8  H   LIG     1      13.532  33.728  17.819  1.00  0.00     0.171 HD
ENDROOT
TORSDOF 0
ENDMDL
MODEL 9
REMARK VINA RESULT:      -4.3      8.560      9.106
REMARK  0 active torsions:
REMARK  status: ('A' for Active; 'I' for Inactive)
ROOT
HETATM    1  O   LIG     1      12.717  30.382  16.804  1.00  0.00    -0.273 OA
HETATM    2  C   LIG     1      13.657  31.211  16.923  1.00  0.00     0.224 A 
HETATM    3  C   LIG     1      14.607  31.558  15.825  1.00  0.00     0.112 A 
HETATM    4  C   LIG     1      15.548  32.595  16.468  1.00  0.00     0.112 A 
HETATM    5  N   LIG     1      13.915  31.904  18.126  1.00  0.00    -0.298 N 
HETATM    6  C   LIG     1      15.034  32.725  17.863  1.00  0.00     0.224 A 
HETATM    7  O   LIG     1      15.536  33.488  18.730  1.00  0.00    -0.273 OA
HETATM    8  H   LIG     1      13.388  31.826  19.025  1.00  0.00     0.171 HD
ENDROOT
TORSDOF 0
ENDMDL
MODEL 10
REMARK VINA RESULT:      -4.3      4.293      5.529
REMARK  0 active torsions:
REMARK  status: ('A' for Active; 'I' for Inactive)
ROOT
HETATM    1  O   LIG     1      17.723  34.550  25.837  1.00  0.00    -0.273 OA
HETATM    2  C   LIG     1      17.600  35.728  25.411  1.00  0.00     0.224 A 
HETATM    3  C   LIG     1      17.971  36.942  26.198  1.00  0.00     0.112 A 
HETATM    4  C   LIG     1      17.634  38.110  25.250  1.00  0.00     0.112 A 
HETATM    5  N   LIG     1      17.091  36.026  24.128  1.00  0.00    -0.298 N 
HETATM    6  C   LIG     1      17.108  37.435  24.027  1.00  0.00     0.224 A 
HETATM    7  O   LIG     1      16.716  38.048  22.999  1.00  0.00    -0.273 OA
HETATM    8  H   LIG     1      16.768  35.346  23.404  1.00  0.00     0.171 HD
ENDROOT
TORSDOF 0
ENDMDL
MODEL 11
REMARK VINA RESULT:      -4.2      8.708      9.141
REMARK  0 active torsions:
REMARK  status: ('A' for Active; 'I' for Inactive)
ROOT
HETATM    1  O   LIG     1      15.488  33.735  18.128  1.00  0.00    -0.273 OA
HETATM    2  C   LIG     1      14.966  32.830  17.426  1.00  0.00     0.224 A 
HETATM    3  C   LIG     1      15.479  32.413  16.087  1.00  0.00     0.112 A 
HETATM    4  C   LIG     1      14.509  31.296  15.655  1.00  0.00     0.112 A 
HETATM    5  N   LIG     1      13.824  32.108  17.838  1.00  0.00    -0.298 N 
HETATM    6  C   LIG     1      13.549  31.199  16.793  1.00  0.00     0.224 A 
HETATM    7  O   LIG     1      12.584  30.390  16.832  1.00  0.00    -0.273 OA
HETATM    8  H   LIG     1      13.293  32.223  18.729  1.00  0.00     0.171 HD
ENDROOT
TORSDOF 0
ENDMDL
MODEL 12
REMARK VINA RESULT:      -4.2      1.963      3.486
REMARK  0 active torsions:
REMARK  status: ('A' for Active; 'I' for Inactive)
ROOT
HETATM    1  O   LIG     1      16.417  38.453  23.247  1.00  0.00    -0.273 OA
HETATM    2  C   LIG     1      17.213  38.294  22.284  1.00  0.00     0.224 A 
HETATM    3  C   LIG     1      18.236  39.301  21.874  1.00  0.00     0.112 A 
HETATM    4  C   LIG     1      18.937  38.641  20.670  1.00  0.00     0.112 A 
HETATM    5  N   LIG     1      17.219  37.130  21.484  1.00  0.00    -0.298 N 
HETATM    6  C   LIG     1      18.238  37.330  20.526  1.00  0.00     0.224 A 
HETATM    7  O   LIG     1      18.517  36.477  19.642  1.00  0.00    -0.273 OA
HETATM    8  H   LIG     1      16.599  36.296  21.579  1.00  0.00     0.171 HD
ENDROOT
TORSDOF 0
ENDMDL
MODEL 13
REMARK VINA RESULT:      -4.1     10.893     11.555
REMARK  0 active torsions:
REMARK  status: ('A' for Active; 'I' for Inactive)
ROOT
HETATM    1  O   LIG     1      13.170  28.872  14.235  1.00  0.00    -0.273 OA
HETATM    2  C   LIG     1      13.996  29.814  14.365  1.00  0.00     0.224 A 
HETATM    3  C   LIG     1      14.083  30.685  15.574  1.00  0.00     0.112 A 
HETATM    4  C   LIG     1      15.228  31.662  15.241  1.00  0.00     0.112 A 
HETATM    5  N   LIG     1      14.935  30.148  13.365  1.00  0.00    -0.298 N 
HETATM    6  C   LIG     1      15.668  31.242  13.878  1.00  0.00     0.224 A 
HETATM    7  O   LIG     1      16.598  31.798  13.236  1.00  0.00    -0.273 OA
HETATM    8  H   LIG     1      15.063  29.684  12.439  1.00  0.00     0.171 HD
ENDROOT
TORSDOF 0
ENDMDL
MODEL 14
REMARK VINA RESULT:      -4.1     10.912     11.322
REMARK  0 active torsions:
REMARK  status: ('A' for Active; 'I' for Inactive)
ROOT
HETATM    1  O   LIG     1      16.618  31.766  13.326  1.00  0.00    -0.273 OA
HETATM    2  C   LIG     1      15.665  31.209  13.931  1.00  0.00     0.224 A 
HETATM    3  C   LIG     1      15.168  31.636  15.273  1.00  0.00     0.112 A 
HETATM    4  C   LIG     1      14.016  30.654  15.566  1.00  0.00     0.112 A 
HETATM    5  N   LIG     1      14.961  30.108  13.397  1.00  0.00    -0.298 N 
HETATM    6  C   LIG     1      13.983  29.775  14.360  1.00  0.00     0.224 A 
HETATM    7  O   LIG     1      13.169  28.826  14.203  1.00  0.00    -0.273 OA
HETATM    8  H   LIG     1      15.128  29.638  12.480  1.00  0.00     0.171 HD
ENDROOT
TORSDOF 0
ENDMDL
MODEL 15
REMARK VINA RESULT:      -4.0      9.983     10.725
REMARK  0 active torsions:
REMARK  status: ('A' for Active; 'I' for Inactive)
ROOT
HETATM    1  O   LIG     1      12.669  31.413  17.035  1.00  0.00    -0.273 OA
HETATM    2  C   LIG     1      13.509  31.133  16.139  1.00  0.00     0.224 A 
HETATM    3  C   LIG     1      13.299  30.082  15.100  1.00  0.00     0.112 A 
HETATM    4  C   LIG     1      14.593  30.131  14.263  1.00  0.00     0.112 A 
HETATM    5  N   LIG     1      14.752  31.793  16.026  1.00  0.00    -0.298 N 
HETATM    6  C   LIG     1      15.399  31.204  14.917  1.00  0.00     0.224 A 
HETATM    7  O   LIG     1      16.543  31.560  14.530  1.00  0.00    -0.273 OA
HETATM    8  H   LIG     1      15.118  32.558  16.636  1.00  0.00     0.171 HD
ENDROOT
TORSDOF 0
ENDMDL
MODEL 16
REMARK VINA RESULT:      -3.9      9.345      9.750
REMARK  0 active torsions:
REMARK  status: ('A' for Active; 'I' for Inactive)
ROOT
HETATM    1  O   LIG     1      15.792  30.411  13.379  1.00  0.00    -0.273 OA
HETATM    2  C   LIG     1      15.402  30.978  14.433  1.00  0.00     0.224 A 
HETATM    3  C   LIG     1      14.224  30.531  15.234  1.00  0.00     0.112 A 
HETATM    4  C   LIG     1      14.170  31.537  16.401  1.00  0.00     0.112 A 
HETATM    5  N   LIG     1      16.048  32.112  14.973  1.00  0.00    -0.298 N 
HETATM    6  C   LIG     1      15.322  32.448  16.138  1.00  0.00     0.224 A 
HETATM    7  O   LIG     1      15.630  33.423  16.874  1.00  0.00    -0.273 OA
HETATM    8  H   LIG     1      16.887  32.602  14.591  1.00  0.00     0.171 HD
ENDROOT
TORSDOF 0
ENDMDL
MODEL 17
REMARK VINA RESULT:      -3.9      8.535      9.256
REMARK  0 active torsions:
REMARK  status: ('A' for Active; 'I' for Inactive)
ROOT
HETATM    1  O   LIG     1      15.309  33.313  18.089  1.00  0.00    -0.273 OA
HETATM    2  C   LIG     1      15.237  32.629  17.034  1.00  0.00     0.224 A 
HETATM    3  C   LIG     1      14.157  31.635  16.758  1.00  0.00     0.112 A 
HETATM    4  C   LIG     1      14.518  31.080  15.365  1.00  0.00     0.112 A 
HETATM    5  N   LIG     1      16.184  32.731  15.992  1.00  0.00    -0.298 N 
HETATM    6  C   LIG     1      15.764  31.817  15.001  1.00  0.00     0.224 A 
HETATM    7  O   LIG     1      16.389  31.650  13.920  1.00  0.00    -0.273 OA
HETATM    8  H   LIG     1      17.022  33.354  15.960  1.00  0.00     0.171 HD
ENDROOT
TORSDOF 0
ENDMDL
MODEL 18
REMARK VINA RESULT:      -3.9     10.113     10.869
REMARK  0 active torsions:
REMARK  status: ('A' for Active; 'I' for Inactive)
ROOT
HETATM    1  O   LIG     1      12.919  30.662  16.879  1.00  0.00    -0.273 OA
HETATM    2  C   LIG     1      13.862  30.941  16.093  1.00  0.00     0.224 A 
HETATM    3  C   LIG     1      14.794  32.092  16.285  1.00  0.00     0.112 A 
HETATM    4  C   LIG     1      15.746  31.998  15.075  1.00  0.00     0.112 A 
HETATM    5  N   LIG     1      14.138  30.184  14.933  1.00  0.00    -0.298 N 
HETATM    6  C   LIG     1      15.252  30.805  14.326  1.00  0.00     0.224 A 
HETATM    7  O   LIG     1      15.768  30.382  13.258  1.00  0.00    -0.273 OA
HETATM    8  H   LIG     1      13.625  29.340  14.594  1.00  0.00     0.171 HD
ENDROOT
TORSDOF 0
ENDMDL
MODEL 19
REMARK VINA RESULT:      -3.9      9.805     10.176
REMARK  0 active torsions:
REMARK  status: ('A' for Active; 'I' for Inactive)
ROOT
HETATM    1  O   LIG     1      16.066  31.004  13.674  1.00  0.00    -0.273 OA
HETATM    2  C   LIG     1      15.370  31.221  14.700  1.00  0.00     0.224 A 
HETATM    3  C   LIG     1      15.651  32.311  15.682  1.00  0.00     0.112 A 
HETATM    4  C   LIG     1      14.533  32.154  16.732  1.00  0.00     0.112 A 
HETATM    5  N   LIG     1      14.238  30.445  15.033  1.00  0.00    -0.298 N 
HETATM    6  C   LIG     1      13.739  30.992  16.236  1.00  0.00     0.224 A 
HETATM    7  O   LIG     1      12.721  30.535  16.820  1.00  0.00    -0.273 OA
HETATM    8  H   LIG     1      13.851  29.634  14.501  1.00  0.00     0.171 HD
ENDROOT
TORSDOF 0
ENDMDL
MODEL 20
REMARK VINA RESULT:      -3.8      2.454      3.047
REMARK  0 active torsions:
REMARK  status: ('A' for Active; 'I' for Inactive)
ROOT
HETATM    1  O   LIG     1      18.813  39.070  21.139  1.00  0.00    -0.273 OA
HETATM    2  C   LIG     1      17.857  38.403  21.616  1.00  0.00     0.224 A 
HETATM    3  C   LIG     1      16.875  38.944  22.602  1.00  0.00     0.112 A 
HETATM    4  C   LIG     1      15.927  37.756  22.864  1.00  0.00     0.112 A 
HETATM    5  N   LIG     1      17.615  37.057  21.264  1.00  0.00    -0.298 N 
HETATM    6  C   LIG     1      16.473  36.668  22.000  1.00  0.00     0.224 A 
HETATM    7  O   LIG     1      15.976  35.514  21.924  1.00  0.00    -0.273 OA
HETATM    8  H   LIG     1      18.165  36.471  20.598  1.00  0.00     0.171 HD
ENDROOT
TORSDOF 0
ENDMDL
