MODEL 1
REMARK VINA RESULT:      -4.6      0.000      0.000
REMARK  2 active torsions:
REMARK  status: ('A' for Active; 'I' for Inactive)
REMARK    1  A    between atoms: C_2  and  C_3 
REMARK    2  A    between atoms: C_3  and  C_4 
ROOT
HETATM    1  C   LIG     1      17.090  36.854  24.031  1.00  0.00     0.155 C 
ENDROOT
BRANCH   1   2
HETATM    2  C   LIG     1      17.511  37.495  25.324  1.00  0.00     0.130 C 
HETATM    3  C   LIG     1      18.370  36.748  26.299  1.00  0.00     0.091 C 
HETATM    4  O   LIG     1      17.138  38.629  25.588  1.00  0.00    -0.298 OA
ENDBRANCH   1   2
BRANCH   1   5
HETATM    5  C   LIG     1      16.550  37.884  23.076  1.00  0.00     0.130 C 
HETATM    6  C   LIG     1      17.466  38.658  22.175  1.00  0.00     0.091 C 
HETATM    7  O   LIG     1      15.347  38.093  23.028  1.00  0.00    -0.298 OA
ENDBRANCH   1   5
TORSDOF 2
ENDMDL
MODEL 2
REMARK VINA RESULT:      -4.5      0.067      3.283
REMARK  2 active torsions:
REMARK  status: ('A' for Active; 'I' for Inactive)
REMARK    1  A    between atoms: C_2  and  C_3 
REMARK    2  A    between atoms: C_3  and  C_4 
ROOT
HETATM    1  C   LIG     1      17.138  36.885  23.975  1.00  0.00     0.155 C 
ENDROOT
BRANCH   1   2
HETATM    2  C   LIG     1      16.515  37.909  23.067  1.00  0.00     0.130 C 
HETATM    3  C   LIG     1      17.369  38.729  22.148  1.00  0.00     0.091 C 
HETATM    4  O   LIG     1      15.306  38.083  23.088  1.00  0.00    -0.298 OA
ENDBRANCH   1   2
BRANCH   1   5
HETATM    5  C   LIG     1      17.517  37.504  25.294  1.00  0.00     0.130 C 
HETATM    6  C   LIG     1      18.375  36.765  26.276  1.00  0.00     0.091 C 
HETATM    7  O   LIG     1      17.125  38.628  25.570  1.00  0.00    -0.298 OA
ENDBRANCH   1   5
TORSDOF 2
ENDMDL
MODEL 3
REMARK VINA RESULT:      -4.2      1.968      3.366
REMARK  2 active torsions:
REMARK  status: ('A' for Active; 'I' for Inactive)
REMARK    1  A    between atoms: C_2  and  C_3 
REMARK    2  A    between atoms: C_3  and  C_4 
ROOT
HETATM    1  C   LIG     1      16.857  39.055  22.445  1.00  0.00     0.155 C 
ENDROOT
BRANCH   1   2
HETATM    2  C   LIG     1      18.308  39.106  22.055  1.00  0.00     0.130 C 
HETATM    3  C   LIG     1      18.703  39.215  20.613  1.00  0.00     0.091 C 
HETATM    4  O   LIG     1      19.171  39.041  22.917  1.00  0.00    -0.298 OA
ENDBRANCH   1   2
BRANCH   1   5
HETATM    5  C   LIG     1      16.560  37.807  23.232  1.00  0.00     0.130 C 
HETATM    6  C   LIG     1      16.796  36.448  22.643  1.00  0.00     0.091 C 
HETATM    7  O   LIG     1      16.125  37.898  24.370  1.00  0.00    -0.298 OA
ENDBRANCH   1   5
TORSDOF 2
ENDMDL
MODEL 4
REMARK VINA RESULT:      -4.2      2.287      3.710
REMARK  2 active torsions:
REMARK  status: ('A' for Active; 'I' for Inactive)
REMARK    1  A    between atoms: C_2  and  C_3 
REMARK    2  A    between atoms: C_3  and  C_4 
ROOT
HETATM    1  C   LIG     1      16.924  36.262  22.754  1.00  0.00     0.155 C 
ENDROOT
BRANCH   1   2
HETATM    2  C   LIG     1      16.355  35.876  21.417  1.00  0.00     0.130 C 
HETATM    3  C   LIG     1      14.877  35.694  21.244  1.00  0.00     0.091 C 
HETATM    4  O   LIG     1      17.104  35.694  20.469  1.00  0.00    -0.298 OA
ENDBRANCH   1   2
BRANCH   1   5
HETATM    5  C   LIG     1      16.589  37.692  23.083  1.00  0.00     0.130 C 
HETATM    6  C   LIG     1      17.154  38.823  22.275  1.00  0.00     0.091 C 
HETATM    7  O   LIG     1      15.843  37.939  24.018  1.00  0.00    -0.298 OA
ENDBRANCH   1   5
TORSDOF 2
ENDMDL
MODEL 5
REMARK VINA RESULT:      -4.2      2.284      3.218
REMARK  2 active torsions:
REMARK  status: ('A' for Active; 'I' for Inactive)
REMARK    1  A    between atoms: C_2  and  C_3 
REMARK    2  A    between atoms: C_3  and  C_4 
ROOT
HETATM    1  C   LIG     1      16.904  36.258  22.778  1.00  0.00     0.155 C 
ENDROOT
BRANCH   1   2
HETATM    2  C   LIG     1      16.574  37.687  23.105  1.00  0.00     0.130 C 
HETATM    3  C   LIG     1      17.135  38.805  22.279  1.00  0.00     0.091 C 
HETATM    4  O   LIG     1      15.855  37.941  24.060  1.00  0.00    -0.298 OA
ENDBRANCH   1   2
BRANCH   1   5
HETATM    5  C   LIG     1      16.357  35.880  21.427  1.00  0.00     0.130 C 
HETATM    6  C   LIG     1      14.883  35.708  21.212  1.00  0.00     0.091 C 
HETATM    7  O   LIG     1      17.122  35.714  20.489  1.00  0.00    -0.298 OA
ENDBRANCH   1   5
TORSDOF 2
ENDMDL
MODEL 6
REMARK VINA RESULT:      -4.0      8.171      9.387
REMARK  2 active torsions:
REMARK  status: ('A' for Active; 'I' for Inactive)
REMARK    1  A    between atoms: C_2  and  C_3 
REMARK    2  A    between atoms: C_3  and  C_4 
ROOT
HETATM    1  C   LIG     1      14.210  33.016  16.904  1.00  0.00     0.155 C 
ENDROOT
BRANCH   1   2
HETATM    2  C   LIG     1      15.522  33.392  16.273  1.00  0.00     0.130 C 
HETATM    3  C   LIG     1      16.336  32.366  15.544  1.00  0.00     0.091 C 
HETATM    4  O   LIG     1      15.936  34.538  16.369  1.00  0.00    -0.298 OA
ENDBRANCH   1   2
BRANCH   1   5
HETATM    5  C   LIG     1      14.417  32.009  18.003  1.00  0.00     0.130 C 
HETATM    6  C   LIG     1      15.318  32.307  19.164  1.00  0.00     0.091 C 
HETATM    7  O   LIG     1      13.839  30.934  17.955  1.00  0.00    -0.298 OA
ENDBRANCH   1   5
TORSDOF 2
ENDMDL
MODEL 7
REMARK VINA RESULT:      -4.0      9.640     10.931
REMARK  2 active torsions:
REMARK  status: ('A' for Active; 'I' for Inactive)
REMARK    1  A    between atoms: C_2  and  C_3 
REMARK    2  A    between atoms: C_3  and  C_4 
ROOT
HETATM    1  C   LIG     1      16.494  32.322  15.542  1.00  0.00     0.155 C 
ENDROOT
BRANCH   1   2
HETATM    2  C   LIG     1      16.020  32.082  14.136  1.00  0.00     0.130 C 
HETATM    3  C   LIG     1      15.371  30.783  13.764  1.00  0.00     0.091 C 
HETATM    4  O   LIG     1      16.179  32.946  13.286  1.00  0.00    -0.298 OA
ENDBRANCH   1   2
BRANCH   1   5
HETATM    5  C   LIG     1      15.541  33.223  16.279  1.00  0.00     0.130 C 
HETATM    6  C   LIG     1      14.306  32.674  16.931  1.00  0.00     0.091 C 
HETATM    7  O   LIG     1      15.774  34.420  16.353  1.00  0.00    -0.298 OA
ENDBRANCH   1   5
TORSDOF 2
ENDMDL
MODEL 8
REMARK VINA RESULT:      -4.0      9.635     10.658
REMARK  2 active torsions:
REMARK  status: ('A' for Active; 'I' for Inactive)
REMARK    1  A    between atoms: C_2  and  C_3 
REMARK    2  A    between atoms: C_3  and  C_4 
ROOT
HETATM    1  C   LIG     1      16.496  32.341  15.555  1.00  0.00     0.155 C 
ENDROOT
BRANCH   1   2
HETATM    2  C   LIG     1      15.526  33.226  16.287  1.00  0.00     0.130 C 
HETATM    3  C   LIG     1      14.288  32.650  16.905  1.00  0.00     0.091 C 
HETATM    4  O   LIG     1      15.741  34.427  16.366  1.00  0.00    -0.298 OA
ENDBRANCH   1   2
BRANCH   1   5
HETATM    5  C   LIG     1      16.025  32.082  14.150  1.00  0.00     0.130 C 
HETATM    6  C   LIG     1      15.363  30.786  13.783  1.00  0.00     0.091 C 
HETATM    7  O   LIG     1      16.178  32.939  13.293  1.00  0.00    -0.298 OA
ENDBRANCH   1   5
TORSDOF 2
ENDMDL
MODEL 9
REMARK VINA RESULT:      -3.9      8.680      9.598
REMARK  2 active torsions:
REMARK  status: ('A' for Active; 'I' for Inactive)
REMARK    1  A    between atoms: C_2  and  C_3 
REMARK    2  A    between atoms: C_3  and  C_4 
ROOT
HETATM    1  C   LIG     1      14.809  33.045  16.771  1.00  0.00     0.155 C 
ENDROOT
BRANCH   1   2
HETATM    2  C   LIG     1      14.572  32.140  17.948  1.00  0.00     0.130 C 
HETATM    3  C   LIG     1      15.336  32.336  19.223  1.00  0.00     0.091 C 
HETATM    4  O   LIG     1      13.762  31.229  17.860  1.00  0.00    -0.298 OA
ENDBRANCH   1   2
BRANCH   1   5
HETATM    5  C   LIG     1      15.806  32.434  15.823  1.00  0.00     0.130 C 
HETATM    6  C   LIG     1      15.384  31.412  14.809  1.00  0.00     0.091 C 
HETATM    7  O   LIG     1      16.977  32.777  15.873  1.00  0.00    -0.298 OA
ENDBRANCH   1   5
TORSDOF 2
ENDMDL
MODEL 10
REMARK VINA RESULT:      -3.9      8.419      9.234
REMARK  2 active torsions:
REMARK  status: ('A' for Active; 'I' for Inactive)
REMARK    1  A    between atoms: C_2  and  C_3 
REMARK    2  A    between atoms: C_3  and  C_4 
ROOT
HETATM    1  C   LIG     1      14.806  32.455  17.494  1.00  0.00     0.155 C 
ENDROOT
BRANCH   1   2
HETATM    2  C   LIG     1      14.839  32.075  18.948  1.00  0.00     0.130 C 
HETATM    3  C   LIG     1      15.444  32.999  19.962  1.00  0.00     0.091 C 
HETATM    4  O   LIG     1      14.383  30.998  19.304  1.00  0.00    -0.298 OA
ENDBRANCH   1   2
BRANCH   1   5
HETATM    5  C   LIG     1      13.714  31.711  16.774  1.00  0.00     0.130 C 
HETATM    6  C   LIG     1      14.037  30.672  15.742  1.00  0.00     0.091 C 
HETATM    7  O   LIG     1      12.544  31.952  17.033  1.00  0.00    -0.298 OA
ENDBRANCH   1   5
TORSDOF 2
ENDMDL
MODEL 11
REMARK VINA RESULT:      -3.9      9.123     10.351
REMARK  2 active torsions:
REMARK  status: ('A' for Active; 'I' for Inactive)
REMARK    1  A    between atoms: C_2  and  C_3 
REMARK    2  A    between atoms: C_3  and  C_4 
ROOT
HETATM    1  C   LIG     1      13.670  32.418  16.877  1.00  0.00     0.155 C 
ENDROOT
BRANCH   1   2
HETATM    2  C   LIG     1      13.419  31.027  16.364  1.00  0.00     0.130 C 
HETATM    3  C   LIG     1      14.197  30.494  15.199  1.00  0.00     0.091 C 
HETATM    4  O   LIG     1      12.563  30.331  16.891  1.00  0.00    -0.298 OA
ENDBRANCH   1   2
BRANCH   1   5
HETATM    5  C   LIG     1      14.970  32.480  17.632  1.00  0.00     0.130 C 
HETATM    6  C   LIG     1      15.041  32.103  19.082  1.00  0.00     0.091 C 
HETATM    7  O   LIG     1      15.987  32.839  17.057  1.00  0.00    -0.298 OA
ENDBRANCH   1   5
TORSDOF 2
ENDMDL
MODEL 12
REMARK VINA RESULT:      -3.8      3.156      4.337
REMARK  2 active torsions:
REMARK  status: ('A' for Active; 'I' for Inactive)
REMARK    1  A    between atoms: C_2  and  C_3 
REMARK    2  A    between atoms: C_3  and  C_4 
ROOT
HETATM    1  C   LIG     1      16.870  35.454  22.123  1.00  0.00     0.155 C 
ENDROOT
BRANCH   1   2
HETATM    2  C   LIG     1      15.642  35.063  21.349  1.00  0.00     0.130 C 
HETATM    3  C   LIG     1      15.620  33.795  20.550  1.00  0.00     0.091 C 
HETATM    4  O   LIG     1      14.660  35.791  21.359  1.00  0.00    -0.298 OA
ENDBRANCH   1   2
BRANCH   1   5
HETATM    5  C   LIG     1      17.420  36.762  21.622  1.00  0.00     0.130 C 
HETATM    6  C   LIG     1      17.309  38.013  22.444  1.00  0.00     0.091 C 
HETATM    7  O   LIG     1      17.971  36.810  20.533  1.00  0.00    -0.298 OA
ENDBRANCH   1   5
TORSDOF 2
ENDMDL
MODEL 13
REMARK VINA RESULT:      -3.8     10.701     11.830
REMARK  2 active torsions:
REMARK  status: ('A' for Active; 'I' for Inactive)
REMARK    1  A    between atoms: C_2  and  C_3 
REMARK    2  A    between atoms: C_3  and  C_4 
ROOT
HETATM    1  C   LIG     1      15.730  31.631  14.027  1.00  0.00     0.155 C 
ENDROOT
BRANCH   1   2
HETATM    2  C   LIG     1      15.160  30.288  14.387  1.00  0.00     0.130 C 
HETATM    3  C   LIG     1      13.759  30.171  14.910  1.00  0.00     0.091 C 
HETATM    4  O   LIG     1      15.848  29.285  14.267  1.00  0.00    -0.298 OA
ENDBRANCH   1   2
BRANCH   1   5
HETATM    5  C   LIG     1      16.370  32.277  15.226  1.00  0.00     0.130 C 
HETATM    6  C   LIG     1      15.548  33.027  16.231  1.00  0.00     0.091 C 
HETATM    7  O   LIG     1      17.578  32.187  15.389  1.00  0.00    -0.298 OA
ENDBRANCH   1   5
TORSDOF 2
ENDMDL
MODEL 14
REMARK VINA RESULT:      -3.7      9.011     10.283
REMARK  2 active torsions:
REMARK  status: ('A' for Active; 'I' for Inactive)
REMARK    1  A    between atoms: C_2  and  C_3 
REMARK    2  A    between atoms: C_3  and  C_4 
ROOT
HETATM    1  C   LIG     1      15.278  32.136  15.691  1.00  0.00     0.155 C 
ENDROOT
BRANCH   1   2
HETATM    2  C   LIG     1      16.534  32.306  14.882  1.00  0.00     0.130 C 
HETATM    3  C   LIG     1      16.460  32.523  13.400  1.00  0.00     0.091 C 
HETATM    4  O   LIG     1      17.623  32.250  15.433  1.00  0.00    -0.298 OA
ENDBRANCH   1   2
BRANCH   1   5
HETATM    5  C   LIG     1      15.204  33.170  16.782  1.00  0.00     0.130 C 
HETATM    6  C   LIG     1      15.101  32.766  18.223  1.00  0.00     0.091 C 
HETATM    7  O   LIG     1      15.232  34.356  16.494  1.00  0.00    -0.298 OA
ENDBRANCH   1   5
TORSDOF 2
ENDMDL
MODEL 15
REMARK VINA RESULT:      -3.6     10.324     11.598
REMARK  2 active torsions:
REMARK  status: ('A' for Active; 'I' for Inactive)
REMARK    1  A    between atoms: C_2  and  C_3 
REMARK    2  A    between atoms: C_3  and  C_4 
ROOT
HETATM    1  C   LIG     1      16.710  32.731  13.456  1.00  0.00     0.155 C 
ENDROOT
BRANCH   1   2
HETATM    2  C   LIG     1      17.675  33.796  13.015  1.00  0.00     0.130 C 
HETATM    3  C   LIG     1      18.874  33.440  12.189  1.00  0.00     0.091 C 
HETATM    4  O   LIG     1      17.489  34.958  13.345  1.00  0.00    -0.298 OA
ENDBRANCH   1   2
BRANCH   1   5
HETATM    5  C   LIG     1      16.798  32.515  14.943  1.00  0.00     0.130 C 
HETATM    6  C   LIG     1      15.574  32.578  15.807  1.00  0.00     0.091 C 
HETATM    7  O   LIG     1      17.881  32.280  15.457  1.00  0.00    -0.298 OA
ENDBRANCH   1   5
TORSDOF 2
ENDMDL
MODEL 16
REMARK VINA RESULT:      -3.5      2.264      3.275
REMARK  2 active torsions:
REMARK  status: ('A' for Active; 'I' for Inactive)
REMARK    1  A    between atoms: C_2  and  C_3 
REMARK    2  A    between atoms: C_3  and  C_4 
ROOT
HETATM    1  C   LIG     1      17.616  37.566  22.674  1.00  0.00     0.155 C 
ENDROOT
BRANCH   1   2
HETATM    2  C   LIG     1      16.132  37.393  22.504  1.00  0.00     0.130 C 
HETATM    3  C   LIG     1      15.586  36.222  21.744  1.00  0.00     0.091 C 
HETATM    4  O   LIG     1      15.367  38.221  22.976  1.00  0.00    -0.298 OA
ENDBRANCH   1   2
BRANCH   1   5
HETATM    5  C   LIG     1      18.186  38.402  21.560  1.00  0.00     0.130 C 
HETATM    6  C   LIG     1      18.631  37.774  20.273  1.00  0.00     0.091 C 
HETATM    7  O   LIG     1      18.285  39.611  21.700  1.00  0.00    -0.298 OA
ENDBRANCH   1   5
TORSDOF 2
ENDMDL
MODEL 17
REMARK VINA RESULT:      -3.5     10.654     11.646
REMARK  2 active torsions:
REMARK  status: ('A' for Active; 'I' for Inactive)
REMARK    1  A    between atoms: C_2  and  C_3 
REMARK    2  A    between atoms: C_3  and  C_4 
ROOT
HETATM    1  C   LIG     1      15.188  31.954  15.761  1.00  0.00     0.155 C 
ENDROOT
BRANCH   1   2
HETATM    2  C   LIG     1      16.415  32.162  14.918  1.00  0.00     0.130 C 
HETATM    3  C   LIG     1      16.291  32.455  13.453  1.00  0.00     0.091 C 
HETATM    4  O   LIG     1      17.523  32.076  15.428  1.00  0.00    -0.298 OA
ENDBRANCH   1   2
BRANCH   1   5
HETATM    5  C   LIG     1      14.462  30.703  15.346  1.00  0.00     0.130 C 
HETATM    6  C   LIG     1      12.994  30.538  15.606  1.00  0.00     0.091 C 
HETATM    7  O   LIG     1      15.073  29.807  14.784  1.00  0.00    -0.298 OA
ENDBRANCH   1   5
TORSDOF 2
ENDMDL
MODEL 18
REMARK VINA RESULT:      -3.5      9.429     10.537
REMARK  2 active torsions:
REMARK  status: ('A' for Active; 'I' for Inactive)
REMARK    1  A    between atoms: C_2  and  C_3 
REMARK    2  A    between atoms: C_3  and  C_4 
ROOT
HETATM    1  C   LIG     1      15.304  32.607  16.764  1.00  0.00     0.155 C 
ENDROOT
BRANCH   1   2
HETATM    2  C   LIG     1      15.549  32.182  15.342  1.00  0.00     0.130 C 
HETATM    3  C   LIG     1      15.183  30.801  14.888  1.00  0.00     0.091 C 
HETATM    4  O   LIG     1      16.065  32.963  14.556  1.00  0.00    -0.298 OA
ENDBRANCH   1   2
BRANCH   1   5
HETATM    5  C   LIG     1      14.073  31.939  17.315  1.00  0.00     0.130 C 
HETATM    6  C   LIG     1      12.727  32.165  16.693  1.00  0.00     0.091 C 
HETATM    7  O   LIG     1      14.169  31.197  18.280  1.00  0.00    -0.298 OA
ENDBRANCH   1   5
TORSDOF 2
ENDMDL
MODEL 19
REMARK VINA RESULT:      -3.5     10.736     11.821
REMARK  2 active torsions:
REMARK  status: ('A' for Active; 'I' for Inactive)
REMARK    1  A    between atoms: C_2  and  C_3 
REMARK    2  A    between atoms: C_3  and  C_4 
ROOT
HETATM    1  C   LIG     1      13.279  30.302  15.298  1.00  0.00     0.155 C 
ENDROOT
BRANCH   1   2
HETATM    2  C   LIG     1      14.646  30.367  14.676  1.00  0.00     0.130 C 
HETATM    3  C   LIG     1      15.244  29.155  14.027  1.00  0.00     0.091 C 
HETATM    4  O   LIG     1      15.281  31.411  14.713  1.00  0.00    -0.298 OA
ENDBRANCH   1   2
BRANCH   1   5
HETATM    5  C   LIG     1      13.237  31.099  16.574  1.00  0.00     0.130 C 
HETATM    6  C   LIG     1      12.591  32.452  16.619  1.00  0.00     0.091 C 
HETATM    7  O   LIG     1      13.731  30.638  17.592  1.00  0.00    -0.298 OA
ENDBRANCH   1   5
TORSDOF 2
ENDMDL
MODEL 20
REMARK VINA RESULT:      -3.4     11.462     12.484
REMARK  2 active torsions:
REMARK  status: ('A' for Active; 'I' for Inactive)
REMARK    1  A    between atoms: C_2  and  C_3 
REMARK    2  A    between atoms: C_3  and  C_4 
ROOT
HETATM    1  C   LIG     1      14.652  30.981  15.154  1.00  0.00     0.155 C 
ENDROOT
BRANCH   1   2
HETATM    2  C   LIG     1      15.776  31.708  14.469  1.00  0.00     0.130 C 
HETATM    3  C   LIG     1      16.921  32.259  15.265  1.00  0.00     0.091 C 
HETATM    4  O   LIG     1      15.749  31.864  13.258  1.00  0.00    -0.298 OA
ENDBRANCH   1   2
BRANCH   1   5
HETATM    5  C   LIG     1      14.327  29.701  14.431  1.00  0.00     0.130 C 
HETATM    6  C   LIG     1      15.416  28.791  13.945  1.00  0.00     0.091 C 
HETATM    7  O   LIG     1      13.161  29.394  14.239  1.00  0.00    -0.298 OA
ENDBRANCH   1   5
TORSDOF 2
ENDMDL
