REMARK  7 active torsions:
REMARK  status: ('A' for Active; 'I' for Inactive)
REMARK    1  A    between atoms: C_2  and  C_3 
REMARK    2  A    between atoms: C_2  and  O_10 
REMARK    3  A    between atoms: C_3  and  C_4 
REMARK    4  A    between atoms: C_4  and  C_5 
REMARK    5  A    between atoms: C_5  and  O_6 
REMARK    6  A    between atoms: O_6  and  C_7 
REMARK    7  A    between atoms: O_10  and  C_11 
ROOT
HETATM    1  C   LIG     1      -0.329   0.962   0.203  1.00  0.00     0.121 C 
ENDROOT
BRANCH   1   2
HETATM    2  C   LIG     1      -1.806   0.987  -0.027  1.00  0.00     0.259 C 
HETATM    3  O   LIG     1      -2.263   1.425  -1.117  1.00  0.00    -0.265 OA
BRANCH   2   4
HETATM    4  O   LIG     1      -2.663   0.484   0.960  1.00  0.00    -0.322 OA
BRANCH   4   5
HETATM    5  C   LIG     1      -4.075   0.381   0.793  1.00  0.00     0.174 C 
HETATM    6  C   LIG     1      -4.425  -0.800  -0.105  1.00  0.00     0.034 C 
ENDBRANCH   4   5
ENDBRANCH   2   4
ENDBRANCH   1   2
BRANCH   1   7
HETATM    7  C   LIG     1       0.255  -0.383  -0.232  1.00  0.00     0.121 C 
BRANCH   7   8
HETATM    8  C   LIG     1       1.731  -0.423   0.012  1.00  0.00     0.259 C 
HETATM    9  O   LIG     1       2.208  -1.259   0.827  1.00  0.00    -0.265 OA
BRANCH   8  10
HETATM   10  O   LIG     1       2.566   0.469  -0.670  1.00  0.00    -0.322 OA
BRANCH  10  11
HETATM   11  C   LIG     1       3.986   0.475  -0.535  1.00  0.00     0.174 C 
HETATM   12  C   LIG     1       4.605  -0.683  -1.310  1.00  0.00     0.034 C 
ENDBRANCH  10  11
ENDBRANCH   8  10
ENDBRANCH   7   8
ENDBRANCH   1   7
TORSDOF 7
