MODEL 1
REMARK VINA RESULT:      -4.2      0.000      0.000
REMARK  2 active torsions:
REMARK  status: ('A' for Active; 'I' for Inactive)
REMARK    1  A    between atoms: C_2  and  C_3 
REMARK    2  A    between atoms: C_3  and  C_4 
ROOT
HETATM    1  C   LIG     1      18.260  37.226  25.761  1.00  0.00     0.069 C 
ENDROOT
BRANCH   1   2
HETATM    2  C   LIG     1      18.335  35.996  26.672  1.00  0.00     0.002 C 
HETATM    3  C   LIG     1      17.572  34.818  26.071  1.00  0.00     0.005 C 
ENDBRANCH   1   2
BRANCH   1   4
HETATM    4  C   LIG     1      17.142  37.099  24.770  1.00  0.00     0.231 C 
HETATM    5  O   LIG     1      16.353  38.018  24.622  1.00  0.00    -0.307 OA
ENDBRANCH   1   4
TORSDOF 2
ENDMDL
MODEL 2
REMARK VINA RESULT:      -3.4      2.940      4.350
REMARK  2 active torsions:
REMARK  status: ('A' for Active; 'I' for Inactive)
REMARK    1  A    between atoms: C_2  and  C_3 
REMARK    2  A    between atoms: C_3  and  C_4 
ROOT
HETATM    1  C   LIG     1      17.188  37.740  22.163  1.00  0.00     0.069 C 
ENDROOT
BRANCH   1   2
HETATM    2  C   LIG     1      17.983  39.050  22.167  1.00  0.00     0.002 C 
HETATM    3  C   LIG     1      18.710  39.257  20.841  1.00  0.00     0.005 C 
ENDBRANCH   1   2
BRANCH   1   4
HETATM    4  C   LIG     1      16.749  37.368  23.548  1.00  0.00     0.231 C 
HETATM    5  O   LIG     1      15.910  38.043  24.123  1.00  0.00    -0.307 OA
ENDBRANCH   1   4
TORSDOF 2
ENDMDL
MODEL 3
REMARK VINA RESULT:      -3.4      5.172      6.038
REMARK  2 active torsions:
REMARK  status: ('A' for Active; 'I' for Inactive)
REMARK    1  A    between atoms: C_2  and  C_3 
REMARK    2  A    between atoms: C_3  and  C_4 
ROOT
HETATM    1  C   LIG     1      18.770  38.183  20.354  1.00  0.00     0.069 C 
ENDROOT
BRANCH   1   2
HETATM    2  C   LIG     1      18.581  39.217  21.470  1.00  0.00     0.002 C 
HETATM    3  C   LIG     1      17.358  38.889  22.324  1.00  0.00     0.005 C 
ENDBRANCH   1   2
BRANCH   1   4
HETATM    4  C   LIG     1      20.034  38.436  19.589  1.00  0.00     0.231 C 
HETATM    5  O   LIG     1      20.350  39.578  19.297  1.00  0.00    -0.307 OA
ENDBRANCH   1   4
TORSDOF 2
ENDMDL
MODEL 4
REMARK VINA RESULT:      -3.3      2.520      3.367
REMARK  2 active torsions:
REMARK  status: ('A' for Active; 'I' for Inactive)
REMARK    1  A    between atoms: C_2  and  C_3 
REMARK    2  A    between atoms: C_3  and  C_4 
ROOT
HETATM    1  C   LIG     1      17.167  37.690  22.331  1.00  0.00     0.069 C 
ENDROOT
BRANCH   1   2
HETATM    2  C   LIG     1      16.540  36.454  21.677  1.00  0.00     0.002 C 
HETATM    3  C   LIG     1      16.932  35.179  22.419  1.00  0.00     0.005 C 
ENDBRANCH   1   2
BRANCH   1   4
HETATM    4  C   LIG     1      17.097  37.606  23.826  1.00  0.00     0.231 C 
HETATM    5  O   LIG     1      16.103  38.005  24.412  1.00  0.00    -0.307 OA
ENDBRANCH   1   4
TORSDOF 2
ENDMDL
MODEL 5
REMARK VINA RESULT:      -3.2      4.872      5.758
REMARK  2 active torsions:
REMARK  status: ('A' for Active; 'I' for Inactive)
REMARK    1  A    between atoms: C_2  and  C_3 
REMARK    2  A    between atoms: C_3  and  C_4 
ROOT
HETATM    1  C   LIG     1      19.106  39.363  20.461  1.00  0.00     0.069 C 
ENDROOT
BRANCH   1   2
HETATM    2  C   LIG     1      19.819  38.386  19.520  1.00  0.00     0.002 C 
HETATM    3  C   LIG     1      19.141  37.018  19.530  1.00  0.00     0.005 C 
ENDBRANCH   1   2
BRANCH   1   4
HETATM    4  C   LIG     1      18.119  38.650  21.336  1.00  0.00     0.231 C 
HETATM    5  O   LIG     1      17.920  39.043  22.474  1.00  0.00    -0.307 OA
ENDBRANCH   1   4
TORSDOF 2
ENDMDL
MODEL 6
REMARK VINA RESULT:      -3.2      9.829     10.425
REMARK  2 active torsions:
REMARK  status: ('A' for Active; 'I' for Inactive)
REMARK    1  A    between atoms: C_2  and  C_3 
REMARK    2  A    between atoms: C_3  and  C_4 
ROOT
HETATM    1  C   LIG     1      15.013  32.412  16.536  1.00  0.00     0.069 C 
ENDROOT
BRANCH   1   2
HETATM    2  C   LIG     1      13.766  31.713  17.089  1.00  0.00     0.002 C 
HETATM    3  C   LIG     1      13.171  30.754  16.061  1.00  0.00     0.005 C 
ENDBRANCH   1   2
BRANCH   1   4
HETATM    4  C   LIG     1      14.997  33.878  16.853  1.00  0.00     0.231 C 
HETATM    5  O   LIG     1      15.849  34.612  16.379  1.00  0.00    -0.307 OA
ENDBRANCH   1   4
TORSDOF 2
ENDMDL
MODEL 7
REMARK VINA RESULT:      -3.2     11.221     11.859
REMARK  2 active torsions:
REMARK  status: ('A' for Active; 'I' for Inactive)
REMARK    1  A    between atoms: C_2  and  C_3 
REMARK    2  A    between atoms: C_3  and  C_4 
ROOT
HETATM    1  C   LIG     1      13.029  30.683  16.053  1.00  0.00     0.069 C 
ENDROOT
BRANCH   1   2
HETATM    2  C   LIG     1      13.884  30.131  14.906  1.00  0.00     0.002 C 
HETATM    3  C   LIG     1      15.139  30.974  14.699  1.00  0.00     0.005 C 
ENDBRANCH   1   2
BRANCH   1   4
HETATM    4  C   LIG     1      13.844  31.545  16.969  1.00  0.00     0.231 C 
HETATM    5  O   LIG     1      13.955  31.246  18.147  1.00  0.00    -0.307 OA
ENDBRANCH   1   4
TORSDOF 2
ENDMDL
MODEL 8
REMARK VINA RESULT:      -3.2      2.085      3.028
REMARK  2 active torsions:
REMARK  status: ('A' for Active; 'I' for Inactive)
REMARK    1  A    between atoms: C_2  and  C_3 
REMARK    2  A    between atoms: C_3  and  C_4 
ROOT
HETATM    1  C   LIG     1      17.219  35.385  24.403  1.00  0.00     0.069 C 
ENDROOT
BRANCH   1   2
HETATM    2  C   LIG     1      17.128  36.904  24.224  1.00  0.00     0.002 C 
HETATM    3  C   LIG     1      17.517  37.634  25.508  1.00  0.00     0.005 C 
ENDBRANCH   1   2
BRANCH   1   4
HETATM    4  C   LIG     1      17.582  35.026  25.813  1.00  0.00     0.231 C 
HETATM    5  O   LIG     1      16.845  34.306  26.467  1.00  0.00    -0.307 OA
ENDBRANCH   1   4
TORSDOF 2
ENDMDL
MODEL 9
REMARK VINA RESULT:      -3.1      8.720      9.297
REMARK  2 active torsions:
REMARK  status: ('A' for Active; 'I' for Inactive)
REMARK    1  A    between atoms: C_2  and  C_3 
REMARK    2  A    between atoms: C_3  and  C_4 
ROOT
HETATM    1  C   LIG     1      14.909  32.553  16.789  1.00  0.00     0.069 C 
ENDROOT
BRANCH   1   2
HETATM    2  C   LIG     1      14.421  31.915  18.095  1.00  0.00     0.002 C 
HETATM    3  C   LIG     1      15.327  32.293  19.264  1.00  0.00     0.005 C 
ENDBRANCH   1   2
BRANCH   1   4
HETATM    4  C   LIG     1      15.043  34.040  16.929  1.00  0.00     0.231 C 
HETATM    5  O   LIG     1      15.942  34.628  16.349  1.00  0.00    -0.307 OA
ENDBRANCH   1   4
TORSDOF 2
ENDMDL
MODEL 10
REMARK VINA RESULT:      -3.1      4.504      5.203
REMARK  2 active torsions:
REMARK  status: ('A' for Active; 'I' for Inactive)
REMARK    1  A    between atoms: C_2  and  C_3 
REMARK    2  A    between atoms: C_3  and  C_4 
ROOT
HETATM    1  C   LIG     1      16.809  35.101  21.904  1.00  0.00     0.069 C 
ENDROOT
BRANCH   1   2
HETATM    2  C   LIG     1      17.142  36.542  21.502  1.00  0.00     0.002 C 
HETATM    3  C   LIG     1      18.105  36.574  20.317  1.00  0.00     0.005 C 
ENDBRANCH   1   2
BRANCH   1   4
HETATM    4  C   LIG     1      15.685  34.554  21.077  1.00  0.00     0.231 C 
HETATM    5  O   LIG     1      14.662  34.167  21.619  1.00  0.00    -0.307 OA
ENDBRANCH   1   4
TORSDOF 2
ENDMDL
MODEL 11
REMARK VINA RESULT:      -3.1     11.755     12.350
REMARK  2 active torsions:
REMARK  status: ('A' for Active; 'I' for Inactive)
REMARK    1  A    between atoms: C_2  and  C_3 
REMARK    2  A    between atoms: C_3  and  C_4 
ROOT
HETATM    1  C   LIG     1      14.113  30.216  14.837  1.00  0.00     0.069 C 
ENDROOT
BRANCH   1   2
HETATM    2  C   LIG     1      13.007  30.575  15.835  1.00  0.00     0.002 C 
HETATM    3  C   LIG     1      13.505  31.582  16.869  1.00  0.00     0.005 C 
ENDBRANCH   1   2
BRANCH   1   4
HETATM    4  C   LIG     1      15.212  31.236  14.855  1.00  0.00     0.231 C 
HETATM    5  O   LIG     1      16.323  30.942  14.444  1.00  0.00    -0.307 OA
ENDBRANCH   1   4
TORSDOF 2
ENDMDL
MODEL 12
REMARK VINA RESULT:      -3.0      4.373      5.053
REMARK  2 active torsions:
REMARK  status: ('A' for Active; 'I' for Inactive)
REMARK    1  A    between atoms: C_2  and  C_3 
REMARK    2  A    between atoms: C_3  and  C_4 
ROOT
HETATM    1  C   LIG     1      16.949  36.802  22.002  1.00  0.00     0.069 C 
ENDROOT
BRANCH   1   2
HETATM    2  C   LIG     1      17.229  38.294  22.217  1.00  0.00     0.002 C 
HETATM    3  C   LIG     1      18.215  38.824  21.179  1.00  0.00     0.005 C 
ENDBRANCH   1   2
BRANCH   1   4
HETATM    4  C   LIG     1      17.594  36.306  20.744  1.00  0.00     0.231 C 
HETATM    5  O   LIG     1      16.959  35.610  19.967  1.00  0.00    -0.307 OA
ENDBRANCH   1   4
TORSDOF 2
ENDMDL
MODEL 13
REMARK VINA RESULT:      -3.0     10.172     10.810
REMARK  2 active torsions:
REMARK  status: ('A' for Active; 'I' for Inactive)
REMARK    1  A    between atoms: C_2  and  C_3 
REMARK    2  A    between atoms: C_3  and  C_4 
ROOT
HETATM    1  C   LIG     1      14.992  32.446  16.452  1.00  0.00     0.069 C 
ENDROOT
BRANCH   1   2
HETATM    2  C   LIG     1      15.838  32.183  15.201  1.00  0.00     0.002 C 
HETATM    3  C   LIG     1      15.371  30.923  14.476  1.00  0.00     0.005 C 
ENDBRANCH   1   2
BRANCH   1   4
HETATM    4  C   LIG     1      15.066  33.886  16.862  1.00  0.00     0.231 C 
HETATM    5  O   LIG     1      15.895  34.623  16.353  1.00  0.00    -0.307 OA
ENDBRANCH   1   4
TORSDOF 2
ENDMDL
MODEL 14
REMARK VINA RESULT:      -2.9      9.921     10.536
REMARK  2 active torsions:
REMARK  status: ('A' for Active; 'I' for Inactive)
REMARK    1  A    between atoms: C_2  and  C_3 
REMARK    2  A    between atoms: C_3  and  C_4 
ROOT
HETATM    1  C   LIG     1      14.051  31.702  17.441  1.00  0.00     0.069 C 
ENDROOT
BRANCH   1   2
HETATM    2  C   LIG     1      14.240  31.195  16.006  1.00  0.00     0.002 C 
HETATM    3  C   LIG     1      13.006  30.436  15.523  1.00  0.00     0.005 C 
ENDBRANCH   1   2
BRANCH   1   4
HETATM    4  C   LIG     1      15.042  32.777  17.770  1.00  0.00     0.231 C 
HETATM    5  O   LIG     1      15.547  32.820  18.881  1.00  0.00    -0.307 OA
ENDBRANCH   1   4
TORSDOF 2
ENDMDL
MODEL 15
REMARK VINA RESULT:      -2.9      9.083      9.572
REMARK  2 active torsions:
REMARK  status: ('A' for Active; 'I' for Inactive)
REMARK    1  A    between atoms: C_2  and  C_3 
REMARK    2  A    between atoms: C_3  and  C_4 
ROOT
HETATM    1  C   LIG     1      15.003  32.244  17.538  1.00  0.00     0.069 C 
ENDROOT
BRANCH   1   2
HETATM    2  C   LIG     1      15.151  32.616  19.018  1.00  0.00     0.002 C 
HETATM    3  C   LIG     1      14.892  31.409  19.917  1.00  0.00     0.005 C 
ENDBRANCH   1   2
BRANCH   1   4
HETATM    4  C   LIG     1      13.577  31.929  17.199  1.00  0.00     0.231 C 
HETATM    5  O   LIG     1      13.261  30.789  16.898  1.00  0.00    -0.307 OA
ENDBRANCH   1   4
TORSDOF 2
ENDMDL
MODEL 16
REMARK VINA RESULT:      -2.8     13.437     13.677
REMARK  2 active torsions:
REMARK  status: ('A' for Active; 'I' for Inactive)
REMARK    1  A    between atoms: C_2  and  C_3 
REMARK    2  A    between atoms: C_3  and  C_4 
ROOT
HETATM    1  C   LIG     1      20.319  34.207  11.831  1.00  0.00     0.069 C 
ENDROOT
BRANCH   1   2
HETATM    2  C   LIG     1      21.450  33.841  12.799  1.00  0.00     0.002 C 
HETATM    3  C   LIG     1      22.350  35.043  13.073  1.00  0.00     0.005 C 
ENDBRANCH   1   2
BRANCH   1   4
HETATM    4  C   LIG     1      18.977  33.902  12.425  1.00  0.00     0.231 C 
HETATM    5  O   LIG     1      18.092  34.742  12.394  1.00  0.00    -0.307 OA
ENDBRANCH   1   4
TORSDOF 2
ENDMDL
MODEL 17
REMARK VINA RESULT:      -2.8      3.788      4.369
REMARK  2 active torsions:
REMARK  status: ('A' for Active; 'I' for Inactive)
REMARK    1  A    between atoms: C_2  and  C_3 
REMARK    2  A    between atoms: C_3  and  C_4 
ROOT
HETATM    1  C   LIG     1      17.250  36.468  21.271  1.00  0.00     0.069 C 
ENDROOT
BRANCH   1   2
HETATM    2  C   LIG     1      17.631  37.838  21.843  1.00  0.00     0.002 C 
HETATM    3  C   LIG     1      16.457  38.471  22.585  1.00  0.00     0.005 C 
ENDBRANCH   1   2
BRANCH   1   4
HETATM    4  C   LIG     1      16.532  35.636  22.291  1.00  0.00     0.231 C 
HETATM    5  O   LIG     1      17.157  35.114  23.200  1.00  0.00    -0.307 OA
ENDBRANCH   1   4
TORSDOF 2
ENDMDL
MODEL 18
REMARK VINA RESULT:      -2.7     10.304     10.889
REMARK  2 active torsions:
REMARK  status: ('A' for Active; 'I' for Inactive)
REMARK    1  A    between atoms: C_2  and  C_3 
REMARK    2  A    between atoms: C_3  and  C_4 
ROOT
HETATM    1  C   LIG     1      14.305  32.047  17.536  1.00  0.00     0.069 C 
ENDROOT
BRANCH   1   2
HETATM    2  C   LIG     1      15.054  33.101  16.713  1.00  0.00     0.002 C 
HETATM    3  C   LIG     1      15.797  32.461  15.543  1.00  0.00     0.005 C 
ENDBRANCH   1   2
BRANCH   1   4
HETATM    4  C   LIG     1      13.706  30.995  16.652  1.00  0.00     0.231 C 
HETATM    5  O   LIG     1      12.515  30.738  16.732  1.00  0.00    -0.307 OA
ENDBRANCH   1   4
TORSDOF 2
ENDMDL
MODEL 19
REMARK VINA RESULT:      -2.7     12.047     12.582
REMARK  2 active torsions:
REMARK  status: ('A' for Active; 'I' for Inactive)
REMARK    1  A    between atoms: C_2  and  C_3 
REMARK    2  A    between atoms: C_3  and  C_4 
ROOT
HETATM    1  C   LIG     1      14.706  31.267  15.441  1.00  0.00     0.069 C 
ENDROOT
BRANCH   1   2
HETATM    2  C   LIG     1      14.724  30.119  14.426  1.00  0.00     0.002 C 
HETATM    3  C   LIG     1      13.378  29.399  14.385  1.00  0.00     0.005 C 
ENDBRANCH   1   2
BRANCH   1   4
HETATM    4  C   LIG     1      15.897  32.162  15.268  1.00  0.00     0.231 C 
HETATM    5  O   LIG     1      16.842  31.792  14.589  1.00  0.00    -0.307 OA
ENDBRANCH   1   4
TORSDOF 2
ENDMDL
MODEL 20
REMARK VINA RESULT:      -2.7     11.295     11.795
REMARK  2 active torsions:
REMARK  status: ('A' for Active; 'I' for Inactive)
REMARK    1  A    between atoms: C_2  and  C_3 
REMARK    2  A    between atoms: C_3  and  C_4 
ROOT
HETATM    1  C   LIG     1      17.654  32.882  15.009  1.00  0.00     0.069 C 
ENDROOT
BRANCH   1   2
HETATM    2  C   LIG     1      16.202  32.393  15.057  1.00  0.00     0.002 C 
HETATM    3  C   LIG     1      15.824  31.665  13.769  1.00  0.00     0.005 C 
ENDBRANCH   1   2
BRANCH   1   4
HETATM    4  C   LIG     1      17.827  33.968  13.990  1.00  0.00     0.231 C 
HETATM    5  O   LIG     1      17.452  35.103  14.240  1.00  0.00    -0.307 OA
ENDBRANCH   1   4
TORSDOF 2
ENDMDL
