MODEL 1
REMARK VINA RESULT:      -5.7      0.000      0.000
REMARK  7 active torsions:
REMARK  status: ('A' for Active; 'I' for Inactive)
REMARK    1  A    between atoms: C_2  and  C_3 
REMARK    2  A    between atoms: C_2  and  O_10 
REMARK    3  A    between atoms: C_3  and  C_4 
REMARK    4  A    between atoms: C_4  and  C_5 
REMARK    5  A    between atoms: C_5  and  O_6 
REMARK    6  A    between atoms: O_6  and  C_7 
REMARK    7  A    between atoms: O_10  and  C_11 
ROOT
HETATM    1  C   LIG     1      17.464  38.905  22.359  1.00  0.00     0.121 C 
ENDROOT
BRANCH   1   2
HETATM    2  C   LIG     1      18.201  38.325  21.194  1.00  0.00     0.259 C 
HETATM    3  O   LIG     1      18.987  39.050  20.526  1.00  0.00    -0.265 OA
BRANCH   2   4
HETATM    4  O   LIG     1      18.039  36.969  20.885  1.00  0.00    -0.322 OA
BRANCH   4   5
HETATM    5  C   LIG     1      16.826  36.253  21.113  1.00  0.00     0.174 C 
HETATM    6  C   LIG     1      17.034  35.164  22.158  1.00  0.00     0.034 C 
ENDBRANCH   4   5
ENDBRANCH   2   4
ENDBRANCH   1   2
BRANCH   1   7
HETATM    7  C   LIG     1      18.117  38.470  23.672  1.00  0.00     0.121 C 
BRANCH   7   8
HETATM    8  C   LIG     1      17.087  37.968  24.634  1.00  0.00     0.259 C 
HETATM    9  O   LIG     1      15.885  37.867  24.268  1.00  0.00    -0.265 OA
BRANCH   8  10
HETATM   10  O   LIG     1      17.472  37.614  25.932  1.00  0.00    -0.322 OA
BRANCH  10  11
HETATM   11  C   LIG     1      18.414  36.581  26.218  1.00  0.00     0.174 C 
HETATM   12  C   LIG     1      17.797  35.208  25.974  1.00  0.00     0.034 C 
ENDBRANCH  10  11
ENDBRANCH   8  10
ENDBRANCH   7   8
ENDBRANCH   1   7
TORSDOF 7
ENDMDL
MODEL 2
REMARK VINA RESULT:      -5.6      0.194      4.289
REMARK  7 active torsions:
REMARK  status: ('A' for Active; 'I' for Inactive)
REMARK    1  A    between atoms: C_2  and  C_3 
REMARK    2  A    between atoms: C_2  and  O_10 
REMARK    3  A    between atoms: C_3  and  C_4 
REMARK    4  A    between atoms: C_4  and  C_5 
REMARK    5  A    between atoms: C_5  and  O_6 
REMARK    6  A    between atoms: O_6  and  C_7 
REMARK    7  A    between atoms: O_10  and  C_11 
ROOT
HETATM    1  C   LIG     1      18.092  38.468  23.705  1.00  0.00     0.121 C 
ENDROOT
BRANCH   1   2
HETATM    2  C   LIG     1      17.071  37.967  24.676  1.00  0.00     0.259 C 
HETATM    3  O   LIG     1      15.870  37.847  24.315  1.00  0.00    -0.265 OA
BRANCH   2   4
HETATM    4  O   LIG     1      17.473  37.597  25.965  1.00  0.00    -0.322 OA
BRANCH   4   5
HETATM    5  C   LIG     1      18.427  36.570  26.224  1.00  0.00     0.174 C 
HETATM    6  C   LIG     1      17.825  35.196  25.951  1.00  0.00     0.034 C 
ENDBRANCH   4   5
ENDBRANCH   2   4
ENDBRANCH   1   2
BRANCH   1   7
HETATM    7  C   LIG     1      17.439  38.782  22.359  1.00  0.00     0.121 C 
BRANCH   7   8
HETATM    8  C   LIG     1      18.192  38.133  21.240  1.00  0.00     0.259 C 
HETATM    9  O   LIG     1      19.203  38.707  20.751  1.00  0.00    -0.265 OA
BRANCH   8  10
HETATM   10  O   LIG     1      17.766  36.893  20.751  1.00  0.00    -0.322 OA
BRANCH  10  11
HETATM   11  C   LIG     1      16.634  36.194  21.264  1.00  0.00     0.174 C 
HETATM   12  C   LIG     1      17.070  35.102  22.234  1.00  0.00     0.034 C 
ENDBRANCH  10  11
ENDBRANCH   8  10
ENDBRANCH   7   8
ENDBRANCH   1   7
TORSDOF 7
ENDMDL
MODEL 3
REMARK VINA RESULT:      -5.6      1.420      2.477
REMARK  7 active torsions:
REMARK  status: ('A' for Active; 'I' for Inactive)
REMARK    1  A    between atoms: C_2  and  C_3 
REMARK    2  A    between atoms: C_2  and  O_10 
REMARK    3  A    between atoms: C_3  and  C_4 
REMARK    4  A    between atoms: C_4  and  C_5 
REMARK    5  A    between atoms: C_5  and  O_6 
REMARK    6  A    between atoms: O_6  and  C_7 
REMARK    7  A    between atoms: O_10  and  C_11 
ROOT
HETATM    1  C   LIG     1      16.805  36.498  22.257  1.00  0.00     0.121 C 
ENDROOT
BRANCH   1   2
HETATM    2  C   LIG     1      17.476  36.540  20.921  1.00  0.00     0.259 C 
HETATM    3  O   LIG     1      17.184  35.681  20.046  1.00  0.00    -0.265 OA
BRANCH   2   4
HETATM    4  O   LIG     1      18.394  37.562  20.646  1.00  0.00    -0.322 OA
BRANCH   4   5
HETATM    5  C   LIG     1      19.158  37.625  19.445  1.00  0.00     0.174 C 
HETATM    6  C   LIG     1      20.204  38.730  19.531  1.00  0.00     0.034 C 
ENDBRANCH   4   5
ENDBRANCH   2   4
ENDBRANCH   1   2
BRANCH   1   7
HETATM    7  C   LIG     1      16.797  37.889  22.893  1.00  0.00     0.121 C 
BRANCH   7   8
HETATM    8  C   LIG     1      16.987  37.795  24.374  1.00  0.00     0.259 C 
HETATM    9  O   LIG     1      16.976  38.844  25.074  1.00  0.00    -0.265 OA
BRANCH   8  10
HETATM   10  O   LIG     1      17.175  36.541  24.966  1.00  0.00    -0.322 OA
BRANCH  10  11
HETATM   11  C   LIG     1      18.045  36.317  26.073  1.00  0.00     0.174 C 
HETATM   12  C   LIG     1      18.275  34.825  26.284  1.00  0.00     0.034 C 
ENDBRANCH  10  11
ENDBRANCH   8  10
ENDBRANCH   7   8
ENDBRANCH   1   7
TORSDOF 7
ENDMDL
MODEL 4
REMARK VINA RESULT:      -5.4      2.006      2.681
REMARK  7 active torsions:
REMARK  status: ('A' for Active; 'I' for Inactive)
REMARK    1  A    between atoms: C_2  and  C_3 
REMARK    2  A    between atoms: C_2  and  O_10 
REMARK    3  A    between atoms: C_3  and  C_4 
REMARK    4  A    between atoms: C_4  and  C_5 
REMARK    5  A    between atoms: C_5  and  O_6 
REMARK    6  A    between atoms: O_6  and  C_7 
REMARK    7  A    between atoms: O_10  and  C_11 
ROOT
HETATM    1  C   LIG     1      16.503  36.011  21.871  1.00  0.00     0.121 C 
ENDROOT
BRANCH   1   2
HETATM    2  C   LIG     1      16.807  35.637  20.456  1.00  0.00     0.259 C 
HETATM    3  O   LIG     1      17.783  36.171  19.863  1.00  0.00    -0.265 OA
BRANCH   2   4
HETATM    4  O   LIG     1      16.025  34.665  19.820  1.00  0.00    -0.322 OA
BRANCH   4   5
HETATM    5  C   LIG     1      15.380  33.601  20.515  1.00  0.00     0.174 C 
HETATM    6  C   LIG     1      15.518  32.294  19.743  1.00  0.00     0.034 C 
ENDBRANCH   4   5
ENDBRANCH   2   4
ENDBRANCH   1   2
BRANCH   1   7
HETATM    7  C   LIG     1      17.210  37.316  22.241  1.00  0.00     0.121 C 
BRANCH   7   8
HETATM    8  C   LIG     1      16.368  38.129  23.174  1.00  0.00     0.259 C 
HETATM    9  O   LIG     1      15.730  39.124  22.735  1.00  0.00    -0.265 OA
BRANCH   8  10
HETATM   10  O   LIG     1      16.299  37.772  24.526  1.00  0.00    -0.322 OA
BRANCH  10  11
HETATM   11  C   LIG     1      17.340  38.039  25.463  1.00  0.00     0.174 C 
HETATM   12  C   LIG     1      18.035  36.746  25.877  1.00  0.00     0.034 C 
ENDBRANCH  10  11
ENDBRANCH   8  10
ENDBRANCH   7   8
ENDBRANCH   1   7
TORSDOF 7
ENDMDL
MODEL 5
REMARK VINA RESULT:      -5.4      1.309      4.838
REMARK  7 active torsions:
REMARK  status: ('A' for Active; 'I' for Inactive)
REMARK    1  A    between atoms: C_2  and  C_3 
REMARK    2  A    between atoms: C_2  and  O_10 
REMARK    3  A    between atoms: C_3  and  C_4 
REMARK    4  A    between atoms: C_4  and  C_5 
REMARK    5  A    between atoms: C_5  and  O_6 
REMARK    6  A    between atoms: O_6  and  C_7 
REMARK    7  A    between atoms: O_10  and  C_11 
ROOT
HETATM    1  C   LIG     1      16.681  37.412  23.824  1.00  0.00     0.121 C 
ENDROOT
BRANCH   1   2
HETATM    2  C   LIG     1      17.372  37.864  25.071  1.00  0.00     0.259 C 
HETATM    3  O   LIG     1      16.919  38.848  25.716  1.00  0.00    -0.265 OA
BRANCH   2   4
HETATM    4  O   LIG     1      18.494  37.161  25.528  1.00  0.00    -0.322 OA
BRANCH   4   5
HETATM    5  C   LIG     1      18.471  36.306  26.668  1.00  0.00     0.174 C 
HETATM    6  C   LIG     1      18.092  34.885  26.267  1.00  0.00     0.034 C 
ENDBRANCH   4   5
ENDBRANCH   2   4
ENDBRANCH   1   2
BRANCH   1   7
HETATM    7  C   LIG     1      17.194  38.198  22.616  1.00  0.00     0.121 C 
BRANCH   7   8
HETATM    8  C   LIG     1      17.519  37.275  21.484  1.00  0.00     0.259 C 
HETATM    9  O   LIG     1      17.054  36.103  21.479  1.00  0.00    -0.265 OA
BRANCH   8  10
HETATM   10  O   LIG     1      18.336  37.726  20.441  1.00  0.00    -0.322 OA
BRANCH  10  11
HETATM   11  C   LIG     1      19.111  38.921  20.511  1.00  0.00     0.174 C 
HETATM   12  C   LIG     1      20.281  38.861  19.535  1.00  0.00     0.034 C 
ENDBRANCH  10  11
ENDBRANCH   8  10
ENDBRANCH   7   8
ENDBRANCH   1   7
TORSDOF 7
ENDMDL
MODEL 6
REMARK VINA RESULT:      -5.3      2.575      5.235
REMARK  7 active torsions:
REMARK  status: ('A' for Active; 'I' for Inactive)
REMARK    1  A    between atoms: C_2  and  C_3 
REMARK    2  A    between atoms: C_2  and  O_10 
REMARK    3  A    between atoms: C_3  and  C_4 
REMARK    4  A    between atoms: C_4  and  C_5 
REMARK    5  A    between atoms: C_5  and  O_6 
REMARK    6  A    between atoms: O_6  and  C_7 
REMARK    7  A    between atoms: O_10  and  C_11 
ROOT
HETATM    1  C   LIG     1      16.939  36.605  21.866  1.00  0.00     0.121 C 
ENDROOT
BRANCH   1   2
HETATM    2  C   LIG     1      16.457  37.171  23.163  1.00  0.00     0.259 C 
HETATM    3  O   LIG     1      15.568  38.065  23.164  1.00  0.00    -0.265 OA
BRANCH   2   4
HETATM    4  O   LIG     1      16.972  36.671  24.365  1.00  0.00    -0.322 OA
BRANCH   4   5
HETATM    5  C   LIG     1      17.533  37.498  25.382  1.00  0.00     0.174 C 
HETATM    6  C   LIG     1      18.387  36.671  26.336  1.00  0.00     0.034 C 
ENDBRANCH   4   5
ENDBRANCH   2   4
ENDBRANCH   1   2
BRANCH   1   7
HETATM    7  C   LIG     1      16.903  35.076  21.907  1.00  0.00     0.121 C 
BRANCH   7   8
HETATM    8  C   LIG     1      15.741  34.553  21.121  1.00  0.00     0.259 C 
HETATM    9  O   LIG     1      14.606  34.467  21.665  1.00  0.00    -0.265 OA
BRANCH   8  10
HETATM   10  O   LIG     1      15.929  34.167  19.790  1.00  0.00    -0.322 OA
BRANCH  10  11
HETATM   11  C   LIG     1      15.234  33.080  19.182  1.00  0.00     0.174 C 
HETATM   12  C   LIG     1      15.625  31.759  19.834  1.00  0.00     0.034 C 
ENDBRANCH  10  11
ENDBRANCH   8  10
ENDBRANCH   7   8
ENDBRANCH   1   7
TORSDOF 7
ENDMDL
MODEL 7
REMARK VINA RESULT:      -5.2      1.605      4.894
REMARK  7 active torsions:
REMARK  status: ('A' for Active; 'I' for Inactive)
REMARK    1  A    between atoms: C_2  and  C_3 
REMARK    2  A    between atoms: C_2  and  O_10 
REMARK    3  A    between atoms: C_3  and  C_4 
REMARK    4  A    between atoms: C_4  and  C_5 
REMARK    5  A    between atoms: C_5  and  O_6 
REMARK    6  A    between atoms: O_6  and  C_7 
REMARK    7  A    between atoms: O_10  and  C_11 
ROOT
HETATM    1  C   LIG     1      16.823  36.137  22.769  1.00  0.00     0.121 C 
ENDROOT
BRANCH   1   2
HETATM    2  C   LIG     1      16.676  37.542  23.258  1.00  0.00     0.259 C 
HETATM    3  O   LIG     1      16.803  38.502  22.451  1.00  0.00    -0.265 OA
BRANCH   2   4
HETATM    4  O   LIG     1      16.358  37.772  24.602  1.00  0.00    -0.322 OA
BRANCH   4   5
HETATM    5  C   LIG     1      17.321  38.158  25.580  1.00  0.00     0.174 C 
HETATM    6  C   LIG     1      18.208  36.978  25.956  1.00  0.00     0.034 C 
ENDBRANCH   4   5
ENDBRANCH   2   4
ENDBRANCH   1   2
BRANCH   1   7
HETATM    7  C   LIG     1      15.906  35.892  21.570  1.00  0.00     0.121 C 
BRANCH   7   8
HETATM    8  C   LIG     1      16.708  35.701  20.321  1.00  0.00     0.259 C 
HETATM    9  O   LIG     1      16.174  35.167  19.310  1.00  0.00    -0.265 OA
BRANCH   8  10
HETATM   10  O   LIG     1      18.043  36.119  20.289  1.00  0.00    -0.322 OA
BRANCH  10  11
HETATM   11  C   LIG     1      18.581  36.951  19.264  1.00  0.00     0.174 C 
HETATM   12  C   LIG     1      19.293  38.156  19.867  1.00  0.00     0.034 C 
ENDBRANCH  10  11
ENDBRANCH   8  10
ENDBRANCH   7   8
ENDBRANCH   1   7
TORSDOF 7
ENDMDL
MODEL 8
REMARK VINA RESULT:      -5.2      2.723      5.244
REMARK  7 active torsions:
REMARK  status: ('A' for Active; 'I' for Inactive)
REMARK    1  A    between atoms: C_2  and  C_3 
REMARK    2  A    between atoms: C_2  and  O_10 
REMARK    3  A    between atoms: C_3  and  C_4 
REMARK    4  A    between atoms: C_4  and  C_5 
REMARK    5  A    between atoms: C_5  and  O_6 
REMARK    6  A    between atoms: O_6  and  C_7 
REMARK    7  A    between atoms: O_10  and  C_11 
ROOT
HETATM    1  C   LIG     1      16.811  35.920  22.929  1.00  0.00     0.121 C 
ENDROOT
BRANCH   1   2
HETATM    2  C   LIG     1      16.566  37.390  23.054  1.00  0.00     0.259 C 
HETATM    3  O   LIG     1      15.969  37.841  24.069  1.00  0.00    -0.265 OA
BRANCH   2   4
HETATM    4  O   LIG     1      17.041  38.252  22.058  1.00  0.00    -0.322 OA
BRANCH   4   5
HETATM    5  C   LIG     1      18.252  38.995  22.177  1.00  0.00     0.174 C 
HETATM    6  C   LIG     1      18.842  39.284  20.801  1.00  0.00     0.034 C 
ENDBRANCH   4   5
ENDBRANCH   2   4
ENDBRANCH   1   2
BRANCH   1   7
HETATM    7  C   LIG     1      16.937  35.525  21.457  1.00  0.00     0.121 C 
BRANCH   7   8
HETATM    8  C   LIG     1      15.822  34.611  21.056  1.00  0.00     0.259 C 
HETATM    9  O   LIG     1      14.765  34.573  21.745  1.00  0.00    -0.265 OA
BRANCH   8  10
HETATM   10  O   LIG     1      15.964  33.807  19.920  1.00  0.00    -0.322 OA
BRANCH  10  11
HETATM   11  C   LIG     1      15.409  32.498  19.809  1.00  0.00     0.174 C 
HETATM   12  C   LIG     1      14.899  32.248  18.394  1.00  0.00     0.034 C 
ENDBRANCH  10  11
ENDBRANCH   8  10
ENDBRANCH   7   8
ENDBRANCH   1   7
TORSDOF 7
ENDMDL
MODEL 9
REMARK VINA RESULT:      -5.1      1.774      2.909
REMARK  7 active torsions:
REMARK  status: ('A' for Active; 'I' for Inactive)
REMARK    1  A    between atoms: C_2  and  C_3 
REMARK    2  A    between atoms: C_2  and  O_10 
REMARK    3  A    between atoms: C_3  and  C_4 
REMARK    4  A    between atoms: C_4  and  C_5 
REMARK    5  A    between atoms: C_5  and  O_6 
REMARK    6  A    between atoms: O_6  and  C_7 
REMARK    7  A    between atoms: O_10  and  C_11 
ROOT
HETATM    1  C   LIG     1      18.441  38.701  22.101  1.00  0.00     0.121 C 
ENDROOT
BRANCH   1   2
HETATM    2  C   LIG     1      18.530  38.286  20.668  1.00  0.00     0.259 C 
HETATM    3  O   LIG     1      18.434  37.067  20.361  1.00  0.00    -0.265 OA
BRANCH   2   4
HETATM    4  O   LIG     1      18.678  39.265  19.677  1.00  0.00    -0.322 OA
BRANCH   4   5
HETATM    5  C   LIG     1      19.484  39.087  18.514  1.00  0.00     0.174 C 
HETATM    6  C   LIG     1      18.731  39.534  17.266  1.00  0.00     0.034 C 
ENDBRANCH   4   5
ENDBRANCH   2   4
ENDBRANCH   1   2
BRANCH   1   7
HETATM    7  C   LIG     1      16.999  39.062  22.462  1.00  0.00     0.121 C 
BRANCH   7   8
HETATM    8  C   LIG     1      16.319  37.914  23.139  1.00  0.00     0.259 C 
HETATM    9  O   LIG     1      15.833  36.978  22.447  1.00  0.00    -0.265 OA
BRANCH   8  10
HETATM   10  O   LIG     1      16.232  37.891  24.536  1.00  0.00    -0.322 OA
BRANCH  10  11
HETATM   11  C   LIG     1      17.332  38.184  25.396  1.00  0.00     0.174 C 
HETATM   12  C   LIG     1      18.022  36.900  25.842  1.00  0.00     0.034 C 
ENDBRANCH  10  11
ENDBRANCH   8  10
ENDBRANCH   7   8
ENDBRANCH   1   7
TORSDOF 7
ENDMDL
MODEL 10
REMARK VINA RESULT:      -4.8      8.564     10.575
REMARK  7 active torsions:
REMARK  status: ('A' for Active; 'I' for Inactive)
REMARK    1  A    between atoms: C_2  and  C_3 
REMARK    2  A    between atoms: C_2  and  O_10 
REMARK    3  A    between atoms: C_3  and  C_4 
REMARK    4  A    between atoms: C_4  and  C_5 
REMARK    5  A    between atoms: C_5  and  O_6 
REMARK    6  A    between atoms: O_6  and  C_7 
REMARK    7  A    between atoms: O_10  and  C_11 
ROOT
HETATM    1  C   LIG     1      16.228  32.551  14.999  1.00  0.00     0.121 C 
ENDROOT
BRANCH   1   2
HETATM    2  C   LIG     1      15.595  33.138  16.220  1.00  0.00     0.259 C 
HETATM    3  O   LIG     1      15.657  34.381  16.421  1.00  0.00    -0.265 OA
BRANCH   2   4
HETATM    4  O   LIG     1      14.905  32.301  17.105  1.00  0.00    -0.322 OA
BRANCH   4   5
HETATM    5  C   LIG     1      13.499  32.073  17.033  1.00  0.00     0.174 C 
HETATM    6  C   LIG     1      13.203  30.790  16.264  1.00  0.00     0.034 C 
ENDBRANCH   4   5
ENDBRANCH   2   4
ENDBRANCH   1   2
BRANCH   1   7
HETATM    7  C   LIG     1      17.697  32.967  14.909  1.00  0.00     0.121 C 
BRANCH   7   8
HETATM    8  C   LIG     1      17.955  33.729  13.647  1.00  0.00     0.259 C 
HETATM    9  O   LIG     1      17.498  34.898  13.518  1.00  0.00    -0.265 OA
BRANCH   8  10
HETATM   10  O   LIG     1      18.703  33.135  12.624  1.00  0.00    -0.322 OA
BRANCH  10  11
HETATM   11  C   LIG     1      19.660  33.843  11.839  1.00  0.00     0.174 C 
HETATM   12  C   LIG     1      20.962  34.023  12.612  1.00  0.00     0.034 C 
ENDBRANCH  10  11
ENDBRANCH   8  10
ENDBRANCH   7   8
ENDBRANCH   1   7
TORSDOF 7
ENDMDL
MODEL 11
REMARK VINA RESULT:      -4.8      1.631      3.235
REMARK  7 active torsions:
REMARK  status: ('A' for Active; 'I' for Inactive)
REMARK    1  A    between atoms: C_2  and  C_3 
REMARK    2  A    between atoms: C_2  and  O_10 
REMARK    3  A    between atoms: C_3  and  C_4 
REMARK    4  A    between atoms: C_4  and  C_5 
REMARK    5  A    between atoms: C_5  and  O_6 
REMARK    6  A    between atoms: O_6  and  C_7 
REMARK    7  A    between atoms: O_10  and  C_11 
ROOT
HETATM    1  C   LIG     1      16.365  35.935  21.940  1.00  0.00     0.121 C 
ENDROOT
BRANCH   1   2
HETATM    2  C   LIG     1      16.820  35.736  20.530  1.00  0.00     0.259 C 
HETATM    3  O   LIG     1      16.087  35.111  19.718  1.00  0.00    -0.265 OA
BRANCH   2   4
HETATM    4  O   LIG     1      18.042  36.284  20.119  1.00  0.00    -0.322 OA
BRANCH   4   5
HETATM    5  C   LIG     1      18.452  37.611  20.438  1.00  0.00     0.174 C 
HETATM    6  C   LIG     1      19.589  38.056  19.525  1.00  0.00     0.034 C 
ENDBRANCH   4   5
ENDBRANCH   2   4
ENDBRANCH   1   2
BRANCH   1   7
HETATM    7  C   LIG     1      17.132  35.007  22.883  1.00  0.00     0.121 C 
BRANCH   7   8
HETATM    8  C   LIG     1      17.106  35.535  24.283  1.00  0.00     0.259 C 
HETATM    9  O   LIG     1      17.506  34.809  25.233  1.00  0.00    -0.265 OA
BRANCH   8  10
HETATM   10  O   LIG     1      16.638  36.832  24.521  1.00  0.00    -0.322 OA
BRANCH  10  11
HETATM   11  C   LIG     1      17.436  37.860  25.105  1.00  0.00     0.174 C 
HETATM   12  C   LIG     1      18.428  38.415  24.088  1.00  0.00     0.034 C 
ENDBRANCH  10  11
ENDBRANCH   8  10
ENDBRANCH   7   8
ENDBRANCH   1   7
TORSDOF 7
ENDMDL
MODEL 12
REMARK VINA RESULT:      -4.8      7.557      9.582
REMARK  7 active torsions:
REMARK  status: ('A' for Active; 'I' for Inactive)
REMARK    1  A    between atoms: C_2  and  C_3 
REMARK    2  A    between atoms: C_2  and  O_10 
REMARK    3  A    between atoms: C_3  and  C_4 
REMARK    4  A    between atoms: C_4  and  C_5 
REMARK    5  A    between atoms: C_5  and  O_6 
REMARK    6  A    between atoms: O_6  and  C_7 
REMARK    7  A    between atoms: O_10  and  C_11 
ROOT
HETATM    1  C   LIG     1      17.654  33.127  14.896  1.00  0.00     0.121 C 
ENDROOT
BRANCH   1   2
HETATM    2  C   LIG     1      17.711  33.672  13.505  1.00  0.00     0.259 C 
HETATM    3  O   LIG     1      17.330  34.852  13.279  1.00  0.00    -0.265 OA
BRANCH   2   4
HETATM    4  O   LIG     1      18.225  32.874  12.475  1.00  0.00    -0.322 OA
BRANCH   4   5
HETATM    5  C   LIG     1      19.372  33.230  11.707  1.00  0.00     0.174 C 
HETATM    6  C   LIG     1      20.478  33.764  12.609  1.00  0.00     0.034 C 
ENDBRANCH   4   5
ENDBRANCH   2   4
ENDBRANCH   1   2
BRANCH   1   7
HETATM    7  C   LIG     1      16.247  32.618  15.212  1.00  0.00     0.121 C 
BRANCH   7   8
HETATM    8  C   LIG     1      15.551  33.542  16.161  1.00  0.00     0.259 C 
HETATM    9  O   LIG     1      16.014  34.698  16.361  1.00  0.00    -0.265 OA
BRANCH   8  10
HETATM   10  O   LIG     1      14.392  33.111  16.816  1.00  0.00    -0.322 OA
BRANCH  10  11
HETATM   11  C   LIG     1      14.364  32.008  17.720  1.00  0.00     0.174 C 
HETATM   12  C   LIG     1      15.157  32.326  18.982  1.00  0.00     0.034 C 
ENDBRANCH  10  11
ENDBRANCH   8  10
ENDBRANCH   7   8
ENDBRANCH   1   7
TORSDOF 7
ENDMDL
MODEL 13
REMARK VINA RESULT:      -4.7      2.512      4.216
REMARK  7 active torsions:
REMARK  status: ('A' for Active; 'I' for Inactive)
REMARK    1  A    between atoms: C_2  and  C_3 
REMARK    2  A    between atoms: C_2  and  O_10 
REMARK    3  A    between atoms: C_3  and  C_4 
REMARK    4  A    between atoms: C_4  and  C_5 
REMARK    5  A    between atoms: C_5  and  O_6 
REMARK    6  A    between atoms: O_6  and  C_7 
REMARK    7  A    between atoms: O_10  and  C_11 
ROOT
HETATM    1  C   LIG     1      16.579  35.463  22.047  1.00  0.00     0.121 C 
ENDROOT
BRANCH   1   2
HETATM    2  C   LIG     1      16.401  34.851  20.695  1.00  0.00     0.259 C 
HETATM    3  O   LIG     1      16.562  35.555  19.662  1.00  0.00    -0.265 OA
BRANCH   2   4
HETATM    4  O   LIG     1      16.096  33.488  20.594  1.00  0.00    -0.322 OA
BRANCH   4   5
HETATM    5  C   LIG     1      15.281  32.942  19.559  1.00  0.00     0.174 C 
HETATM    6  C   LIG     1      14.899  31.502  19.880  1.00  0.00     0.034 C 
ENDBRANCH   4   5
ENDBRANCH   2   4
ENDBRANCH   1   2
BRANCH   1   7
HETATM    7  C   LIG     1      15.670  36.684  22.203  1.00  0.00     0.121 C 
BRANCH   7   8
HETATM    8  C   LIG     1      16.482  37.929  22.375  1.00  0.00     0.259 C 
HETATM    9  O   LIG     1      15.958  38.949  22.901  1.00  0.00    -0.265 OA
BRANCH   8  10
HETATM   10  O   LIG     1      17.815  37.947  21.950  1.00  0.00    -0.322 OA
BRANCH  10  11
HETATM   11  C   LIG     1      18.597  39.137  21.867  1.00  0.00     0.174 C 
HETATM   12  C   LIG     1      19.013  39.407  20.425  1.00  0.00     0.034 C 
ENDBRANCH  10  11
ENDBRANCH   8  10
ENDBRANCH   7   8
ENDBRANCH   1   7
TORSDOF 7
ENDMDL
MODEL 14
REMARK VINA RESULT:      -4.7      7.330      9.146
REMARK  7 active torsions:
REMARK  status: ('A' for Active; 'I' for Inactive)
REMARK    1  A    between atoms: C_2  and  C_3 
REMARK    2  A    between atoms: C_2  and  O_10 
REMARK    3  A    between atoms: C_3  and  C_4 
REMARK    4  A    between atoms: C_4  and  C_5 
REMARK    5  A    between atoms: C_5  and  O_6 
REMARK    6  A    between atoms: O_6  and  C_7 
REMARK    7  A    between atoms: O_10  and  C_11 
ROOT
HETATM    1  C   LIG     1      16.294  32.759  15.842  1.00  0.00     0.121 C 
ENDROOT
BRANCH   1   2
HETATM    2  C   LIG     1      16.148  32.129  14.494  1.00  0.00     0.259 C 
HETATM    3  O   LIG     1      16.108  32.855  13.465  1.00  0.00    -0.265 OA
BRANCH   2   4
HETATM    4  O   LIG     1      16.098  30.733  14.391  1.00  0.00    -0.322 OA
BRANCH   4   5
HETATM    5  C   LIG     1      14.895  30.009  14.143  1.00  0.00     0.174 C 
HETATM    6  C   LIG     1      15.205  28.559  13.787  1.00  0.00     0.034 C 
ENDBRANCH   4   5
ENDBRANCH   2   4
ENDBRANCH   1   2
BRANCH   1   7
HETATM    7  C   LIG     1      14.919  33.032  16.454  1.00  0.00     0.121 C 
BRANCH   7   8
HETATM    8  C   LIG     1      14.735  32.246  17.714  1.00  0.00     0.259 C 
HETATM    9  O   LIG     1      13.770  31.439  17.813  1.00  0.00    -0.265 OA
BRANCH   8  10
HETATM   10  O   LIG     1      15.637  32.415  18.770  1.00  0.00    -0.322 OA
BRANCH  10  11
HETATM   11  C   LIG     1      15.238  32.733  20.102  1.00  0.00     0.174 C 
HETATM   12  C   LIG     1      15.718  34.127  20.489  1.00  0.00     0.034 C 
ENDBRANCH  10  11
ENDBRANCH   8  10
ENDBRANCH   7   8
ENDBRANCH   1   7
TORSDOF 7
ENDMDL
MODEL 15
REMARK VINA RESULT:      -4.7      2.016      3.472
REMARK  7 active torsions:
REMARK  status: ('A' for Active; 'I' for Inactive)
REMARK    1  A    between atoms: C_2  and  C_3 
REMARK    2  A    between atoms: C_2  and  O_10 
REMARK    3  A    between atoms: C_3  and  C_4 
REMARK    4  A    between atoms: C_4  and  C_5 
REMARK    5  A    between atoms: C_5  and  O_6 
REMARK    6  A    between atoms: O_6  and  C_7 
REMARK    7  A    between atoms: O_10  and  C_11 
ROOT
HETATM    1  C   LIG     1      16.956  38.870  22.238  1.00  0.00     0.121 C 
ENDROOT
BRANCH   1   2
HETATM    2  C   LIG     1      18.328  39.131  21.705  1.00  0.00     0.259 C 
HETATM    3  O   LIG     1      19.309  39.173  22.495  1.00  0.00    -0.265 OA
BRANCH   2   4
HETATM    4  O   LIG     1      18.510  39.287  20.325  1.00  0.00    -0.322 OA
BRANCH   4   5
HETATM    5  C   LIG     1      19.499  38.581  19.581  1.00  0.00     0.174 C 
HETATM    6  C   LIG     1      19.170  37.093  19.526  1.00  0.00     0.034 C 
ENDBRANCH   4   5
ENDBRANCH   2   4
ENDBRANCH   1   2
BRANCH   1   7
HETATM    7  C   LIG     1      17.029  38.000  23.495  1.00  0.00     0.121 C 
BRANCH   7   8
HETATM    8  C   LIG     1      16.966  36.548  23.138  1.00  0.00     0.259 C 
HETATM    9  O   LIG     1      17.163  35.676  24.027  1.00  0.00    -0.265 OA
BRANCH   8  10
HETATM   10  O   LIG     1      16.686  36.175  21.818  1.00  0.00    -0.322 OA
BRANCH  10  11
HETATM   11  C   LIG     1      15.480  35.521  21.426  1.00  0.00     0.174 C 
HETATM   12  C   LIG     1      15.681  34.760  20.120  1.00  0.00     0.034 C 
ENDBRANCH  10  11
ENDBRANCH   8  10
ENDBRANCH   7   8
ENDBRANCH   1   7
TORSDOF 7
ENDMDL
MODEL 16
REMARK VINA RESULT:      -4.7      3.215      5.288
REMARK  7 active torsions:
REMARK  status: ('A' for Active; 'I' for Inactive)
REMARK    1  A    between atoms: C_2  and  C_3 
REMARK    2  A    between atoms: C_2  and  O_10 
REMARK    3  A    between atoms: C_3  and  C_4 
REMARK    4  A    between atoms: C_4  and  C_5 
REMARK    5  A    between atoms: C_5  and  O_6 
REMARK    6  A    between atoms: O_6  and  C_7 
REMARK    7  A    between atoms: O_10  and  C_11 
ROOT
HETATM    1  C   LIG     1      16.945  36.433  21.217  1.00  0.00     0.121 C 
ENDROOT
BRANCH   1   2
HETATM    2  C   LIG     1      17.906  36.785  20.127  1.00  0.00     0.259 C 
HETATM    3  O   LIG     1      17.754  36.295  18.976  1.00  0.00    -0.265 OA
BRANCH   2   4
HETATM    4  O   LIG     1      18.942  37.690  20.391  1.00  0.00    -0.322 OA
BRANCH   4   5
HETATM    5  C   LIG     1      18.745  39.098  20.493  1.00  0.00     0.174 C 
HETATM    6  C   LIG     1      18.487  39.501  21.941  1.00  0.00     0.034 C 
ENDBRANCH   4   5
ENDBRANCH   2   4
ENDBRANCH   1   2
BRANCH   1   7
HETATM    7  C   LIG     1      16.969  34.927  21.482  1.00  0.00     0.121 C 
BRANCH   7   8
HETATM    8  C   LIG     1      15.720  34.279  20.972  1.00  0.00     0.259 C 
HETATM    9  O   LIG     1      14.653  34.365  21.639  1.00  0.00    -0.265 OA
BRANCH   8  10
HETATM   10  O   LIG     1      15.751  33.586  19.757  1.00  0.00    -0.322 OA
BRANCH  10  11
HETATM   11  C   LIG     1      15.257  32.258  19.597  1.00  0.00     0.174 C 
HETATM   12  C   LIG     1      14.658  32.069  18.208  1.00  0.00     0.034 C 
ENDBRANCH  10  11
ENDBRANCH   8  10
ENDBRANCH   7   8
ENDBRANCH   1   7
TORSDOF 7
ENDMDL
MODEL 17
REMARK VINA RESULT:      -4.6      9.464     11.034
REMARK  7 active torsions:
REMARK  status: ('A' for Active; 'I' for Inactive)
REMARK    1  A    between atoms: C_2  and  C_3 
REMARK    2  A    between atoms: C_2  and  O_10 
REMARK    3  A    between atoms: C_3  and  C_4 
REMARK    4  A    between atoms: C_4  and  C_5 
REMARK    5  A    between atoms: C_5  and  O_6 
REMARK    6  A    between atoms: O_6  and  C_7 
REMARK    7  A    between atoms: O_10  and  C_11 
ROOT
HETATM    1  C   LIG     1      17.832  33.236  13.080  1.00  0.00     0.121 C 
ENDROOT
BRANCH   1   2
HETATM    2  C   LIG     1      18.065  34.511  12.335  1.00  0.00     0.259 C 
HETATM    3  O   LIG     1      17.184  35.413  12.347  1.00  0.00    -0.265 OA
BRANCH   2   4
HETATM    4  O   LIG     1      19.279  34.702  11.664  1.00  0.00    -0.322 OA
BRANCH   4   5
HETATM    5  C   LIG     1      20.405  33.841  11.821  1.00  0.00     0.174 C 
HETATM    6  C   LIG     1      21.441  34.475  12.742  1.00  0.00     0.034 C 
ENDBRANCH   4   5
ENDBRANCH   2   4
ENDBRANCH   1   2
BRANCH   1   7
HETATM    7  C   LIG     1      17.597  33.522  14.564  1.00  0.00     0.121 C 
BRANCH   7   8
HETATM    8  C   LIG     1      16.776  32.437  15.188  1.00  0.00     0.259 C 
HETATM    9  O   LIG     1      16.317  32.592  16.353  1.00  0.00    -0.265 OA
BRANCH   8  10
HETATM   10  O   LIG     1      16.526  31.263  14.470  1.00  0.00    -0.322 OA
BRANCH  10  11
HETATM   11  C   LIG     1      15.244  30.919  13.949  1.00  0.00     0.174 C 
HETATM   12  C   LIG     1      14.884  29.482  14.310  1.00  0.00     0.034 C 
ENDBRANCH  10  11
ENDBRANCH   8  10
ENDBRANCH   7   8
ENDBRANCH   1   7
TORSDOF 7
ENDMDL
MODEL 18
REMARK VINA RESULT:      -4.6      7.379     10.290
REMARK  7 active torsions:
REMARK  status: ('A' for Active; 'I' for Inactive)
REMARK    1  A    between atoms: C_2  and  C_3 
REMARK    2  A    between atoms: C_2  and  O_10 
REMARK    3  A    between atoms: C_3  and  C_4 
REMARK    4  A    between atoms: C_4  and  C_5 
REMARK    5  A    between atoms: C_5  and  O_6 
REMARK    6  A    between atoms: O_6  and  C_7 
REMARK    7  A    between atoms: O_10  and  C_11 
ROOT
HETATM    1  C   LIG     1      15.005  32.779  16.113  1.00  0.00     0.121 C 
ENDROOT
BRANCH   1   2
HETATM    2  C   LIG     1      14.758  32.274  17.498  1.00  0.00     0.259 C 
HETATM    3  O   LIG     1      13.774  31.518  17.723  1.00  0.00    -0.265 OA
BRANCH   2   4
HETATM    4  O   LIG     1      15.649  32.616  18.523  1.00  0.00    -0.322 OA
BRANCH   4   5
HETATM    5  C   LIG     1      15.288  32.632  19.902  1.00  0.00     0.174 C 
HETATM    6  C   LIG     1      15.690  33.953  20.547  1.00  0.00     0.034 C 
ENDBRANCH   4   5
ENDBRANCH   2   4
ENDBRANCH   1   2
BRANCH   1   7
HETATM    7  C   LIG     1      16.373  32.315  15.613  1.00  0.00     0.121 C 
BRANCH   7   8
HETATM    8  C   LIG     1      16.365  32.149  14.126  1.00  0.00     0.259 C 
HETATM    9  O   LIG     1      17.224  32.749  13.424  1.00  0.00    -0.265 OA
BRANCH   8  10
HETATM   10  O   LIG     1      15.402  31.326  13.531  1.00  0.00    -0.322 OA
BRANCH  10  11
HETATM   11  C   LIG     1      15.271  29.935  13.819  1.00  0.00     0.174 C 
HETATM   12  C   LIG     1      13.907  29.639  14.431  1.00  0.00     0.034 C 
ENDBRANCH  10  11
ENDBRANCH   8  10
ENDBRANCH   7   8
ENDBRANCH   1   7
TORSDOF 7
ENDMDL
MODEL 19
REMARK VINA RESULT:      -4.6      7.453     10.168
REMARK  7 active torsions:
REMARK  status: ('A' for Active; 'I' for Inactive)
REMARK    1  A    between atoms: C_2  and  C_3 
REMARK    2  A    between atoms: C_2  and  O_10 
REMARK    3  A    between atoms: C_3  and  C_4 
REMARK    4  A    between atoms: C_4  and  C_5 
REMARK    5  A    between atoms: C_5  and  O_6 
REMARK    6  A    between atoms: O_6  and  C_7 
REMARK    7  A    between atoms: O_10  and  C_11 
ROOT
HETATM    1  C   LIG     1      13.584  32.431  16.708  1.00  0.00     0.121 C 
ENDROOT
BRANCH   1   2
HETATM    2  C   LIG     1      14.765  33.234  17.150  1.00  0.00     0.259 C 
HETATM    3  O   LIG     1      14.962  34.380  16.664  1.00  0.00    -0.265 OA
BRANCH   2   4
HETATM    4  O   LIG     1      15.618  32.715  18.133  1.00  0.00    -0.322 OA
BRANCH   4   5
HETATM    5  C   LIG     1      15.326  32.762  19.528  1.00  0.00     0.174 C 
HETATM    6  C   LIG     1      14.933  31.382  20.041  1.00  0.00     0.034 C 
ENDBRANCH   4   5
ENDBRANCH   2   4
ENDBRANCH   1   2
BRANCH   1   7
HETATM    7  C   LIG     1      13.966  30.957  16.563  1.00  0.00     0.121 C 
BRANCH   7   8
HETATM    8  C   LIG     1      13.693  30.474  15.173  1.00  0.00     0.259 C 
HETATM    9  O   LIG     1      12.611  29.878  14.920  1.00  0.00    -0.265 OA
BRANCH   8  10
HETATM   10  O   LIG     1      14.643  30.691  14.170  1.00  0.00    -0.322 OA
BRANCH  10  11
HETATM   11  C   LIG     1      15.980  31.113  14.432  1.00  0.00     0.174 C 
HETATM   12  C   LIG     1      16.288  32.412  13.695  1.00  0.00     0.034 C 
ENDBRANCH  10  11
ENDBRANCH   8  10
ENDBRANCH   7   8
ENDBRANCH   1   7
TORSDOF 7
ENDMDL
MODEL 20
REMARK VINA RESULT:      -4.5      7.667      9.735
REMARK  7 active torsions:
REMARK  status: ('A' for Active; 'I' for Inactive)
REMARK    1  A    between atoms: C_2  and  C_3 
REMARK    2  A    between atoms: C_2  and  O_10 
REMARK    3  A    between atoms: C_3  and  C_4 
REMARK    4  A    between atoms: C_4  and  C_5 
REMARK    5  A    between atoms: C_5  and  O_6 
REMARK    6  A    between atoms: O_6  and  C_7 
REMARK    7  A    between atoms: O_10  and  C_11 
ROOT
HETATM    1  C   LIG     1      15.609  32.377  15.516  1.00  0.00     0.121 C 
ENDROOT
BRANCH   1   2
HETATM    2  C   LIG     1      16.293  32.382  14.186  1.00  0.00     0.259 C 
HETATM    3  O   LIG     1      16.208  31.373  13.435  1.00  0.00    -0.265 OA
BRANCH   2   4
HETATM    4  O   LIG     1      16.986  33.527  13.775  1.00  0.00    -0.322 OA
BRANCH   4   5
HETATM    5  C   LIG     1      18.407  33.586  13.669  1.00  0.00     0.174 C 
HETATM    6  C   LIG     1      18.839  33.523  12.209  1.00  0.00     0.034 C 
ENDBRANCH   4   5
ENDBRANCH   2   4
ENDBRANCH   1   2
BRANCH   1   7
HETATM    7  C   LIG     1      14.607  31.224  15.596  1.00  0.00     0.121 C 
BRANCH   7   8
HETATM    8  C   LIG     1      13.752  31.350  16.817  1.00  0.00     0.259 C 
HETATM    9  O   LIG     1      12.655  30.731  16.879  1.00  0.00    -0.265 OA
BRANCH   8  10
HETATM   10  O   LIG     1      14.182  32.153  17.879  1.00  0.00    -0.322 OA
BRANCH  10  11
HETATM   11  C   LIG     1      14.683  31.630  19.108  1.00  0.00     0.174 C 
HETATM   12  C   LIG     1      15.532  32.670  19.829  1.00  0.00     0.034 C 
ENDBRANCH  10  11
ENDBRANCH   8  10
ENDBRANCH   7   8
ENDBRANCH   1   7
TORSDOF 7
ENDMDL
