MODEL 1
REMARK VINA RESULT:      -5.7      0.000      0.000
REMARK  2 active torsions:
REMARK  status: ('A' for Active; 'I' for Inactive)
REMARK    1  A    between atoms: N_1  and  C_2 
REMARK    2  A    between atoms: C_5  and  O_6 
ROOT
HETATM    1  C   LIG     1      17.688  37.390  21.201  1.00  0.00     0.025 A 
HETATM    2  C   LIG     1      18.389  36.744  20.172  1.00  0.00     0.031 A 
HETATM    3  C   LIG     1      19.372  37.431  19.451  1.00  0.00     0.039 A 
HETATM    4  C   LIG     1      19.660  38.770  19.753  1.00  0.00     0.065 A 
HETATM    5  C   LIG     1      18.961  39.416  20.779  1.00  0.00     0.039 A 
HETATM    6  C   LIG     1      17.978  38.730  21.500  1.00  0.00     0.031 A 
ENDROOT
BRANCH   1   7
HETATM    7  N   LIG     1      16.683  36.690  21.938  1.00  0.00    -0.399 N 
HETATM    8  H   LIG     1      16.049  37.199  22.594  1.00  0.00     0.156 HD
HETATM    9  H   LIG     1      16.566  35.656  21.835  1.00  0.00     0.156 HD
ENDBRANCH   1   7
BRANCH   4  10
HETATM   10  O   LIG     1      20.636  39.464  19.043  1.00  0.00    -0.361 OA
HETATM   11  H   LIG     1      20.529  40.447  18.819  1.00  0.00     0.217 HD
ENDBRANCH   4  10
TORSDOF 2
ENDMDL
MODEL 2
REMARK VINA RESULT:      -5.4      2.817      3.299
REMARK  2 active torsions:
REMARK  status: ('A' for Active; 'I' for Inactive)
REMARK    1  A    between atoms: N_1  and  C_2 
REMARK    2  A    between atoms: C_5  and  O_6 
ROOT
HETATM    1  C   LIG     1      19.525  38.681  19.724  1.00  0.00     0.025 A 
HETATM    2  C   LIG     1      19.211  37.336  19.478  1.00  0.00     0.031 A 
HETATM    3  C   LIG     1      18.258  36.680  20.265  1.00  0.00     0.039 A 
HETATM    4  C   LIG     1      17.612  37.365  21.304  1.00  0.00     0.065 A 
HETATM    5  C   LIG     1      17.924  38.707  21.551  1.00  0.00     0.039 A 
HETATM    6  C   LIG     1      18.878  39.363  20.765  1.00  0.00     0.031 A 
ENDROOT
BRANCH   1   7
HETATM    7  N   LIG     1      20.499  39.351  18.921  1.00  0.00    -0.399 N 
HETATM    8  H   LIG     1      20.312  39.556  17.914  1.00  0.00     0.156 HD
HETATM    9  H   LIG     1      21.415  39.648  19.327  1.00  0.00     0.156 HD
ENDBRANCH   1   7
BRANCH   4  10
HETATM   10  O   LIG     1      16.661  36.724  22.094  1.00  0.00    -0.361 OA
HETATM   11  H   LIG     1      15.678  36.724  21.844  1.00  0.00     0.217 HD
ENDBRANCH   4  10
TORSDOF 2
ENDMDL
MODEL 3
REMARK VINA RESULT:      -5.2      3.008      3.681
REMARK  2 active torsions:
REMARK  status: ('A' for Active; 'I' for Inactive)
REMARK    1  A    between atoms: N_1  and  C_2 
REMARK    2  A    between atoms: C_5  and  O_6 
ROOT
HETATM    1  C   LIG     1      18.056  36.967  20.596  1.00  0.00     0.025 A 
HETATM    2  C   LIG     1      17.244  36.008  21.220  1.00  0.00     0.031 A 
HETATM    3  C   LIG     1      16.514  36.344  22.365  1.00  0.00     0.039 A 
HETATM    4  C   LIG     1      16.590  37.640  22.894  1.00  0.00     0.065 A 
HETATM    5  C   LIG     1      17.400  38.597  22.273  1.00  0.00     0.039 A 
HETATM    6  C   LIG     1      18.131  38.262  21.128  1.00  0.00     0.031 A 
ENDROOT
BRANCH   1   7
HETATM    7  N   LIG     1      18.804  36.625  19.426  1.00  0.00    -0.399 N 
HETATM    8  H   LIG     1      18.625  35.728  18.920  1.00  0.00     0.156 HD
HETATM    9  H   LIG     1      19.542  37.266  19.056  1.00  0.00     0.156 HD
ENDBRANCH   1   7
BRANCH   4  10
HETATM   10  O   LIG     1      15.868  37.986  24.033  1.00  0.00    -0.361 OA
HETATM   11  H   LIG     1      14.989  38.488  23.971  1.00  0.00     0.217 HD
ENDBRANCH   4  10
TORSDOF 2
ENDMDL
MODEL 4
REMARK VINA RESULT:      -5.2      4.857      5.749
REMARK  2 active torsions:
REMARK  status: ('A' for Active; 'I' for Inactive)
REMARK    1  A    between atoms: N_1  and  C_2 
REMARK    2  A    between atoms: C_5  and  O_6 
ROOT
HETATM    1  C   LIG     1      16.895  37.733  24.013  1.00  0.00     0.025 A 
HETATM    2  C   LIG     1      17.436  38.022  25.275  1.00  0.00     0.031 A 
HETATM    3  C   LIG     1      17.908  36.988  26.091  1.00  0.00     0.039 A 
HETATM    4  C   LIG     1      17.843  35.658  25.651  1.00  0.00     0.065 A 
HETATM    5  C   LIG     1      17.303  35.369  24.393  1.00  0.00     0.039 A 
HETATM    6  C   LIG     1      16.830  36.402  23.576  1.00  0.00     0.031 A 
ENDROOT
BRANCH   1   7
HETATM    7  N   LIG     1      16.411  38.788  23.178  1.00  0.00    -0.399 N 
HETATM    8  H   LIG     1      15.960  39.634  23.594  1.00  0.00     0.156 HD
HETATM    9  H   LIG     1      16.501  38.732  22.139  1.00  0.00     0.156 HD
ENDBRANCH   1   7
BRANCH   4  10
HETATM   10  O   LIG     1      18.310  34.621  26.454  1.00  0.00    -0.361 OA
HETATM   11  H   LIG     1      17.738  33.809  26.657  1.00  0.00     0.217 HD
ENDBRANCH   4  10
TORSDOF 2
ENDMDL
MODEL 5
REMARK VINA RESULT:      -5.1      1.864      2.385
REMARK  2 active torsions:
REMARK  status: ('A' for Active; 'I' for Inactive)
REMARK    1  A    between atoms: N_1  and  C_2 
REMARK    2  A    between atoms: C_5  and  O_6 
ROOT
HETATM    1  C   LIG     1      16.973  37.644  22.803  1.00  0.00     0.025 A 
HETATM    2  C   LIG     1      16.747  36.371  22.258  1.00  0.00     0.031 A 
HETATM    3  C   LIG     1      17.344  36.008  21.046  1.00  0.00     0.039 A 
HETATM    4  C   LIG     1      18.170  36.917  20.369  1.00  0.00     0.065 A 
HETATM    5  C   LIG     1      18.396  38.187  20.910  1.00  0.00     0.039 A 
HETATM    6  C   LIG     1      17.800  38.551  22.122  1.00  0.00     0.031 A 
ENDROOT
BRANCH   1   7
HETATM    7  N   LIG     1      16.364  38.016  24.041  1.00  0.00    -0.399 N 
HETATM    8  H   LIG     1      15.548  38.670  24.061  1.00  0.00     0.156 HD
HETATM    9  H   LIG     1      16.722  37.642  24.948  1.00  0.00     0.156 HD
ENDBRANCH   1   7
BRANCH   4  10
HETATM   10  O   LIG     1      18.770  36.567  19.161  1.00  0.00    -0.361 OA
HETATM   11  H   LIG     1      18.276  36.024  18.462  1.00  0.00     0.217 HD
ENDBRANCH   4  10
TORSDOF 2
ENDMDL
MODEL 6
REMARK VINA RESULT:      -4.9      9.468     10.410
REMARK  2 active torsions:
REMARK  status: ('A' for Active; 'I' for Inactive)
REMARK    1  A    between atoms: N_1  and  C_2 
REMARK    2  A    between atoms: C_5  and  O_6 
ROOT
HETATM    1  C   LIG     1      15.192  31.810  15.728  1.00  0.00     0.025 A 
HETATM    2  C   LIG     1      15.598  31.147  14.559  1.00  0.00     0.031 A 
HETATM    3  C   LIG     1      14.785  30.160  13.992  1.00  0.00     0.039 A 
HETATM    4  C   LIG     1      13.560  29.828  14.590  1.00  0.00     0.065 A 
HETATM    5  C   LIG     1      13.155  30.487  15.755  1.00  0.00     0.039 A 
HETATM    6  C   LIG     1      13.968  31.474  16.323  1.00  0.00     0.031 A 
ENDROOT
BRANCH   1   7
HETATM    7  N   LIG     1      16.023  32.818  16.308  1.00  0.00    -0.399 N 
HETATM    8  H   LIG     1      17.064  32.743  16.267  1.00  0.00     0.156 HD
HETATM    9  H   LIG     1      15.603  33.649  16.784  1.00  0.00     0.156 HD
ENDBRANCH   1   7
BRANCH   4  10
HETATM   10  O   LIG     1      12.742  28.847  14.035  1.00  0.00    -0.361 OA
HETATM   11  H   LIG     1      13.076  27.901  13.885  1.00  0.00     0.217 HD
ENDBRANCH   4  10
TORSDOF 2
ENDMDL
MODEL 7
REMARK VINA RESULT:      -4.9      9.107      9.994
REMARK  2 active torsions:
REMARK  status: ('A' for Active; 'I' for Inactive)
REMARK    1  A    between atoms: N_1  and  C_2 
REMARK    2  A    between atoms: C_5  and  O_6 
ROOT
HETATM    1  C   LIG     1      13.497  29.932  14.761  1.00  0.00     0.025 A 
HETATM    2  C   LIG     1      14.728  30.307  14.202  1.00  0.00     0.031 A 
HETATM    3  C   LIG     1      15.513  31.286  14.821  1.00  0.00     0.039 A 
HETATM    4  C   LIG     1      15.073  31.897  16.005  1.00  0.00     0.065 A 
HETATM    5  C   LIG     1      13.846  31.524  16.563  1.00  0.00     0.039 A 
HETATM    6  C   LIG     1      13.059  30.546  15.944  1.00  0.00     0.031 A 
ENDROOT
BRANCH   1   7
HETATM    7  N   LIG     1      12.694  28.933  14.129  1.00  0.00    -0.399 N 
HETATM    8  H   LIG     1      12.862  28.662  13.135  1.00  0.00     0.156 HD
HETATM    9  H   LIG     1      11.924  28.456  14.651  1.00  0.00     0.156 HD
ENDBRANCH   1   7
BRANCH   4  10
HETATM   10  O   LIG     1      15.846  32.872  16.630  1.00  0.00    -0.361 OA
HETATM   11  H   LIG     1      15.720  33.857  16.429  1.00  0.00     0.217 HD
ENDBRANCH   4  10
TORSDOF 2
ENDMDL
MODEL 8
REMARK VINA RESULT:      -4.9      9.105     10.079
REMARK  2 active torsions:
REMARK  status: ('A' for Active; 'I' for Inactive)
REMARK    1  A    between atoms: N_1  and  C_2 
REMARK    2  A    between atoms: C_5  and  O_6 
ROOT
HETATM    1  C   LIG     1      13.499  29.933  14.762  1.00  0.00     0.025 A 
HETATM    2  C   LIG     1      13.059  30.545  15.946  1.00  0.00     0.031 A 
HETATM    3  C   LIG     1      13.844  31.524  16.564  1.00  0.00     0.039 A 
HETATM    4  C   LIG     1      15.075  31.897  16.005  1.00  0.00     0.065 A 
HETATM    5  C   LIG     1      15.514  31.287  14.825  1.00  0.00     0.039 A 
HETATM    6  C   LIG     1      14.730  30.308  14.206  1.00  0.00     0.031 A 
ENDROOT
BRANCH   1   7
HETATM    7  N   LIG     1      12.698  28.932  14.130  1.00  0.00    -0.399 N 
HETATM    8  H   LIG     1      12.210  28.201  14.695  1.00  0.00     0.156 HD
HETATM    9  H   LIG     1      12.586  28.914  13.091  1.00  0.00     0.156 HD
ENDBRANCH   1   7
BRANCH   4  10
HETATM   10  O   LIG     1      15.865  32.870  16.611  1.00  0.00    -0.361 OA
HETATM   11  H   LIG     1      15.457  33.609  17.173  1.00  0.00     0.217 HD
ENDBRANCH   4  10
TORSDOF 2
ENDMDL
MODEL 9
REMARK VINA RESULT:      -4.8      8.415      9.491
REMARK  2 active torsions:
REMARK  status: ('A' for Active; 'I' for Inactive)
REMARK    1  A    between atoms: N_1  and  C_2 
REMARK    2  A    between atoms: C_5  and  O_6 
ROOT
HETATM    1  C   LIG     1      15.760  32.492  15.706  1.00  0.00     0.025 A 
HETATM    2  C   LIG     1      14.945  32.852  16.790  1.00  0.00     0.031 A 
HETATM    3  C   LIG     1      13.802  32.104  17.089  1.00  0.00     0.039 A 
HETATM    4  C   LIG     1      13.464  30.990  16.307  1.00  0.00     0.065 A 
HETATM    5  C   LIG     1      14.276  30.630  15.226  1.00  0.00     0.039 A 
HETATM    6  C   LIG     1      15.419  31.378  14.925  1.00  0.00     0.031 A 
ENDROOT
BRANCH   1   7
HETATM    7  N   LIG     1      16.928  33.256  15.398  1.00  0.00    -0.399 N 
HETATM    8  H   LIG     1      17.776  33.204  16.007  1.00  0.00     0.156 HD
HETATM    9  H   LIG     1      16.956  33.879  14.560  1.00  0.00     0.156 HD
ENDBRANCH   1   7
BRANCH   4  10
HETATM   10  O   LIG     1      12.329  30.237  16.595  1.00  0.00    -0.361 OA
HETATM   11  H   LIG     1      11.525  30.232  15.977  1.00  0.00     0.217 HD
ENDBRANCH   4  10
TORSDOF 2
ENDMDL
MODEL 10
REMARK VINA RESULT:      -4.8      8.427      9.361
REMARK  2 active torsions:
REMARK  status: ('A' for Active; 'I' for Inactive)
REMARK    1  A    between atoms: N_1  and  C_2 
REMARK    2  A    between atoms: C_5  and  O_6 
ROOT
HETATM    1  C   LIG     1      15.824  32.400  15.717  1.00  0.00     0.025 A 
HETATM    2  C   LIG     1      15.419  31.341  14.891  1.00  0.00     0.031 A 
HETATM    3  C   LIG     1      14.258  30.619  15.190  1.00  0.00     0.039 A 
HETATM    4  C   LIG     1      13.494  30.951  16.318  1.00  0.00     0.065 A 
HETATM    5  C   LIG     1      13.897  32.006  17.144  1.00  0.00     0.039 A 
HETATM    6  C   LIG     1      15.058  32.728  16.846  1.00  0.00     0.031 A 
ENDROOT
BRANCH   1   7
HETATM    7  N   LIG     1      17.009  33.138  15.413  1.00  0.00    -0.399 N 
HETATM    8  H   LIG     1      17.916  32.647  15.243  1.00  0.00     0.156 HD
HETATM    9  H   LIG     1      16.990  34.182  15.355  1.00  0.00     0.156 HD
ENDBRANCH   1   7
BRANCH   4  10
HETATM   10  O   LIG     1      12.337  30.239  16.626  1.00  0.00    -0.361 OA
HETATM   11  H   LIG     1      11.764  30.482  17.426  1.00  0.00     0.217 HD
ENDBRANCH   4  10
TORSDOF 2
ENDMDL
MODEL 11
REMARK VINA RESULT:      -4.8      8.174      9.020
REMARK  2 active torsions:
REMARK  status: ('A' for Active; 'I' for Inactive)
REMARK    1  A    between atoms: N_1  and  C_2 
REMARK    2  A    between atoms: C_5  and  O_6 
ROOT
HETATM    1  C   LIG     1      14.221  31.713  16.689  1.00  0.00     0.025 A 
HETATM    2  C   LIG     1      13.949  30.718  15.738  1.00  0.00     0.031 A 
HETATM    3  C   LIG     1      14.701  30.647  14.561  1.00  0.00     0.039 A 
HETATM    4  C   LIG     1      15.729  31.571  14.325  1.00  0.00     0.065 A 
HETATM    5  C   LIG     1      16.001  32.564  15.272  1.00  0.00     0.039 A 
HETATM    6  C   LIG     1      15.249  32.636  16.450  1.00  0.00     0.031 A 
ENDROOT
BRANCH   1   7
HETATM    7  N   LIG     1      13.453  31.787  17.893  1.00  0.00    -0.399 N 
HETATM    8  H   LIG     1      13.874  32.162  18.773  1.00  0.00     0.156 HD
HETATM    9  H   LIG     1      12.458  31.468  17.914  1.00  0.00     0.156 HD
ENDBRANCH   1   7
BRANCH   4  10
HETATM   10  O   LIG     1      16.485  31.511  13.157  1.00  0.00    -0.361 OA
HETATM   11  H   LIG     1      16.893  30.640  12.834  1.00  0.00     0.217 HD
ENDBRANCH   4  10
TORSDOF 2
ENDMDL
MODEL 12
REMARK VINA RESULT:      -4.8      3.031      3.952
REMARK  2 active torsions:
REMARK  status: ('A' for Active; 'I' for Inactive)
REMARK    1  A    between atoms: N_1  and  C_2 
REMARK    2  A    between atoms: C_5  and  O_6 
ROOT
HETATM    1  C   LIG     1      18.293  38.553  21.119  1.00  0.00     0.025 A 
HETATM    2  C   LIG     1      17.359  38.569  22.167  1.00  0.00     0.031 A 
HETATM    3  C   LIG     1      16.591  37.433  22.443  1.00  0.00     0.039 A 
HETATM    4  C   LIG     1      16.750  36.272  21.672  1.00  0.00     0.065 A 
HETATM    5  C   LIG     1      17.680  36.254  20.627  1.00  0.00     0.039 A 
HETATM    6  C   LIG     1      18.448  37.390  20.350  1.00  0.00     0.031 A 
ENDROOT
BRANCH   1   7
HETATM    7  N   LIG     1      19.078  39.713  20.836  1.00  0.00    -0.399 N 
HETATM    8  H   LIG     1      18.632  40.583  20.466  1.00  0.00     0.156 HD
HETATM    9  H   LIG     1      20.111  39.712  20.994  1.00  0.00     0.156 HD
ENDBRANCH   1   7
BRANCH   4  10
HETATM   10  O   LIG     1      15.991  35.134  21.937  1.00  0.00    -0.361 OA
HETATM   11  H   LIG     1      15.999  34.335  21.313  1.00  0.00     0.217 HD
ENDBRANCH   4  10
TORSDOF 2
ENDMDL
MODEL 13
REMARK VINA RESULT:      -4.8      8.862      9.876
REMARK  2 active torsions:
REMARK  status: ('A' for Active; 'I' for Inactive)
REMARK    1  A    between atoms: N_1  and  C_2 
REMARK    2  A    between atoms: C_5  and  O_6 
ROOT
HETATM    1  C   LIG     1      14.834  30.754  14.461  1.00  0.00     0.025 A 
HETATM    2  C   LIG     1      15.591  31.747  15.101  1.00  0.00     0.031 A 
HETATM    3  C   LIG     1      15.217  32.211  16.367  1.00  0.00     0.039 A 
HETATM    4  C   LIG     1      14.083  31.685  17.002  1.00  0.00     0.065 A 
HETATM    5  C   LIG     1      13.327  30.695  16.365  1.00  0.00     0.039 A 
HETATM    6  C   LIG     1      13.700  30.231  15.099  1.00  0.00     0.031 A 
ENDROOT
BRANCH   1   7
HETATM    7  N   LIG     1      15.215  30.279  13.168  1.00  0.00    -0.399 N 
HETATM    8  H   LIG     1      16.104  30.599  12.722  1.00  0.00     0.156 HD
HETATM    9  H   LIG     1      14.612  29.604  12.646  1.00  0.00     0.156 HD
ENDBRANCH   1   7
BRANCH   4  10
HETATM   10  O   LIG     1      13.701  32.139  18.262  1.00  0.00    -0.361 OA
HETATM   11  H   LIG     1      13.244  31.527  18.929  1.00  0.00     0.217 HD
ENDBRANCH   4  10
TORSDOF 2
ENDMDL
MODEL 14
REMARK VINA RESULT:      -4.8      8.772      9.731
REMARK  2 active torsions:
REMARK  status: ('A' for Active; 'I' for Inactive)
REMARK    1  A    between atoms: N_1  and  C_2 
REMARK    2  A    between atoms: C_5  and  O_6 
ROOT
HETATM    1  C   LIG     1      13.954  30.245  14.895  1.00  0.00     0.025 A 
HETATM    2  C   LIG     1      12.972  30.572  15.842  1.00  0.00     0.031 A 
HETATM    3  C   LIG     1      13.167  31.650  16.713  1.00  0.00     0.039 A 
HETATM    4  C   LIG     1      14.346  32.407  16.644  1.00  0.00     0.065 A 
HETATM    5  C   LIG     1      15.326  32.080  15.701  1.00  0.00     0.039 A 
HETATM    6  C   LIG     1      15.132  31.003  14.829  1.00  0.00     0.031 A 
ENDROOT
BRANCH   1   7
HETATM    7  N   LIG     1      13.757  29.144  14.004  1.00  0.00    -0.399 N 
HETATM    8  H   LIG     1      13.994  28.169  14.298  1.00  0.00     0.156 HD
HETATM    9  H   LIG     1      13.372  29.294  13.045  1.00  0.00     0.156 HD
ENDBRANCH   1   7
BRANCH   4  10
HETATM   10  O   LIG     1      14.551  33.481  17.506  1.00  0.00    -0.361 OA
HETATM   11  H   LIG     1      14.144  33.501  18.434  1.00  0.00     0.217 HD
ENDBRANCH   4  10
TORSDOF 2
ENDMDL
MODEL 15
REMARK VINA RESULT:      -4.7      8.993      9.953
REMARK  2 active torsions:
REMARK  status: ('A' for Active; 'I' for Inactive)
REMARK    1  A    between atoms: N_1  and  C_2 
REMARK    2  A    between atoms: C_5  and  O_6 
ROOT
HETATM    1  C   LIG     1      14.173  31.774  16.446  1.00  0.00     0.025 A 
HETATM    2  C   LIG     1      15.359  32.063  15.754  1.00  0.00     0.031 A 
HETATM    3  C   LIG     1      15.727  31.300  14.641  1.00  0.00     0.039 A 
HETATM    4  C   LIG     1      14.912  30.242  14.212  1.00  0.00     0.065 A 
HETATM    5  C   LIG     1      13.729  29.953  14.901  1.00  0.00     0.039 A 
HETATM    6  C   LIG     1      13.361  30.716  16.015  1.00  0.00     0.031 A 
ENDROOT
BRANCH   1   7
HETATM    7  N   LIG     1      13.796  32.553  17.584  1.00  0.00    -0.399 N 
HETATM    8  H   LIG     1      13.613  33.578  17.494  1.00  0.00     0.156 HD
HETATM    9  H   LIG     1      13.697  32.112  18.526  1.00  0.00     0.156 HD
ENDBRANCH   1   7
BRANCH   4  10
HETATM   10  O   LIG     1      15.267  29.475  13.105  1.00  0.00    -0.361 OA
HETATM   11  H   LIG     1      14.591  28.893  12.624  1.00  0.00     0.217 HD
ENDBRANCH   4  10
TORSDOF 2
ENDMDL
MODEL 16
REMARK VINA RESULT:      -4.5      3.519      4.268
REMARK  2 active torsions:
REMARK  status: ('A' for Active; 'I' for Inactive)
REMARK    1  A    between atoms: N_1  and  C_2 
REMARK    2  A    between atoms: C_5  and  O_6 
ROOT
HETATM    1  C   LIG     1      17.478  37.661  21.614  1.00  0.00     0.025 A 
HETATM    2  C   LIG     1      17.576  36.507  20.822  1.00  0.00     0.031 A 
HETATM    3  C   LIG     1      16.525  35.584  20.790  1.00  0.00     0.039 A 
HETATM    4  C   LIG     1      15.369  35.807  21.552  1.00  0.00     0.065 A 
HETATM    5  C   LIG     1      15.270  36.956  22.343  1.00  0.00     0.039 A 
HETATM    6  C   LIG     1      16.320  37.880  22.376  1.00  0.00     0.031 A 
ENDROOT
BRANCH   1   7
HETATM    7  N   LIG     1      18.550  38.605  21.647  1.00  0.00    -0.399 N 
HETATM    8  H   LIG     1      18.372  39.623  21.492  1.00  0.00     0.156 HD
HETATM    9  H   LIG     1      19.532  38.294  21.827  1.00  0.00     0.156 HD
ENDBRANCH   1   7
BRANCH   4  10
HETATM   10  O   LIG     1      14.317  34.895  21.529  1.00  0.00    -0.361 OA
HETATM   11  H   LIG     1      13.500  35.014  22.118  1.00  0.00     0.217 HD
ENDBRANCH   4  10
TORSDOF 2
ENDMDL
MODEL 17
REMARK VINA RESULT:      -3.9      6.147      7.075
REMARK  2 active torsions:
REMARK  status: ('A' for Active; 'I' for Inactive)
REMARK    1  A    between atoms: N_1  and  C_2 
REMARK    2  A    between atoms: C_5  and  O_6 
ROOT
HETATM    1  C   LIG     1      14.221  31.834  17.693  1.00  0.00     0.025 A 
HETATM    2  C   LIG     1      14.663  31.770  19.023  1.00  0.00     0.031 A 
HETATM    3  C   LIG     1      15.315  32.866  19.601  1.00  0.00     0.039 A 
HETATM    4  C   LIG     1      15.530  34.032  18.852  1.00  0.00     0.065 A 
HETATM    5  C   LIG     1      15.090  34.096  17.525  1.00  0.00     0.039 A 
HETATM    6  C   LIG     1      14.439  33.001  16.947  1.00  0.00     0.031 A 
ENDROOT
BRANCH   1   7
HETATM    7  N   LIG     1      13.555  30.715  17.102  1.00  0.00    -0.399 N 
HETATM    8  H   LIG     1      12.937  30.097  17.674  1.00  0.00     0.156 HD
HETATM    9  H   LIG     1      13.675  30.496  16.087  1.00  0.00     0.156 HD
ENDBRANCH   1   7
BRANCH   4  10
HETATM   10  O   LIG     1      16.177  35.128  19.416  1.00  0.00    -0.361 OA
HETATM   11  H   LIG     1      16.387  35.167  20.407  1.00  0.00     0.217 HD
ENDBRANCH   4  10
TORSDOF 2
ENDMDL
MODEL 18
REMARK VINA RESULT:      -3.8     11.142     11.994
REMARK  2 active torsions:
REMARK  status: ('A' for Active; 'I' for Inactive)
REMARK    1  A    between atoms: N_1  and  C_2 
REMARK    2  A    between atoms: C_5  and  O_6 
ROOT
HETATM    1  C   LIG     1      13.269  28.116  13.801  1.00  0.00     0.025 A 
HETATM    2  C   LIG     1      14.598  27.757  13.528  1.00  0.00     0.031 A 
HETATM    3  C   LIG     1      15.640  28.644  13.818  1.00  0.00     0.039 A 
HETATM    4  C   LIG     1      15.361  29.898  14.382  1.00  0.00     0.065 A 
HETATM    5  C   LIG     1      14.037  30.257  14.655  1.00  0.00     0.039 A 
HETATM    6  C   LIG     1      12.994  29.371  14.365  1.00  0.00     0.031 A 
ENDROOT
BRANCH   1   7
HETATM    7  N   LIG     1      12.203  27.211  13.506  1.00  0.00    -0.399 N 
HETATM    8  H   LIG     1      11.563  26.875  14.260  1.00  0.00     0.156 HD
HETATM    9  H   LIG     1      12.046  26.869  12.531  1.00  0.00     0.156 HD
ENDBRANCH   1   7
BRANCH   4  10
HETATM   10  O   LIG     1      16.390  30.789  14.675  1.00  0.00    -0.361 OA
HETATM   11  H   LIG     1      16.227  31.789  14.724  1.00  0.00     0.217 HD
ENDBRANCH   4  10
TORSDOF 2
ENDMDL
MODEL 19
REMARK VINA RESULT:      -3.7      3.374      4.301
REMARK  2 active torsions:
REMARK  status: ('A' for Active; 'I' for Inactive)
REMARK    1  A    between atoms: N_1  and  C_2 
REMARK    2  A    between atoms: C_5  and  O_6 
ROOT
HETATM    1  C   LIG     1      16.884  36.134  22.525  1.00  0.00     0.025 A 
HETATM    2  C   LIG     1      17.380  36.666  21.325  1.00  0.00     0.031 A 
HETATM    3  C   LIG     1      16.961  36.144  20.097  1.00  0.00     0.039 A 
HETATM    4  C   LIG     1      16.042  35.085  20.059  1.00  0.00     0.065 A 
HETATM    5  C   LIG     1      15.546  34.553  21.255  1.00  0.00     0.039 A 
HETATM    6  C   LIG     1      15.966  35.074  22.483  1.00  0.00     0.031 A 
ENDROOT
BRANCH   1   7
HETATM    7  N   LIG     1      17.312  36.666  23.780  1.00  0.00    -0.399 N 
HETATM    8  H   LIG     1      18.068  37.385  23.826  1.00  0.00     0.156 HD
HETATM    9  H   LIG     1      16.876  36.346  24.674  1.00  0.00     0.156 HD
ENDBRANCH   1   7
BRANCH   4  10
HETATM   10  O   LIG     1      15.617  34.557  18.843  1.00  0.00    -0.361 OA
HETATM   11  H   LIG     1      14.710  34.789  18.452  1.00  0.00     0.217 HD
ENDBRANCH   4  10
TORSDOF 2
ENDMDL
MODEL 20
REMARK VINA RESULT:      -3.4      7.814      8.667
REMARK  2 active torsions:
REMARK  status: ('A' for Active; 'I' for Inactive)
REMARK    1  A    between atoms: N_1  and  C_2 
REMARK    2  A    between atoms: C_5  and  O_6 
ROOT
HETATM    1  C   LIG     1      17.485  33.300  13.168  1.00  0.00     0.025 A 
HETATM    2  C   LIG     1      16.537  32.278  13.335  1.00  0.00     0.031 A 
HETATM    3  C   LIG     1      15.907  32.099  14.571  1.00  0.00     0.039 A 
HETATM    4  C   LIG     1      16.220  32.940  15.650  1.00  0.00     0.065 A 
HETATM    5  C   LIG     1      17.165  33.958  15.484  1.00  0.00     0.039 A 
HETATM    6  C   LIG     1      17.796  34.138  14.248  1.00  0.00     0.031 A 
ENDROOT
BRANCH   1   7
HETATM    7  N   LIG     1      18.129  33.484  11.905  1.00  0.00    -0.399 N 
HETATM    8  H   LIG     1      17.572  33.537  11.023  1.00  0.00     0.156 HD
HETATM    9  H   LIG     1      19.169  33.568  11.842  1.00  0.00     0.156 HD
ENDBRANCH   1   7
BRANCH   4  10
HETATM   10  O   LIG     1      15.600  32.771  16.885  1.00  0.00    -0.361 OA
HETATM   11  H   LIG     1      16.092  32.367  17.674  1.00  0.00     0.217 HD
ENDBRANCH   4  10
TORSDOF 2
ENDMDL
