REMARK  2 active torsions:
REMARK  status: ('A' for Active; 'I' for Inactive)
REMARK    1  A    between atoms: O_1  and  C_2 
REMARK    2  A    between atoms: C_5  and  C_6 
ROOT
HETATM    1  C   LIG     1       1.621   0.151  -0.263  1.00  0.00     0.065 A 
HETATM    2  C   LIG     1       0.872  -0.887  -0.832  1.00  0.00     0.037 A 
HETATM    3  C   LIG     1      -0.501  -0.980  -0.584  1.00  0.00     0.017 A 
HETATM    4  C   LIG     1      -1.139  -0.036   0.235  1.00  0.00     0.002 A 
HETATM    5  C   LIG     1      -0.383   1.004   0.804  1.00  0.00     0.017 A 
HETATM    6  C   LIG     1       0.991   1.095   0.554  1.00  0.00     0.037 A 
ENDROOT
BRANCH   1   7
HETATM    7  O   LIG     1       2.990   0.254  -0.503  1.00  0.00    -0.361 OA
HETATM    8  H   LIG     1       3.476  -0.413  -1.090  1.00  0.00     0.217 HD
ENDBRANCH   1   7
BRANCH   4   9
HETATM    9  C   LIG     1      -2.588  -0.149   0.486  1.00  0.00     0.269 C 
HETATM   10  O   LIG     1      -3.189   0.683   1.217  1.00  0.00    -0.301 OA
ENDBRANCH   4   9
TORSDOF 2
