MODEL 1
REMARK VINA RESULT:      -3.5      0.000      0.000
REMARK  1 active torsions:
REMARK  status: ('A' for Active; 'I' for Inactive)
REMARK    1  A    between atoms: C_2  and  C_3 
ROOT
HETATM    1  C   LIG     1      18.170  34.994  26.269  1.00  0.00     0.012 C 
HETATM    2  C   LIG     1      18.267  36.515  26.304  1.00  0.00     0.065 C 
ENDROOT
BRANCH   2   3
HETATM    3  C   LIG     1      17.444  37.140  25.217  1.00  0.00     0.230 C 
HETATM    4  O   LIG     1      16.866  38.195  25.422  1.00  0.00    -0.307 OA
ENDBRANCH   2   3
TORSDOF 1
ENDMDL
MODEL 2
REMARK VINA RESULT:      -3.0      5.706      6.355
REMARK  1 active torsions:
REMARK  status: ('A' for Active; 'I' for Inactive)
REMARK    1  A    between atoms: C_2  and  C_3 
ROOT
HETATM    1  C   LIG     1      17.880  38.481  21.589  1.00  0.00     0.012 C 
HETATM    2  C   LIG     1      18.803  39.469  20.884  1.00  0.00     0.065 C 
ENDROOT
BRANCH   2   3
HETATM    3  C   LIG     1      19.666  38.780  19.868  1.00  0.00     0.230 C 
HETATM    4  O   LIG     1      20.509  39.415  19.256  1.00  0.00    -0.307 OA
ENDBRANCH   2   3
TORSDOF 1
ENDMDL
MODEL 3
REMARK VINA RESULT:      -2.9      2.906      3.999
REMARK  1 active torsions:
REMARK  status: ('A' for Active; 'I' for Inactive)
REMARK    1  A    between atoms: C_2  and  C_3 
ROOT
HETATM    1  C   LIG     1      18.301  38.920  21.682  1.00  0.00     0.012 C 
HETATM    2  C   LIG     1      16.986  38.934  22.455  1.00  0.00     0.065 C 
ENDROOT
BRANCH   2   3
HETATM    3  C   LIG     1      16.970  37.881  23.524  1.00  0.00     0.230 C 
HETATM    4  O   LIG     1      16.159  37.951  24.433  1.00  0.00    -0.307 OA
ENDBRANCH   2   3
TORSDOF 1
ENDMDL
MODEL 4
REMARK VINA RESULT:      -2.9      2.282      2.915
REMARK  1 active torsions:
REMARK  status: ('A' for Active; 'I' for Inactive)
REMARK    1  A    between atoms: C_2  and  C_3 
ROOT
HETATM    1  C   LIG     1      16.888  35.277  22.437  1.00  0.00     0.012 C 
HETATM    2  C   LIG     1      16.879  36.784  22.668  1.00  0.00     0.065 C 
ENDROOT
BRANCH   2   3
HETATM    3  C   LIG     1      16.991  37.113  24.127  1.00  0.00     0.230 C 
HETATM    4  O   LIG     1      16.357  38.048  24.590  1.00  0.00    -0.307 OA
ENDBRANCH   2   3
TORSDOF 1
ENDMDL
MODEL 5
REMARK VINA RESULT:      -2.8      1.453      1.672
REMARK  1 active torsions:
REMARK  status: ('A' for Active; 'I' for Inactive)
REMARK    1  A    between atoms: C_2  and  C_3 
ROOT
HETATM    1  C   LIG     1      18.387  36.625  26.300  1.00  0.00     0.012 C 
HETATM    2  C   LIG     1      17.612  37.773  25.661  1.00  0.00     0.065 C 
ENDROOT
BRANCH   2   3
HETATM    3  C   LIG     1      16.815  37.304  24.480  1.00  0.00     0.230 C 
HETATM    4  O   LIG     1      17.283  37.393  23.357  1.00  0.00    -0.307 OA
ENDBRANCH   2   3
TORSDOF 1
ENDMDL
MODEL 6
REMARK VINA RESULT:      -2.7     11.660     11.921
REMARK  1 active torsions:
REMARK  status: ('A' for Active; 'I' for Inactive)
REMARK    1  A    between atoms: C_2  and  C_3 
ROOT
HETATM    1  C   LIG     1      14.395  30.303  14.968  1.00  0.00     0.012 C 
HETATM    2  C   LIG     1      13.119  30.578  15.757  1.00  0.00     0.065 C 
ENDROOT
BRANCH   2   3
HETATM    3  C   LIG     1      13.346  31.610  16.821  1.00  0.00     0.230 C 
HETATM    4  O   LIG     1      13.864  31.289  17.878  1.00  0.00    -0.307 OA
ENDBRANCH   2   3
TORSDOF 1
ENDMDL
MODEL 7
REMARK VINA RESULT:      -2.6      8.679      8.854
REMARK  1 active torsions:
REMARK  status: ('A' for Active; 'I' for Inactive)
REMARK    1  A    between atoms: C_2  and  C_3 
ROOT
HETATM    1  C   LIG     1      14.853  31.173  20.113  1.00  0.00     0.012 C 
HETATM    2  C   LIG     1      15.381  32.448  19.463  1.00  0.00     0.065 C 
ENDROOT
BRANCH   2   3
HETATM    3  C   LIG     1      14.994  32.524  18.016  1.00  0.00     0.230 C 
HETATM    4  O   LIG     1      15.850  32.710  17.167  1.00  0.00    -0.307 OA
ENDBRANCH   2   3
TORSDOF 1
ENDMDL
MODEL 8
REMARK VINA RESULT:      -2.6      6.181      6.528
REMARK  1 active torsions:
REMARK  status: ('A' for Active; 'I' for Inactive)
REMARK    1  A    between atoms: C_2  and  C_3 
ROOT
HETATM    1  C   LIG     1      19.117  39.298  20.565  1.00  0.00     0.012 C 
HETATM    2  C   LIG     1      19.820  38.405  19.547  1.00  0.00     0.065 C 
ENDROOT
BRANCH   2   3
HETATM    3  C   LIG     1      19.172  37.055  19.466  1.00  0.00     0.230 C 
HETATM    4  O   LIG     1      18.295  36.753  20.258  1.00  0.00    -0.307 OA
ENDBRANCH   2   3
TORSDOF 1
ENDMDL
MODEL 9
REMARK VINA RESULT:      -2.6      4.480      4.782
REMARK  1 active torsions:
REMARK  status: ('A' for Active; 'I' for Inactive)
REMARK    1  A    between atoms: C_2  and  C_3 
ROOT
HETATM    1  C   LIG     1      16.992  35.212  23.180  1.00  0.00     0.012 C 
HETATM    2  C   LIG     1      16.900  35.069  21.664  1.00  0.00     0.065 C 
ENDROOT
BRANCH   2   3
HETATM    3  C   LIG     1      17.422  36.291  20.968  1.00  0.00     0.230 C 
HETATM    4  O   LIG     1      17.858  36.203  19.831  1.00  0.00    -0.307 OA
ENDBRANCH   2   3
TORSDOF 1
ENDMDL
MODEL 10
REMARK VINA RESULT:      -2.6     10.810     11.086
REMARK  1 active torsions:
REMARK  status: ('A' for Active; 'I' for Inactive)
REMARK    1  A    between atoms: C_2  and  C_3 
ROOT
HETATM    1  C   LIG     1      12.979  30.640  15.960  1.00  0.00     0.012 C 
HETATM    2  C   LIG     1      14.251  31.432  16.241  1.00  0.00     0.065 C 
ENDROOT
BRANCH   2   3
HETATM    3  C   LIG     1      14.239  32.012  17.624  1.00  0.00     0.230 C 
HETATM    4  O   LIG     1      14.146  31.274  18.592  1.00  0.00    -0.307 OA
ENDBRANCH   2   3
TORSDOF 1
ENDMDL
MODEL 11
REMARK VINA RESULT:      -2.5     18.226     18.621
REMARK  1 active torsions:
REMARK  status: ('A' for Active; 'I' for Inactive)
REMARK    1  A    between atoms: C_2  and  C_3 
ROOT
HETATM    1  C   LIG     1       3.912  44.582  14.181  1.00  0.00     0.012 C 
HETATM    2  C   LIG     1       4.239  44.223  15.627  1.00  0.00     0.065 C 
ENDROOT
BRANCH   2   3
HETATM    3  C   LIG     1       3.421  43.057  16.099  1.00  0.00     0.230 C 
HETATM    4  O   LIG     1       3.688  42.518  17.160  1.00  0.00    -0.307 OA
ENDBRANCH   2   3
TORSDOF 1
ENDMDL
MODEL 12
REMARK VINA RESULT:      -2.5      9.875     10.155
REMARK  1 active torsions:
REMARK  status: ('A' for Active; 'I' for Inactive)
REMARK    1  A    between atoms: C_2  and  C_3 
ROOT
HETATM    1  C   LIG     1      13.780  31.544  17.054  1.00  0.00     0.012 C 
HETATM    2  C   LIG     1      14.788  32.586  17.527  1.00  0.00     0.065 C 
ENDROOT
BRANCH   2   3
HETATM    3  C   LIG     1      15.394  33.323  16.369  1.00  0.00     0.230 C 
HETATM    4  O   LIG     1      15.713  34.494  16.495  1.00  0.00    -0.307 OA
ENDBRANCH   2   3
TORSDOF 1
ENDMDL
MODEL 13
REMARK VINA RESULT:      -2.5      4.700      5.185
REMARK  1 active torsions:
REMARK  status: ('A' for Active; 'I' for Inactive)
REMARK    1  A    between atoms: C_2  and  C_3 
ROOT
HETATM    1  C   LIG     1      16.949  36.550  22.138  1.00  0.00     0.012 C 
HETATM    2  C   LIG     1      16.592  35.085  21.911  1.00  0.00     0.065 C 
ENDROOT
BRANCH   2   3
HETATM    3  C   LIG     1      15.232  34.942  21.296  1.00  0.00     0.230 C 
HETATM    4  O   LIG     1      14.504  34.023  21.636  1.00  0.00    -0.307 OA
ENDBRANCH   2   3
TORSDOF 1
ENDMDL
MODEL 14
REMARK VINA RESULT:      -2.5      5.152      5.479
REMARK  1 active torsions:
REMARK  status: ('A' for Active; 'I' for Inactive)
REMARK    1  A    between atoms: C_2  and  C_3 
ROOT
HETATM    1  C   LIG     1      19.006  36.881  19.501  1.00  0.00     0.012 C 
HETATM    2  C   LIG     1      18.174  37.322  20.701  1.00  0.00     0.065 C 
ENDROOT
BRANCH   2   3
HETATM    3  C   LIG     1      18.389  38.774  21.011  1.00  0.00     0.230 C 
HETATM    4  O   LIG     1      18.970  39.096  22.035  1.00  0.00    -0.307 OA
ENDBRANCH   2   3
TORSDOF 1
ENDMDL
MODEL 15
REMARK VINA RESULT:      -2.5      7.492      7.739
REMARK  1 active torsions:
REMARK  status: ('A' for Active; 'I' for Inactive)
REMARK    1  A    between atoms: C_2  and  C_3 
ROOT
HETATM    1  C   LIG     1      14.868  32.225  18.365  1.00  0.00     0.012 C 
HETATM    2  C   LIG     1      15.270  32.226  19.836  1.00  0.00     0.065 C 
ENDROOT
BRANCH   2   3
HETATM    3  C   LIG     1      15.548  33.616  20.326  1.00  0.00     0.230 C 
HETATM    4  O   LIG     1      15.901  34.478  19.538  1.00  0.00    -0.307 OA
ENDBRANCH   2   3
TORSDOF 1
ENDMDL
MODEL 16
REMARK VINA RESULT:      -2.4      4.000      4.712
REMARK  1 active torsions:
REMARK  status: ('A' for Active; 'I' for Inactive)
REMARK    1  A    between atoms: C_2  and  C_3 
ROOT
HETATM    1  C   LIG     1      17.233  37.823  23.295  1.00  0.00     0.012 C 
HETATM    2  C   LIG     1      17.241  38.916  22.231  1.00  0.00     0.065 C 
ENDROOT
BRANCH   2   3
HETATM    3  C   LIG     1      18.317  38.679  21.214  1.00  0.00     0.230 C 
HETATM    4  O   LIG     1      18.873  39.628  20.685  1.00  0.00    -0.307 OA
ENDBRANCH   2   3
TORSDOF 1
ENDMDL
MODEL 17
REMARK VINA RESULT:      -2.4     14.261     14.561
REMARK  1 active torsions:
REMARK  status: ('A' for Active; 'I' for Inactive)
REMARK    1  A    between atoms: C_2  and  C_3 
ROOT
HETATM    1  C   LIG     1      22.520  35.155  13.133  1.00  0.00     0.012 C 
HETATM    2  C   LIG     1      21.508  34.087  12.729  1.00  0.00     0.065 C 
ENDROOT
BRANCH   2   3
HETATM    3  C   LIG     1      20.805  34.455  11.456  1.00  0.00     0.230 C 
HETATM    4  O   LIG     1      21.364  35.164  10.636  1.00  0.00    -0.307 OA
ENDBRANCH   2   3
TORSDOF 1
ENDMDL
MODEL 18
REMARK VINA RESULT:      -2.4     13.475     13.778
REMARK  1 active torsions:
REMARK  status: ('A' for Active; 'I' for Inactive)
REMARK    1  A    between atoms: C_2  and  C_3 
ROOT
HETATM    1  C   LIG     1      22.309  34.868  12.975  1.00  0.00     0.012 C 
HETATM    2  C   LIG     1      21.238  34.307  12.045  1.00  0.00     0.065 C 
ENDROOT
BRANCH   2   3
HETATM    3  C   LIG     1      20.023  33.873  12.811  1.00  0.00     0.230 C 
HETATM    4  O   LIG     1      19.018  34.564  12.799  1.00  0.00    -0.307 OA
ENDBRANCH   2   3
TORSDOF 1
ENDMDL
MODEL 19
REMARK VINA RESULT:      -2.4      4.613      4.981
REMARK  1 active torsions:
REMARK  status: ('A' for Active; 'I' for Inactive)
REMARK    1  A    between atoms: C_2  and  C_3 
ROOT
HETATM    1  C   LIG     1      15.890  34.248  20.719  1.00  0.00     0.012 C 
HETATM    2  C   LIG     1      16.757  35.089  21.650  1.00  0.00     0.065 C 
ENDROOT
BRANCH   2   3
HETATM    3  C   LIG     1      17.431  36.206  20.909  1.00  0.00     0.230 C 
HETATM    4  O   LIG     1      17.487  37.319  21.407  1.00  0.00    -0.307 OA
ENDBRANCH   2   3
TORSDOF 1
ENDMDL
MODEL 20
REMARK VINA RESULT:      -2.4     11.675     11.968
REMARK  1 active torsions:
REMARK  status: ('A' for Active; 'I' for Inactive)
REMARK    1  A    between atoms: C_2  and  C_3 
ROOT
HETATM    1  C   LIG     1      15.307  30.783  14.044  1.00  0.00     0.012 C 
HETATM    2  C   LIG     1      16.060  32.099  14.203  1.00  0.00     0.065 C 
ENDROOT
BRANCH   2   3
HETATM    3  C   LIG     1      15.960  32.619  15.607  1.00  0.00     0.230 C 
HETATM    4  O   LIG     1      16.147  33.804  15.831  1.00  0.00    -0.307 OA
ENDBRANCH   2   3
TORSDOF 1
ENDMDL
