MODEL 1
REMARK VINA RESULT:      -5.8      0.000      0.000
REMARK  4 active torsions:
REMARK  status: ('A' for Active; 'I' for Inactive)
REMARK    1  A    between atoms: C_4  and  C_5 
REMARK    2  A    between atoms: C_5  and  O_6 
REMARK    3  A    between atoms: C_10  and  C_12 
REMARK    4  A    between atoms: C_12  and  O_13 
ROOT
HETATM    1  C   LIG     1      18.196  37.812  23.193  1.00  0.00     0.017 C 
HETATM    2  C   LIG     1      17.156  37.598  22.046  1.00  0.00    -0.017 C 
HETATM    3  C   LIG     1      15.916  38.471  22.390  1.00  0.00     0.017 C 
HETATM    4  C   LIG     1      17.783  37.991  20.683  1.00  0.00     0.092 C 
HETATM    5  C   LIG     1      18.626  36.774  20.264  1.00  0.00     0.017 C 
HETATM    6  C   LIG     1      18.078  35.568  21.037  1.00  0.00     0.022 C 
HETATM    7  C   LIG     1      16.842  36.060  21.827  1.00  0.00     0.049 C 
HETATM    8  C   LIG     1      16.688  35.283  23.161  1.00  0.00     0.027 C 
ENDROOT
BRANCH   7   9
HETATM    9  C   LIG     1      15.600  35.763  20.967  1.00  0.00     0.149 C 
HETATM   10  O   LIG     1      15.696  35.339  19.787  1.00  0.00    -0.649 OA
BRANCH   9  11
HETATM   11  O   LIG     1      14.315  35.924  21.490  1.00  0.00    -0.776 OA
HETATM   12  H   LIG     1      13.977  35.389  22.279  1.00  0.00     0.167 HD
ENDBRANCH   9  11
ENDBRANCH   7   9
BRANCH   4  13
HETATM   13  C   LIG     1      18.529  39.309  20.670  1.00  0.00     0.144 C 
HETATM   14  O   LIG     1      19.051  39.754  19.613  1.00  0.00    -0.650 OA
BRANCH  13  15
HETATM   15  O   LIG     1      18.622  40.050  21.845  1.00  0.00    -0.776 OA
HETATM   16  H   LIG     1      18.493  41.054  21.837  1.00  0.00     0.167 HD
ENDBRANCH  13  15
ENDBRANCH   4  13
TORSDOF 4
ENDMDL
MODEL 2
REMARK VINA RESULT:      -5.6      2.109      3.545
REMARK  4 active torsions:
REMARK  status: ('A' for Active; 'I' for Inactive)
REMARK    1  A    between atoms: C_4  and  C_5 
REMARK    2  A    between atoms: C_5  and  O_6 
REMARK    3  A    between atoms: C_10  and  C_12 
REMARK    4  A    between atoms: C_12  and  O_13 
ROOT
HETATM    1  C   LIG     1      16.002  36.291  20.552  1.00  0.00     0.017 C 
HETATM    2  C   LIG     1      17.092  36.500  21.653  1.00  0.00    -0.017 C 
HETATM    3  C   LIG     1      17.453  35.093  22.207  1.00  0.00     0.017 C 
HETATM    4  C   LIG     1      18.326  37.219  21.047  1.00  0.00     0.092 C 
HETATM    5  C   LIG     1      17.946  38.710  21.017  1.00  0.00     0.017 C 
HETATM    6  C   LIG     1      16.820  38.901  22.041  1.00  0.00     0.022 C 
HETATM    7  C   LIG     1      16.617  37.540  22.750  1.00  0.00     0.049 C 
HETATM    8  C   LIG     1      15.134  37.344  23.162  1.00  0.00     0.027 C 
ENDROOT
BRANCH   7   9
HETATM    9  C   LIG     1      17.460  37.564  24.038  1.00  0.00     0.149 C 
HETATM   10  O   LIG     1      18.454  38.324  24.167  1.00  0.00    -0.649 OA
BRANCH   9  11
HETATM   11  O   LIG     1      17.121  36.758  25.127  1.00  0.00    -0.776 OA
HETATM   12  H   LIG     1      17.800  36.455  25.813  1.00  0.00     0.167 HD
ENDBRANCH   9  11
ENDBRANCH   7   9
BRANCH   4  13
HETATM   13  C   LIG     1      18.811  36.666  19.724  1.00  0.00     0.144 C 
HETATM   14  O   LIG     1      19.960  36.160  19.608  1.00  0.00    -0.650 OA
BRANCH  13  15
HETATM   15  O   LIG     1      17.964  36.699  18.620  1.00  0.00    -0.776 OA
HETATM   16  H   LIG     1      16.959  36.653  18.735  1.00  0.00     0.167 HD
ENDBRANCH  13  15
ENDBRANCH   4  13
TORSDOF 4
ENDMDL
MODEL 3
REMARK VINA RESULT:      -5.4      1.344      4.369
REMARK  4 active torsions:
REMARK  status: ('A' for Active; 'I' for Inactive)
REMARK    1  A    between atoms: C_4  and  C_5 
REMARK    2  A    between atoms: C_5  and  O_6 
REMARK    3  A    between atoms: C_10  and  C_12 
REMARK    4  A    between atoms: C_12  and  O_13 
ROOT
HETATM    1  C   LIG     1      17.084  35.013  23.117  1.00  0.00     0.017 C 
HETATM    2  C   LIG     1      17.138  36.327  22.271  1.00  0.00    -0.017 C 
HETATM    3  C   LIG     1      18.267  36.143  21.219  1.00  0.00     0.017 C 
HETATM    4  C   LIG     1      15.761  36.585  21.606  1.00  0.00     0.092 C 
HETATM    5  C   LIG     1      14.898  37.226  22.707  1.00  0.00     0.017 C 
HETATM    6  C   LIG     1      15.865  37.809  23.745  1.00  0.00     0.022 C 
HETATM    7  C   LIG     1      17.297  37.605  23.195  1.00  0.00     0.049 C 
HETATM    8  C   LIG     1      18.311  37.390  24.349  1.00  0.00     0.027 C 
ENDROOT
BRANCH   7   9
HETATM    9  C   LIG     1      17.693  38.898  22.459  1.00  0.00     0.149 C 
HETATM   10  O   LIG     1      16.833  39.715  22.042  1.00  0.00    -0.649 OA
BRANCH   9  11
HETATM   11  O   LIG     1      19.037  39.223  22.262  1.00  0.00    -0.776 OA
HETATM   12  H   LIG     1      19.404  40.150  22.431  1.00  0.00     0.167 HD
ENDBRANCH   9  11
ENDBRANCH   7   9
BRANCH   4  13
HETATM   13  C   LIG     1      15.133  35.383  20.933  1.00  0.00     0.144 C 
HETATM   14  O   LIG     1      15.534  34.980  19.808  1.00  0.00    -0.650 OA
BRANCH  13  15
HETATM   15  O   LIG     1      14.106  34.700  21.578  1.00  0.00    -0.776 OA
HETATM   16  H   LIG     1      13.944  33.716  21.400  1.00  0.00     0.167 HD
ENDBRANCH  13  15
ENDBRANCH   4  13
TORSDOF 4
ENDMDL
MODEL 4
REMARK VINA RESULT:      -5.3      2.293      3.574
REMARK  4 active torsions:
REMARK  status: ('A' for Active; 'I' for Inactive)
REMARK    1  A    between atoms: C_4  and  C_5 
REMARK    2  A    between atoms: C_5  and  O_6 
REMARK    3  A    between atoms: C_10  and  C_12 
REMARK    4  A    between atoms: C_12  and  O_13 
ROOT
HETATM    1  C   LIG     1      14.968  37.307  23.359  1.00  0.00     0.017 C 
HETATM    2  C   LIG     1      16.392  37.490  22.740  1.00  0.00    -0.017 C 
HETATM    3  C   LIG     1      16.502  38.973  22.286  1.00  0.00     0.017 C 
HETATM    4  C   LIG     1      17.475  37.121  23.786  1.00  0.00     0.092 C 
HETATM    5  C   LIG     1      17.561  35.585  23.749  1.00  0.00     0.017 C 
HETATM    6  C   LIG     1      16.988  35.141  22.397  1.00  0.00     0.022 C 
HETATM    7  C   LIG     1      16.668  36.427  21.597  1.00  0.00     0.049 C 
HETATM    8  C   LIG     1      15.445  36.214  20.667  1.00  0.00     0.027 C 
ENDROOT
BRANCH   7   9
HETATM    9  C   LIG     1      17.886  36.727  20.706  1.00  0.00     0.149 C 
HETATM   10  O   LIG     1      18.205  35.981  19.744  1.00  0.00    -0.649 OA
BRANCH   9  11
HETATM   11  O   LIG     1      18.663  37.868  20.920  1.00  0.00    -0.776 OA
HETATM   12  H   LIG     1      19.557  37.838  21.391  1.00  0.00     0.167 HD
ENDBRANCH   9  11
ENDBRANCH   7   9
BRANCH   4  13
HETATM   13  C   LIG     1      17.268  37.707  25.167  1.00  0.00     0.144 C 
HETATM   14  O   LIG     1      17.019  38.932  25.326  1.00  0.00    -0.650 OA
BRANCH  13  15
HETATM   15  O   LIG     1      17.334  36.872  26.278  1.00  0.00    -0.776 OA
HETATM   16  H   LIG     1      16.512  36.688  26.840  1.00  0.00     0.167 HD
ENDBRANCH  13  15
ENDBRANCH   4  13
TORSDOF 4
ENDMDL
MODEL 5
REMARK VINA RESULT:      -4.9      1.680      4.334
REMARK  4 active torsions:
REMARK  status: ('A' for Active; 'I' for Inactive)
REMARK    1  A    between atoms: C_4  and  C_5 
REMARK    2  A    between atoms: C_5  and  O_6 
REMARK    3  A    between atoms: C_10  and  C_12 
REMARK    4  A    between atoms: C_12  and  O_13 
ROOT
HETATM    1  C   LIG     1      15.289  37.392  22.246  1.00  0.00     0.017 C 
HETATM    2  C   LIG     1      16.769  37.223  22.718  1.00  0.00    -0.017 C 
HETATM    3  C   LIG     1      16.737  36.357  24.009  1.00  0.00     0.017 C 
HETATM    4  C   LIG     1      17.611  36.561  21.596  1.00  0.00     0.092 C 
HETATM    5  C   LIG     1      17.959  37.707  20.629  1.00  0.00     0.017 C 
HETATM    6  C   LIG     1      17.816  39.013  21.419  1.00  0.00     0.022 C 
HETATM    7  C   LIG     1      17.490  38.625  22.881  1.00  0.00     0.049 C 
HETATM    8  C   LIG     1      16.585  39.691  23.552  1.00  0.00     0.027 C 
ENDROOT
BRANCH   7   9
HETATM    9  C   LIG     1      18.821  38.590  23.654  1.00  0.00     0.149 C 
HETATM   10  O   LIG     1      18.932  38.002  24.760  1.00  0.00    -0.649 OA
BRANCH   9  11
HETATM   11  O   LIG     1      19.967  39.189  23.126  1.00  0.00    -0.776 OA
HETATM   12  H   LIG     1      20.230  40.143  23.337  1.00  0.00     0.167 HD
ENDBRANCH   9  11
ENDBRANCH   7   9
BRANCH   4  13
HETATM   13  C   LIG     1      16.978  35.353  20.940  1.00  0.00     0.144 C 
HETATM   14  O   LIG     1      16.745  34.301  21.594  1.00  0.00    -0.650 OA
BRANCH  13  15
HETATM   15  O   LIG     1      16.629  35.413  19.594  1.00  0.00    -0.776 OA
HETATM   16  H   LIG     1      16.022  36.146  19.247  1.00  0.00     0.167 HD
ENDBRANCH  13  15
ENDBRANCH   4  13
TORSDOF 4
ENDMDL
MODEL 6
REMARK VINA RESULT:      -4.6     18.104     19.287
REMARK  4 active torsions:
REMARK  status: ('A' for Active; 'I' for Inactive)
REMARK    1  A    between atoms: C_4  and  C_5 
REMARK    2  A    between atoms: C_5  and  O_6 
REMARK    3  A    between atoms: C_10  and  C_12 
REMARK    4  A    between atoms: C_12  and  O_13 
ROOT
HETATM    1  C   LIG     1      28.706  29.716  36.925  1.00  0.00     0.017 C 
HETATM    2  C   LIG     1      27.601  28.979  36.101  1.00  0.00    -0.017 C 
HETATM    3  C   LIG     1      27.236  27.687  36.885  1.00  0.00     0.017 C 
HETATM    4  C   LIG     1      26.374  29.908  35.909  1.00  0.00     0.092 C 
HETATM    5  C   LIG     1      26.753  30.834  34.739  1.00  0.00     0.017 C 
HETATM    6  C   LIG     1      27.864  30.126  33.955  1.00  0.00     0.022 C 
HETATM    7  C   LIG     1      28.061  28.734  34.604  1.00  0.00     0.049 C 
HETATM    8  C   LIG     1      29.538  28.274  34.496  1.00  0.00     0.027 C 
ENDROOT
BRANCH   7   9
HETATM    9  C   LIG     1      27.201  27.734  33.810  1.00  0.00     0.149 C 
HETATM   10  O   LIG     1      27.606  26.572  33.548  1.00  0.00    -0.649 OA
BRANCH   9  11
HETATM   11  O   LIG     1      25.917  28.079  33.383  1.00  0.00    -0.776 OA
HETATM   12  H   LIG     1      25.385  27.509  32.738  1.00  0.00     0.167 HD
ENDBRANCH   9  11
ENDBRANCH   7   9
BRANCH   4  13
HETATM   13  C   LIG     1      25.907  30.627  37.156  1.00  0.00     0.144 C 
HETATM   14  O   LIG     1      26.214  31.831  37.370  1.00  0.00    -0.650 OA
BRANCH  13  15
HETATM   15  O   LIG     1      25.108  29.951  38.074  1.00  0.00    -0.776 OA
HETATM   16  H   LIG     1      24.222  30.338  38.375  1.00  0.00     0.167 HD
ENDBRANCH  13  15
ENDBRANCH   4  13
TORSDOF 4
ENDMDL
MODEL 7
REMARK VINA RESULT:      -4.6      1.725      2.589
REMARK  4 active torsions:
REMARK  status: ('A' for Active; 'I' for Inactive)
REMARK    1  A    between atoms: C_4  and  C_5 
REMARK    2  A    between atoms: C_5  and  O_6 
REMARK    3  A    between atoms: C_10  and  C_12 
REMARK    4  A    between atoms: C_12  and  O_13 
ROOT
HETATM    1  C   LIG     1      19.483  38.357  22.289  1.00  0.00     0.017 C 
HETATM    2  C   LIG     1      18.006  38.321  21.780  1.00  0.00    -0.017 C 
HETATM    3  C   LIG     1      17.662  39.753  21.284  1.00  0.00     0.017 C 
HETATM    4  C   LIG     1      17.859  37.265  20.654  1.00  0.00     0.092 C 
HETATM    5  C   LIG     1      17.734  35.916  21.383  1.00  0.00     0.017 C 
HETATM    6  C   LIG     1      17.274  36.227  22.813  1.00  0.00     0.022 C 
HETATM    7  C   LIG     1      17.025  37.752  22.887  1.00  0.00     0.049 C 
HETATM    8  C   LIG     1      17.338  38.298  24.305  1.00  0.00     0.027 C 
ENDROOT
BRANCH   7   9
HETATM    9  C   LIG     1      15.527  37.986  22.617  1.00  0.00     0.149 C 
HETATM   10  O   LIG     1      14.730  37.031  22.430  1.00  0.00    -0.649 OA
BRANCH   9  11
HETATM   11  O   LIG     1      14.998  39.278  22.606  1.00  0.00    -0.776 OA
HETATM   12  H   LIG     1      15.400  40.037  23.141  1.00  0.00     0.167 HD
ENDBRANCH   9  11
ENDBRANCH   7   9
BRANCH   4  13
HETATM   13  C   LIG     1      18.932  37.306  19.586  1.00  0.00     0.144 C 
HETATM   14  O   LIG     1      19.768  36.371  19.462  1.00  0.00    -0.650 OA
BRANCH  13  15
HETATM   15  O   LIG     1      18.983  38.389  18.713  1.00  0.00    -0.776 OA
HETATM   16  H   LIG     1      18.342  39.167  18.812  1.00  0.00     0.167 HD
ENDBRANCH  13  15
ENDBRANCH   4  13
TORSDOF 4
ENDMDL
MODEL 8
REMARK VINA RESULT:      -4.4     18.600     19.950
REMARK  4 active torsions:
REMARK  status: ('A' for Active; 'I' for Inactive)
REMARK    1  A    between atoms: C_4  and  C_5 
REMARK    2  A    between atoms: C_5  and  O_6 
REMARK    3  A    between atoms: C_10  and  C_12 
REMARK    4  A    between atoms: C_12  and  O_13 
ROOT
HETATM    1  C   LIG     1      28.980  29.695  35.229  1.00  0.00     0.017 C 
HETATM    2  C   LIG     1      27.540  29.880  35.808  1.00  0.00    -0.017 C 
HETATM    3  C   LIG     1      26.792  30.858  34.859  1.00  0.00     0.017 C 
HETATM    4  C   LIG     1      26.828  28.506  35.905  1.00  0.00     0.092 C 
HETATM    5  C   LIG     1      27.361  27.870  37.201  1.00  0.00     0.017 C 
HETATM    6  C   LIG     1      27.899  29.015  38.069  1.00  0.00     0.022 C 
HETATM    7  C   LIG     1      27.579  30.334  37.326  1.00  0.00     0.049 C 
HETATM    8  C   LIG     1      28.665  31.406  37.604  1.00  0.00     0.027 C 
ENDROOT
BRANCH   7   9
HETATM    9  C   LIG     1      26.246  30.864  37.885  1.00  0.00     0.149 C 
HETATM   10  O   LIG     1      26.067  32.084  38.129  1.00  0.00    -0.649 OA
BRANCH   9  11
HETATM   11  O   LIG     1      25.173  29.998  38.108  1.00  0.00    -0.776 OA
HETATM   12  H   LIG     1      24.470  29.810  37.405  1.00  0.00     0.167 HD
ENDBRANCH   9  11
ENDBRANCH   7   9
BRANCH   4  13
HETATM   13  C   LIG     1      26.945  27.629  34.678  1.00  0.00     0.144 C 
HETATM   14  O   LIG     1      27.716  26.632  34.657  1.00  0.00    -0.650 OA
BRANCH  13  15
HETATM   15  O   LIG     1      26.172  27.918  33.557  1.00  0.00    -0.776 OA
HETATM   16  H   LIG     1      26.563  28.428  32.774  1.00  0.00     0.167 HD
ENDBRANCH  13  15
ENDBRANCH   4  13
TORSDOF 4
ENDMDL
MODEL 9
REMARK VINA RESULT:      -4.4      1.725      3.926
REMARK  4 active torsions:
REMARK  status: ('A' for Active; 'I' for Inactive)
REMARK    1  A    between atoms: C_4  and  C_5 
REMARK    2  A    between atoms: C_5  and  O_6 
REMARK    3  A    between atoms: C_10  and  C_12 
REMARK    4  A    between atoms: C_12  and  O_13 
ROOT
HETATM    1  C   LIG     1      18.127  35.877  21.869  1.00  0.00     0.017 C 
HETATM    2  C   LIG     1      17.669  36.959  20.837  1.00  0.00    -0.017 C 
HETATM    3  C   LIG     1      16.678  36.264  19.862  1.00  0.00     0.017 C 
HETATM    4  C   LIG     1      17.014  38.154  21.578  1.00  0.00     0.092 C 
HETATM    5  C   LIG     1      18.192  39.007  22.081  1.00  0.00     0.017 C 
HETATM    6  C   LIG     1      19.405  38.641  21.218  1.00  0.00     0.022 C 
HETATM    7  C   LIG     1      18.909  37.652  20.135  1.00  0.00     0.049 C 
HETATM    8  C   LIG     1      20.024  36.644  19.751  1.00  0.00     0.027 C 
ENDROOT
BRANCH   7   9
HETATM    9  C   LIG     1      18.573  38.478  18.880  1.00  0.00     0.149 C 
HETATM   10  O   LIG     1      18.509  39.734  18.909  1.00  0.00    -0.649 OA
BRANCH   9  11
HETATM   11  O   LIG     1      18.361  37.851  17.650  1.00  0.00    -0.776 OA
HETATM   12  H   LIG     1      19.080  37.783  16.942  1.00  0.00     0.167 HD
ENDBRANCH   9  11
ENDBRANCH   7   9
BRANCH   4  13
HETATM   13  C   LIG     1      16.006  37.780  22.643  1.00  0.00     0.144 C 
HETATM   14  O   LIG     1      14.940  37.173  22.351  1.00  0.00    -0.650 OA
BRANCH  13  15
HETATM   15  O   LIG     1      16.271  38.095  23.973  1.00  0.00    -0.776 OA
HETATM   16  H   LIG     1      15.528  38.385  24.596  1.00  0.00     0.167 HD
ENDBRANCH  13  15
ENDBRANCH   4  13
TORSDOF 4
ENDMDL
MODEL 10
REMARK VINA RESULT:      -4.3     16.078     17.703
REMARK  4 active torsions:
REMARK  status: ('A' for Active; 'I' for Inactive)
REMARK    1  A    between atoms: C_4  and  C_5 
REMARK    2  A    between atoms: C_5  and  O_6 
REMARK    3  A    between atoms: C_10  and  C_12 
REMARK    4  A    between atoms: C_12  and  O_13 
ROOT
HETATM    1  C   LIG     1      22.350  22.637  21.267  1.00  0.00     0.017 C 
HETATM    2  C   LIG     1      23.768  22.064  20.946  1.00  0.00    -0.017 C 
HETATM    3  C   LIG     1      24.745  23.272  20.894  1.00  0.00     0.017 C 
HETATM    4  C   LIG     1      24.179  21.031  22.028  1.00  0.00     0.092 C 
HETATM    5  C   LIG     1      23.466  19.728  21.629  1.00  0.00     0.017 C 
HETATM    6  C   LIG     1      23.134  19.843  20.136  1.00  0.00     0.022 C 
HETATM    7  C   LIG     1      23.751  21.172  19.637  1.00  0.00     0.049 C 
HETATM    8  C   LIG     1      22.895  21.790  18.500  1.00  0.00     0.027 C 
ENDROOT
BRANCH   7   9
HETATM    9  C   LIG     1      25.136  20.841  19.052  1.00  0.00     0.149 C 
HETATM   10  O   LIG     1      25.765  19.803  19.379  1.00  0.00    -0.649 OA
BRANCH   9  11
HETATM   11  O   LIG     1      25.728  21.678  18.103  1.00  0.00    -0.776 OA
HETATM   12  H   LIG     1      25.900  21.386  17.150  1.00  0.00     0.167 HD
ENDBRANCH   9  11
ENDBRANCH   7   9
BRANCH   4  13
HETATM   13  C   LIG     1      23.943  21.466  23.459  1.00  0.00     0.144 C 
HETATM   14  O   LIG     1      23.119  20.863  24.199  1.00  0.00    -0.650 OA
BRANCH  13  15
HETATM   15  O   LIG     1      24.663  22.541  23.972  1.00  0.00    -0.776 OA
HETATM   16  H   LIG     1      25.398  22.979  23.431  1.00  0.00     0.167 HD
ENDBRANCH  13  15
ENDBRANCH   4  13
TORSDOF 4
ENDMDL
MODEL 11
REMARK VINA RESULT:      -4.2     16.082     17.676
REMARK  4 active torsions:
REMARK  status: ('A' for Active; 'I' for Inactive)
REMARK    1  A    between atoms: C_4  and  C_5 
REMARK    2  A    between atoms: C_5  and  O_6 
REMARK    3  A    between atoms: C_10  and  C_12 
REMARK    4  A    between atoms: C_12  and  O_13 
ROOT
HETATM    1  C   LIG     1      23.016  21.794  18.686  1.00  0.00     0.017 C 
HETATM    2  C   LIG     1      23.647  21.202  19.988  1.00  0.00    -0.017 C 
HETATM    3  C   LIG     1      23.055  19.776  20.170  1.00  0.00     0.017 C 
HETATM    4  C   LIG     1      25.193  21.176  19.863  1.00  0.00     0.092 C 
HETATM    5  C   LIG     1      25.645  22.610  20.192  1.00  0.00     0.017 C 
HETATM    6  C   LIG     1      24.509  23.260  20.993  1.00  0.00     0.022 C 
HETATM    7  C   LIG     1      23.437  22.168  21.226  1.00  0.00     0.049 C 
HETATM    8  C   LIG     1      22.015  22.785  21.272  1.00  0.00     0.027 C 
ENDROOT
BRANCH   7   9
HETATM    9  C   LIG     1      23.717  21.537  22.603  1.00  0.00     0.149 C 
HETATM   10  O   LIG     1      24.787  21.755  23.227  1.00  0.00    -0.649 OA
BRANCH   9  11
HETATM   11  O   LIG     1      22.766  20.723  23.221  1.00  0.00    -0.776 OA
HETATM   12  H   LIG     1      22.317  19.951  22.745  1.00  0.00     0.167 HD
ENDBRANCH   9  11
ENDBRANCH   7   9
BRANCH   4  13
HETATM   13  C   LIG     1      25.727  20.632  18.555  1.00  0.00     0.144 C 
HETATM   14  O   LIG     1      26.227  21.395  17.685  1.00  0.00    -0.650 OA
BRANCH  13  15
HETATM   15  O   LIG     1      25.683  19.261  18.318  1.00  0.00    -0.776 OA
HETATM   16  H   LIG     1      26.506  18.685  18.447  1.00  0.00     0.167 HD
ENDBRANCH  13  15
ENDBRANCH   4  13
TORSDOF 4
ENDMDL
MODEL 12
REMARK VINA RESULT:      -4.2     16.005     17.666
REMARK  4 active torsions:
REMARK  status: ('A' for Active; 'I' for Inactive)
REMARK    1  A    between atoms: C_4  and  C_5 
REMARK    2  A    between atoms: C_5  and  O_6 
REMARK    3  A    between atoms: C_10  and  C_12 
REMARK    4  A    between atoms: C_12  and  O_13 
ROOT
HETATM    1  C   LIG     1      22.454  22.500  21.390  1.00  0.00     0.017 C 
HETATM    2  C   LIG     1      23.628  21.468  21.370  1.00  0.00    -0.017 C 
HETATM    3  C   LIG     1      23.070  20.136  21.946  1.00  0.00     0.017 C 
HETATM    4  C   LIG     1      24.160  21.298  19.924  1.00  0.00     0.092 C 
HETATM    5  C   LIG     1      25.096  22.498  19.698  1.00  0.00     0.017 C 
HETATM    6  C   LIG     1      25.512  23.003  21.085  1.00  0.00     0.022 C 
HETATM    7  C   LIG     1      24.905  22.028  22.123  1.00  0.00     0.049 C 
HETATM    8  C   LIG     1      24.551  22.768  23.440  1.00  0.00     0.027 C 
ENDROOT
BRANCH   7   9
HETATM    9  C   LIG     1      25.984  20.980  22.451  1.00  0.00     0.149 C 
HETATM   10  O   LIG     1      26.935  20.737  21.665  1.00  0.00    -0.649 OA
BRANCH   9  11
HETATM   11  O   LIG     1      25.956  20.283  23.661  1.00  0.00    -0.776 OA
HETATM   12  H   LIG     1      25.103  20.131  24.183  1.00  0.00     0.167 HD
ENDBRANCH   9  11
ENDBRANCH   7   9
BRANCH   4  13
HETATM   13  C   LIG     1      23.097  21.119  18.861  1.00  0.00     0.144 C 
HETATM   14  O   LIG     1      22.545  20.002  18.669  1.00  0.00    -0.650 OA
BRANCH  13  15
HETATM   15  O   LIG     1      22.709  22.215  18.095  1.00  0.00    -0.776 OA
HETATM   16  H   LIG     1      21.730  22.406  17.921  1.00  0.00     0.167 HD
ENDBRANCH  13  15
ENDBRANCH   4  13
TORSDOF 4
ENDMDL
MODEL 13
REMARK VINA RESULT:      -4.2     15.784     17.345
REMARK  4 active torsions:
REMARK  status: ('A' for Active; 'I' for Inactive)
REMARK    1  A    between atoms: C_4  and  C_5 
REMARK    2  A    between atoms: C_5  and  O_6 
REMARK    3  A    between atoms: C_10  and  C_12 
REMARK    4  A    between atoms: C_12  and  O_13 
ROOT
HETATM    1  C   LIG     1      24.733  23.416  20.855  1.00  0.00     0.017 C 
HETATM    2  C   LIG     1      23.771  22.243  21.235  1.00  0.00    -0.017 C 
HETATM    3  C   LIG     1      22.341  22.845  21.339  1.00  0.00     0.017 C 
HETATM    4  C   LIG     1      23.853  21.123  20.166  1.00  0.00     0.092 C 
HETATM    5  C   LIG     1      25.115  20.319  20.524  1.00  0.00     0.017 C 
HETATM    6  C   LIG     1      25.416  20.602  22.001  1.00  0.00     0.022 C 
HETATM    7  C   LIG     1      24.264  21.486  22.537  1.00  0.00     0.049 C 
HETATM    8  C   LIG     1      24.772  22.454  23.638  1.00  0.00     0.027 C 
ENDROOT
BRANCH   7   9
HETATM    9  C   LIG     1      23.228  20.548  23.181  1.00  0.00     0.149 C 
HETATM   10  O   LIG     1      22.643  19.651  22.521  1.00  0.00    -0.649 OA
BRANCH   9  11
HETATM   11  O   LIG     1      22.927  20.644  24.542  1.00  0.00    -0.776 OA
HETATM   12  H   LIG     1      22.962  19.849  25.165  1.00  0.00     0.167 HD
ENDBRANCH   9  11
ENDBRANCH   7   9
BRANCH   4  13
HETATM   13  C   LIG     1      23.794  21.596  18.729  1.00  0.00     0.144 C 
HETATM   14  O   LIG     1      24.813  21.566  17.988  1.00  0.00    -0.650 OA
BRANCH  13  15
HETATM   15  O   LIG     1      22.585  22.054  18.211  1.00  0.00    -0.776 OA
HETATM   16  H   LIG     1      22.350  21.911  17.237  1.00  0.00     0.167 HD
ENDBRANCH  13  15
ENDBRANCH   4  13
TORSDOF 4
ENDMDL
MODEL 14
REMARK VINA RESULT:      -4.1     16.042     17.700
REMARK  4 active torsions:
REMARK  status: ('A' for Active; 'I' for Inactive)
REMARK    1  A    between atoms: C_4  and  C_5 
REMARK    2  A    between atoms: C_5  and  O_6 
REMARK    3  A    between atoms: C_10  and  C_12 
REMARK    4  A    between atoms: C_12  and  O_13 
ROOT
HETATM    1  C   LIG     1      23.179  19.531  20.158  1.00  0.00     0.017 C 
HETATM    2  C   LIG     1      24.121  20.564  20.856  1.00  0.00    -0.017 C 
HETATM    3  C   LIG     1      25.572  20.029  20.706  1.00  0.00     0.017 C 
HETATM    4  C   LIG     1      23.947  21.962  20.207  1.00  0.00     0.092 C 
HETATM    5  C   LIG     1      22.680  22.549  20.853  1.00  0.00     0.017 C 
HETATM    6  C   LIG     1      22.465  21.796  22.172  1.00  0.00     0.022 C 
HETATM    7  C   LIG     1      23.671  20.842  22.350  1.00  0.00     0.049 C 
HETATM    8  C   LIG     1      23.253  19.551  23.101  1.00  0.00     0.027 C 
ENDROOT
BRANCH   7   9
HETATM    9  C   LIG     1      24.709  21.574  23.221  1.00  0.00     0.149 C 
HETATM   10  O   LIG     1      24.691  22.823  23.367  1.00  0.00    -0.649 OA
BRANCH   9  11
HETATM   11  O   LIG     1      25.693  20.860  23.909  1.00  0.00    -0.776 OA
HETATM   12  H   LIG     1      26.576  20.605  23.487  1.00  0.00     0.167 HD
ENDBRANCH   9  11
ENDBRANCH   7   9
BRANCH   4  13
HETATM   13  C   LIG     1      23.947  21.976  18.693  1.00  0.00     0.144 C 
HETATM   14  O   LIG     1      25.020  21.884  18.038  1.00  0.00    -0.650 OA
BRANCH  13  15
HETATM   15  O   LIG     1      22.736  22.073  18.013  1.00  0.00    -0.776 OA
HETATM   16  H   LIG     1      22.534  22.871  17.424  1.00  0.00     0.167 HD
ENDBRANCH  13  15
ENDBRANCH   4  13
TORSDOF 4
ENDMDL
MODEL 15
REMARK VINA RESULT:      -4.1     15.914     17.785
REMARK  4 active torsions:
REMARK  status: ('A' for Active; 'I' for Inactive)
REMARK    1  A    between atoms: C_4  and  C_5 
REMARK    2  A    between atoms: C_5  and  O_6 
REMARK    3  A    between atoms: C_10  and  C_12 
REMARK    4  A    between atoms: C_12  and  O_13 
ROOT
HETATM    1  C   LIG     1      25.107  23.282  20.669  1.00  0.00     0.017 C 
HETATM    2  C   LIG     1      24.875  21.784  20.286  1.00  0.00    -0.017 C 
HETATM    3  C   LIG     1      25.672  20.926  21.308  1.00  0.00     0.017 C 
HETATM    4  C   LIG     1      23.359  21.459  20.314  1.00  0.00     0.092 C 
HETATM    5  C   LIG     1      22.814  21.978  18.971  1.00  0.00     0.017 C 
HETATM    6  C   LIG     1      24.010  22.077  18.016  1.00  0.00     0.022 C 
HETATM    7  C   LIG     1      25.238  21.511  18.768  1.00  0.00     0.049 C 
HETATM    8  C   LIG     1      26.541  22.226  18.324  1.00  0.00     0.027 C 
ENDROOT
BRANCH   7   9
HETATM    9  C   LIG     1      25.367  20.025  18.384  1.00  0.00     0.149 C 
HETATM   10  O   LIG     1      24.398  19.376  17.912  1.00  0.00    -0.649 OA
BRANCH   9  11
HETATM   11  O   LIG     1      26.586  19.357  18.517  1.00  0.00    -0.776 OA
HETATM   12  H   LIG     1      26.812  18.791  19.324  1.00  0.00     0.167 HD
ENDBRANCH   9  11
ENDBRANCH   7   9
BRANCH   4  13
HETATM   13  C   LIG     1      22.612  21.960  21.532  1.00  0.00     0.144 C 
HETATM   14  O   LIG     1      22.796  21.446  22.668  1.00  0.00    -0.650 OA
BRANCH  13  15
HETATM   15  O   LIG     1      21.722  23.021  21.397  1.00  0.00    -0.776 OA
HETATM   16  H   LIG     1      21.422  23.554  22.204  1.00  0.00     0.167 HD
ENDBRANCH  13  15
ENDBRANCH   4  13
TORSDOF 4
ENDMDL
MODEL 16
REMARK VINA RESULT:      -3.9     15.694     16.981
REMARK  4 active torsions:
REMARK  status: ('A' for Active; 'I' for Inactive)
REMARK    1  A    between atoms: C_4  and  C_5 
REMARK    2  A    between atoms: C_5  and  O_6 
REMARK    3  A    between atoms: C_10  and  C_12 
REMARK    4  A    between atoms: C_12  and  O_13 
ROOT
HETATM    1  C   LIG     1      24.523  20.570  19.955  1.00  0.00     0.017 C 
HETATM    2  C   LIG     1      24.588  22.116  19.728  1.00  0.00    -0.017 C 
HETATM    3  C   LIG     1      23.707  22.429  18.486  1.00  0.00     0.017 C 
HETATM    4  C   LIG     1      24.091  22.859  20.995  1.00  0.00     0.092 C 
HETATM    5  C   LIG     1      25.293  22.861  21.955  1.00  0.00     0.017 C 
HETATM    6  C   LIG     1      26.546  22.643  21.098  1.00  0.00     0.022 C 
HETATM    7  C   LIG     1      26.086  22.623  19.620  1.00  0.00     0.049 C 
HETATM    8  C   LIG     1      26.979  21.681  18.772  1.00  0.00     0.027 C 
ENDROOT
BRANCH   7   9
HETATM    9  C   LIG     1      26.255  24.050  19.068  1.00  0.00     0.149 C 
HETATM   10  O   LIG     1      26.374  24.276  17.837  1.00  0.00    -0.649 OA
BRANCH   9  11
HETATM   11  O   LIG     1      26.247  25.152  19.926  1.00  0.00    -0.776 OA
HETATM   12  H   LIG     1      25.763  26.013  19.704  1.00  0.00     0.167 HD
ENDBRANCH   9  11
ENDBRANCH   7   9
BRANCH   4  13
HETATM   13  C   LIG     1      22.807  22.326  21.594  1.00  0.00     0.144 C 
HETATM   14  O   LIG     1      22.818  21.388  22.436  1.00  0.00    -0.650 OA
BRANCH  13  15
HETATM   15  O   LIG     1      21.593  22.898  21.223  1.00  0.00    -0.776 OA
HETATM   16  H   LIG     1      21.256  22.829  20.271  1.00  0.00     0.167 HD
ENDBRANCH  13  15
ENDBRANCH   4  13
TORSDOF 4
ENDMDL
MODEL 17
REMARK VINA RESULT:      -3.9     16.034     17.697
REMARK  4 active torsions:
REMARK  status: ('A' for Active; 'I' for Inactive)
REMARK    1  A    between atoms: C_4  and  C_5 
REMARK    2  A    between atoms: C_5  and  O_6 
REMARK    3  A    between atoms: C_10  and  C_12 
REMARK    4  A    between atoms: C_12  and  O_13 
ROOT
HETATM    1  C   LIG     1      24.705  22.851  22.618  1.00  0.00     0.017 C 
HETATM    2  C   LIG     1      24.652  22.123  21.236  1.00  0.00    -0.017 C 
HETATM    3  C   LIG     1      25.324  23.068  20.200  1.00  0.00     0.017 C 
HETATM    4  C   LIG     1      25.376  20.755  21.329  1.00  0.00     0.092 C 
HETATM    5  C   LIG     1      24.350  19.802  21.968  1.00  0.00     0.017 C 
HETATM    6  C   LIG     1      22.966  20.422  21.739  1.00  0.00     0.022 C 
HETATM    7  C   LIG     1      23.174  21.685  20.868  1.00  0.00     0.049 C 
HETATM    8  C   LIG     1      22.122  22.773  21.206  1.00  0.00     0.027 C 
ENDROOT
BRANCH   7   9
HETATM    9  C   LIG     1      22.961  21.269  19.401  1.00  0.00     0.149 C 
HETATM   10  O   LIG     1      22.986  20.064  19.042  1.00  0.00    -0.649 OA
BRANCH   9  11
HETATM   11  O   LIG     1      22.697  22.227  18.420  1.00  0.00    -0.776 OA
HETATM   12  H   LIG     1      23.270  23.051  18.294  1.00  0.00     0.167 HD
ENDBRANCH   9  11
ENDBRANCH   7   9
BRANCH   4  13
HETATM   13  C   LIG     1      26.724  20.782  22.017  1.00  0.00     0.144 C 
HETATM   14  O   LIG     1      26.868  20.347  23.191  1.00  0.00    -0.650 OA
BRANCH  13  15
HETATM   15  O   LIG     1      27.828  21.280  21.331  1.00  0.00    -0.776 OA
HETATM   16  H   LIG     1      28.698  21.469  21.815  1.00  0.00     0.167 HD
ENDBRANCH  13  15
ENDBRANCH   4  13
TORSDOF 4
ENDMDL
MODEL 18
REMARK VINA RESULT:      -3.9     16.243     18.165
REMARK  4 active torsions:
REMARK  status: ('A' for Active; 'I' for Inactive)
REMARK    1  A    between atoms: C_4  and  C_5 
REMARK    2  A    between atoms: C_5  and  O_6 
REMARK    3  A    between atoms: C_10  and  C_12 
REMARK    4  A    between atoms: C_12  and  O_13 
ROOT
HETATM    1  C   LIG     1      25.267  21.499  18.448  1.00  0.00     0.017 C 
HETATM    2  C   LIG     1      23.986  21.264  19.313  1.00  0.00    -0.017 C 
HETATM    3  C   LIG     1      22.782  21.818  18.501  1.00  0.00     0.017 C 
HETATM    4  C   LIG     1      23.829  19.754  19.628  1.00  0.00     0.092 C 
HETATM    5  C   LIG     1      24.781  19.489  20.808  1.00  0.00     0.017 C 
HETATM    6  C   LIG     1      25.036  20.843  21.483  1.00  0.00     0.022 C 
HETATM    7  C   LIG     1      24.145  21.883  20.764  1.00  0.00     0.049 C 
HETATM    8  C   LIG     1      24.820  23.280  20.750  1.00  0.00     0.027 C 
ENDROOT
BRANCH   7   9
HETATM    9  C   LIG     1      22.839  22.004  21.570  1.00  0.00     0.149 C 
HETATM   10  O   LIG     1      22.551  21.197  22.491  1.00  0.00    -0.649 OA
BRANCH   9  11
HETATM   11  O   LIG     1      21.942  23.045  21.323  1.00  0.00    -0.776 OA
HETATM   12  H   LIG     1      22.217  23.905  20.867  1.00  0.00     0.167 HD
ENDBRANCH   9  11
ENDBRANCH   7   9
BRANCH   4  13
HETATM   13  C   LIG     1      24.016  18.825  18.447  1.00  0.00     0.144 C 
HETATM   14  O   LIG     1      23.139  18.727  17.547  1.00  0.00    -0.650 OA
BRANCH  13  15
HETATM   15  O   LIG     1      25.187  18.079  18.346  1.00  0.00    -0.776 OA
HETATM   16  H   LIG     1      25.467  17.671  17.462  1.00  0.00     0.167 HD
ENDBRANCH  13  15
ENDBRANCH   4  13
TORSDOF 4
ENDMDL
MODEL 19
REMARK VINA RESULT:      -3.8     15.838     17.389
REMARK  4 active torsions:
REMARK  status: ('A' for Active; 'I' for Inactive)
REMARK    1  A    between atoms: C_4  and  C_5 
REMARK    2  A    between atoms: C_5  and  O_6 
REMARK    3  A    between atoms: C_10  and  C_12 
REMARK    4  A    between atoms: C_12  and  O_13 
ROOT
HETATM    1  C   LIG     1      25.094  23.201  20.822  1.00  0.00     0.017 C 
HETATM    2  C   LIG     1      26.253  22.953  19.803  1.00  0.00    -0.017 C 
HETATM    3  C   LIG     1      27.002  21.674  20.271  1.00  0.00     0.017 C 
HETATM    4  C   LIG     1      25.676  22.797  18.372  1.00  0.00     0.092 C 
HETATM    5  C   LIG     1      25.434  24.235  17.879  1.00  0.00     0.017 C 
HETATM    6  C   LIG     1      26.325  25.151  18.729  1.00  0.00     0.022 C 
HETATM    7  C   LIG     1      27.171  24.235  19.645  1.00  0.00     0.049 C 
HETATM    8  C   LIG     1      27.472  24.929  21.000  1.00  0.00     0.027 C 
ENDROOT
BRANCH   7   9
HETATM    9  C   LIG     1      28.516  23.994  18.936  1.00  0.00     0.149 C 
HETATM   10  O   LIG     1      28.655  24.169  17.698  1.00  0.00    -0.649 OA
BRANCH   9  11
HETATM   11  O   LIG     1      29.644  23.600  19.660  1.00  0.00    -0.776 OA
HETATM   12  H   LIG     1      29.735  23.757  20.655  1.00  0.00     0.167 HD
ENDBRANCH   9  11
ENDBRANCH   7   9
BRANCH   4  13
HETATM   13  C   LIG     1      24.477  21.881  18.255  1.00  0.00     0.144 C 
HETATM   14  O   LIG     1      24.598  20.630  18.354  1.00  0.00    -0.650 OA
BRANCH  13  15
HETATM   15  O   LIG     1      23.215  22.433  18.053  1.00  0.00    -0.776 OA
HETATM   16  H   LIG     1      22.990  22.911  17.189  1.00  0.00     0.167 HD
ENDBRANCH  13  15
ENDBRANCH   4  13
TORSDOF 4
ENDMDL
MODEL 20
REMARK VINA RESULT:      -3.8     16.640     18.370
REMARK  4 active torsions:
REMARK  status: ('A' for Active; 'I' for Inactive)
REMARK    1  A    between atoms: C_4  and  C_5 
REMARK    2  A    between atoms: C_5  and  O_6 
REMARK    3  A    between atoms: C_10  and  C_12 
REMARK    4  A    between atoms: C_12  and  O_13 
ROOT
HETATM    1  C   LIG     1      22.591  22.116  19.318  1.00  0.00     0.017 C 
HETATM    2  C   LIG     1      23.874  21.236  19.172  1.00  0.00    -0.017 C 
HETATM    3  C   LIG     1      24.855  22.015  18.250  1.00  0.00     0.017 C 
HETATM    4  C   LIG     1      24.488  20.957  20.568  1.00  0.00     0.092 C 
HETATM    5  C   LIG     1      23.655  19.800  21.147  1.00  0.00     0.017 C 
HETATM    6  C   LIG     1      22.990  19.094  19.959  1.00  0.00     0.022 C 
HETATM    7  C   LIG     1      23.522  19.773  18.674  1.00  0.00     0.049 C 
HETATM    8  C   LIG     1      22.448  19.763  17.554  1.00  0.00     0.027 C 
ENDROOT
BRANCH   7   9
HETATM    9  C   LIG     1      24.721  18.943  18.180  1.00  0.00     0.149 C 
HETATM   10  O   LIG     1      25.331  18.144  18.935  1.00  0.00    -0.649 OA
BRANCH   9  11
HETATM   11  O   LIG     1      25.149  19.029  16.853  1.00  0.00    -0.776 OA
HETATM   12  H   LIG     1      25.954  19.575  16.575  1.00  0.00     0.167 HD
ENDBRANCH   9  11
ENDBRANCH   7   9
BRANCH   4  13
HETATM   13  C   LIG     1      24.606  22.163  21.475  1.00  0.00     0.144 C 
HETATM   14  O   LIG     1      25.478  23.051  21.273  1.00  0.00    -0.650 OA
BRANCH  13  15
HETATM   15  O   LIG     1      23.722  22.303  22.541  1.00  0.00    -0.776 OA
HETATM   16  H   LIG     1      23.062  21.569  22.769  1.00  0.00     0.167 HD
ENDBRANCH  13  15
ENDBRANCH   4  13
TORSDOF 4
ENDMDL
