MODEL 1
REMARK VINA RESULT:      -5.3      0.000      0.000
REMARK  7 active torsions:
REMARK  status: ('A' for Active; 'I' for Inactive)
REMARK    1  A    between atoms: O_1  and  C_2 
REMARK    2  A    between atoms: C_2  and  C_3 
REMARK    3  A    between atoms: C_3  and  C_4 
REMARK    4  A    between atoms: C_4  and  C_5 
REMARK    5  A    between atoms: C_5  and  C_6 
REMARK    6  A    between atoms: C_6  and  C_7 
REMARK    7  A    between atoms: C_7  and  O_8 
ROOT
HETATM    1  C   LIG     1      17.156  35.598  22.068  1.00  0.00     0.011 C 
ENDROOT
BRANCH   1   2
HETATM    2  C   LIG     1      16.413  34.709  21.066  1.00  0.00     0.110 C 
BRANCH   2   3
HETATM    3  C   LIG     1      14.942  34.713  21.351  1.00  0.00     0.139 C 
HETATM    4  O   LIG     1      14.358  33.639  21.655  1.00  0.00    -0.650 OA
BRANCH   3   5
HETATM    5  O   LIG     1      14.203  35.887  21.241  1.00  0.00    -0.776 OA
HETATM    6  H   LIG     1      13.556  36.169  21.968  1.00  0.00     0.167 HD
ENDBRANCH   3   5
ENDBRANCH   2   3
ENDBRANCH   1   2
BRANCH   1   7
HETATM    7  C   LIG     1      17.419  36.991  21.477  1.00  0.00     0.011 C 
BRANCH   7   8
HETATM    8  C   LIG     1      17.475  38.078  22.558  1.00  0.00     0.110 C 
BRANCH   8   9
HETATM    9  C   LIG     1      16.294  38.012  23.484  1.00  0.00     0.139 C 
HETATM   10  O   LIG     1      16.475  37.890  24.724  1.00  0.00    -0.650 OA
BRANCH   9  11
HETATM   11  O   LIG     1      14.995  38.074  22.986  1.00  0.00    -0.776 OA
HETATM   12  H   LIG     1      14.817  38.143  21.992  1.00  0.00     0.167 HD
ENDBRANCH   9  11
ENDBRANCH   8   9
ENDBRANCH   7   8
ENDBRANCH   1   7
TORSDOF 7
ENDMDL
MODEL 2
REMARK VINA RESULT:      -5.3      2.909      4.065
REMARK  7 active torsions:
REMARK  status: ('A' for Active; 'I' for Inactive)
REMARK    1  A    between atoms: O_1  and  C_2 
REMARK    2  A    between atoms: C_2  and  C_3 
REMARK    3  A    between atoms: C_3  and  C_4 
REMARK    4  A    between atoms: C_4  and  C_5 
REMARK    5  A    between atoms: C_5  and  C_6 
REMARK    6  A    between atoms: C_6  and  C_7 
REMARK    7  A    between atoms: C_7  and  O_8 
ROOT
HETATM    1  C   LIG     1      18.622  37.074  25.795  1.00  0.00     0.011 C 
ENDROOT
BRANCH   1   2
HETATM    2  C   LIG     1      18.266  35.890  26.698  1.00  0.00     0.110 C 
BRANCH   2   3
HETATM    3  C   LIG     1      17.370  34.930  25.975  1.00  0.00     0.139 C 
HETATM    4  O   LIG     1      17.494  34.768  24.733  1.00  0.00    -0.650 OA
BRANCH   3   5
HETATM    5  O   LIG     1      16.368  34.246  26.658  1.00  0.00    -0.776 OA
HETATM    6  H   LIG     1      15.809  34.706  27.367  1.00  0.00     0.167 HD
ENDBRANCH   3   5
ENDBRANCH   2   3
ENDBRANCH   1   2
BRANCH   1   7
HETATM    7  C   LIG     1      17.365  37.863  25.400  1.00  0.00     0.011 C 
BRANCH   7   8
HETATM    8  C   LIG     1      17.393  38.297  23.928  1.00  0.00     0.110 C 
BRANCH   8   9
HETATM    9  C   LIG     1      16.228  37.746  23.157  1.00  0.00     0.139 C 
HETATM   10  O   LIG     1      16.430  36.987  22.172  1.00  0.00    -0.650 OA
BRANCH   9  11
HETATM   11  O   LIG     1      14.922  38.073  23.509  1.00  0.00    -0.776 OA
HETATM   12  H   LIG     1      14.474  37.652  24.314  1.00  0.00     0.167 HD
ENDBRANCH   9  11
ENDBRANCH   8   9
ENDBRANCH   7   8
ENDBRANCH   1   7
TORSDOF 7
ENDMDL
MODEL 3
REMARK VINA RESULT:      -5.3      0.633      3.830
REMARK  7 active torsions:
REMARK  status: ('A' for Active; 'I' for Inactive)
REMARK    1  A    between atoms: O_1  and  C_2 
REMARK    2  A    between atoms: C_2  and  C_3 
REMARK    3  A    between atoms: C_3  and  C_4 
REMARK    4  A    between atoms: C_4  and  C_5 
REMARK    5  A    between atoms: C_5  and  C_6 
REMARK    6  A    between atoms: C_6  and  C_7 
REMARK    7  A    between atoms: C_7  and  O_8 
ROOT
HETATM    1  C   LIG     1      17.365  37.222  21.551  1.00  0.00     0.011 C 
ENDROOT
BRANCH   1   2
HETATM    2  C   LIG     1      17.314  36.923  23.052  1.00  0.00     0.110 C 
BRANCH   2   3
HETATM    3  C   LIG     1      16.295  37.791  23.726  1.00  0.00     0.139 C 
HETATM    4  O   LIG     1      16.522  38.249  24.877  1.00  0.00    -0.650 OA
BRANCH   3   5
HETATM    5  O   LIG     1      15.077  38.063  23.109  1.00  0.00    -0.776 OA
HETATM    6  H   LIG     1      14.702  39.003  23.081  1.00  0.00     0.167 HD
ENDBRANCH   3   5
ENDBRANCH   2   3
ENDBRANCH   1   2
BRANCH   1   7
HETATM    7  C   LIG     1      17.111  35.951  20.728  1.00  0.00     0.011 C 
BRANCH   7   8
HETATM    8  C   LIG     1      16.508  34.823  21.577  1.00  0.00     0.110 C 
BRANCH   8   9
HETATM    9  C   LIG     1      15.016  34.744  21.429  1.00  0.00     0.139 C 
HETATM   10  O   LIG     1      14.430  33.636  21.558  1.00  0.00    -0.650 OA
BRANCH   9  11
HETATM   11  O   LIG     1      14.268  35.881  21.139  1.00  0.00    -0.776 OA
HETATM   12  H   LIG     1      14.394  36.384  20.269  1.00  0.00     0.167 HD
ENDBRANCH   9  11
ENDBRANCH   8   9
ENDBRANCH   7   8
ENDBRANCH   1   7
TORSDOF 7
ENDMDL
MODEL 4
REMARK VINA RESULT:      -5.2      3.366      4.614
REMARK  7 active torsions:
REMARK  status: ('A' for Active; 'I' for Inactive)
REMARK    1  A    between atoms: O_1  and  C_2 
REMARK    2  A    between atoms: C_2  and  C_3 
REMARK    3  A    between atoms: C_3  and  C_4 
REMARK    4  A    between atoms: C_4  and  C_5 
REMARK    5  A    between atoms: C_5  and  C_6 
REMARK    6  A    between atoms: C_6  and  C_7 
REMARK    7  A    between atoms: C_7  and  O_8 
ROOT
HETATM    1  C   LIG     1      17.872  38.500  21.314  1.00  0.00     0.011 C 
ENDROOT
BRANCH   1   2
HETATM    2  C   LIG     1      19.094  39.340  20.935  1.00  0.00     0.110 C 
BRANCH   2   3
HETATM    3  C   LIG     1      19.816  38.723  19.775  1.00  0.00     0.139 C 
HETATM    4  O   LIG     1      19.649  37.503  19.508  1.00  0.00    -0.650 OA
BRANCH   3   5
HETATM    5  O   LIG     1      20.705  39.475  19.013  1.00  0.00    -0.776 OA
HETATM    6  H   LIG     1      20.660  39.473  18.002  1.00  0.00     0.167 HD
ENDBRANCH   3   5
ENDBRANCH   2   3
ENDBRANCH   1   2
BRANCH   1   7
HETATM    7  C   LIG     1      17.308  38.934  22.675  1.00  0.00     0.011 C 
BRANCH   7   8
HETATM    8  C   LIG     1      16.586  37.787  23.395  1.00  0.00     0.110 C 
BRANCH   8   9
HETATM    9  C   LIG     1      17.055  37.629  24.813  1.00  0.00     0.139 C 
HETATM   10  O   LIG     1      17.246  36.477  25.286  1.00  0.00    -0.650 OA
BRANCH   9  11
HETATM   11  O   LIG     1      17.273  38.742  25.620  1.00  0.00    -0.776 OA
HETATM   12  H   LIG     1      17.741  39.566  25.262  1.00  0.00     0.167 HD
ENDBRANCH   9  11
ENDBRANCH   8   9
ENDBRANCH   7   8
ENDBRANCH   1   7
TORSDOF 7
ENDMDL
MODEL 5
REMARK VINA RESULT:      -5.2      3.315      4.840
REMARK  7 active torsions:
REMARK  status: ('A' for Active; 'I' for Inactive)
REMARK    1  A    between atoms: O_1  and  C_2 
REMARK    2  A    between atoms: C_2  and  C_3 
REMARK    3  A    between atoms: C_3  and  C_4 
REMARK    4  A    between atoms: C_4  and  C_5 
REMARK    5  A    between atoms: C_5  and  C_6 
REMARK    6  A    between atoms: C_6  and  C_7 
REMARK    7  A    between atoms: C_7  and  O_8 
ROOT
HETATM    1  C   LIG     1      17.078  38.948  22.489  1.00  0.00     0.011 C 
ENDROOT
BRANCH   1   2
HETATM    2  C   LIG     1      16.623  37.650  23.163  1.00  0.00     0.110 C 
BRANCH   2   3
HETATM    3  C   LIG     1      17.132  37.583  24.571  1.00  0.00     0.139 C 
HETATM    4  O   LIG     1      17.466  36.475  25.066  1.00  0.00    -0.650 OA
BRANCH   3   5
HETATM    5  O   LIG     1      17.198  38.731  25.355  1.00  0.00    -0.776 OA
HETATM    6  H   LIG     1      17.813  39.498  25.111  1.00  0.00     0.167 HD
ENDBRANCH   3   5
ENDBRANCH   2   3
ENDBRANCH   1   2
BRANCH   1   7
HETATM    7  C   LIG     1      18.533  38.838  22.010  1.00  0.00     0.011 C 
BRANCH   7   8
HETATM    8  C   LIG     1      18.762  39.573  20.683  1.00  0.00     0.110 C 
BRANCH   8   9
HETATM    9  C   LIG     1      19.648  38.794  19.753  1.00  0.00     0.139 C 
HETATM   10  O   LIG     1      19.453  37.561  19.587  1.00  0.00    -0.650 OA
BRANCH   9  11
HETATM   11  O   LIG     1      20.694  39.417  19.078  1.00  0.00    -0.776 OA
HETATM   12  H   LIG     1      21.305  40.073  19.548  1.00  0.00     0.167 HD
ENDBRANCH   9  11
ENDBRANCH   8   9
ENDBRANCH   7   8
ENDBRANCH   1   7
TORSDOF 7
ENDMDL
MODEL 6
REMARK VINA RESULT:      -5.1      3.420      4.552
REMARK  7 active torsions:
REMARK  status: ('A' for Active; 'I' for Inactive)
REMARK    1  A    between atoms: O_1  and  C_2 
REMARK    2  A    between atoms: C_2  and  C_3 
REMARK    3  A    between atoms: C_3  and  C_4 
REMARK    4  A    between atoms: C_4  and  C_5 
REMARK    5  A    between atoms: C_5  and  C_6 
REMARK    6  A    between atoms: C_6  and  C_7 
REMARK    7  A    between atoms: C_7  and  O_8 
ROOT
HETATM    1  C   LIG     1      18.338  37.443  20.295  1.00  0.00     0.011 C 
ENDROOT
BRANCH   1   2
HETATM    2  C   LIG     1      18.880  38.870  20.408  1.00  0.00     0.110 C 
BRANCH   2   3
HETATM    3  C   LIG     1      19.494  39.303  19.111  1.00  0.00     0.139 C 
HETATM    4  O   LIG     1      18.763  39.495  18.103  1.00  0.00    -0.650 OA
BRANCH   3   5
HETATM    5  O   LIG     1      20.873  39.453  18.996  1.00  0.00    -0.776 OA
HETATM    6  H   LIG     1      21.505  38.716  19.283  1.00  0.00     0.167 HD
ENDBRANCH   3   5
ENDBRANCH   2   3
ENDBRANCH   1   2
BRANCH   1   7
HETATM    7  C   LIG     1      17.457  37.092  21.503  1.00  0.00     0.011 C 
BRANCH   7   8
HETATM    8  C   LIG     1      17.467  38.198  22.567  1.00  0.00     0.110 C 
BRANCH   8   9
HETATM    9  C   LIG     1      16.308  38.079  23.514  1.00  0.00     0.139 C 
HETATM   10  O   LIG     1      16.517  37.918  24.746  1.00  0.00    -0.650 OA
BRANCH   9  11
HETATM   11  O   LIG     1      14.998  38.132  23.046  1.00  0.00    -0.776 OA
HETATM   12  H   LIG     1      14.506  37.292  22.766  1.00  0.00     0.167 HD
ENDBRANCH   9  11
ENDBRANCH   8   9
ENDBRANCH   7   8
ENDBRANCH   1   7
TORSDOF 7
ENDMDL
MODEL 7
REMARK VINA RESULT:      -4.9      1.433      2.083
REMARK  7 active torsions:
REMARK  status: ('A' for Active; 'I' for Inactive)
REMARK    1  A    between atoms: O_1  and  C_2 
REMARK    2  A    between atoms: C_2  and  C_3 
REMARK    3  A    between atoms: C_3  and  C_4 
REMARK    4  A    between atoms: C_4  and  C_5 
REMARK    5  A    between atoms: C_5  and  C_6 
REMARK    6  A    between atoms: C_6  and  C_7 
REMARK    7  A    between atoms: C_7  and  O_8 
ROOT
HETATM    1  C   LIG     1      17.435  36.899  21.402  1.00  0.00     0.011 C 
ENDROOT
BRANCH   1   2
HETATM    2  C   LIG     1      16.805  35.511  21.554  1.00  0.00     0.110 C 
BRANCH   2   3
HETATM    3  C   LIG     1      15.645  35.357  20.618  1.00  0.00     0.139 C 
HETATM    4  O   LIG     1      15.842  35.011  19.424  1.00  0.00    -0.650 OA
BRANCH   3   5
HETATM    5  O   LIG     1      14.349  35.636  21.044  1.00  0.00    -0.776 OA
HETATM    6  H   LIG     1      14.004  36.587  21.081  1.00  0.00     0.167 HD
ENDBRANCH   3   5
ENDBRANCH   2   3
ENDBRANCH   1   2
BRANCH   1   7
HETATM    7  C   LIG     1      17.172  37.761  22.645  1.00  0.00     0.011 C 
BRANCH   7   8
HETATM    8  C   LIG     1      16.864  36.910  23.885  1.00  0.00     0.110 C 
BRANCH   8   9
HETATM    9  C   LIG     1      17.151  37.649  25.161  1.00  0.00     0.139 C 
HETATM   10  O   LIG     1      17.059  38.905  25.193  1.00  0.00    -0.650 OA
BRANCH   9  11
HETATM   11  O   LIG     1      17.531  36.963  26.311  1.00  0.00    -0.776 OA
HETATM   12  H   LIG     1      18.488  36.982  26.642  1.00  0.00     0.167 HD
ENDBRANCH   9  11
ENDBRANCH   8   9
ENDBRANCH   7   8
ENDBRANCH   1   7
TORSDOF 7
ENDMDL
MODEL 8
REMARK VINA RESULT:      -4.9      3.151      4.434
REMARK  7 active torsions:
REMARK  status: ('A' for Active; 'I' for Inactive)
REMARK    1  A    between atoms: O_1  and  C_2 
REMARK    2  A    between atoms: C_2  and  C_3 
REMARK    3  A    between atoms: C_3  and  C_4 
REMARK    4  A    between atoms: C_4  and  C_5 
REMARK    5  A    between atoms: C_5  and  C_6 
REMARK    6  A    between atoms: C_6  and  C_7 
REMARK    7  A    between atoms: C_7  and  O_8 
ROOT
HETATM    1  C   LIG     1      17.726  36.445  21.337  1.00  0.00     0.011 C 
ENDROOT
BRANCH   1   2
HETATM    2  C   LIG     1      16.528  37.121  22.009  1.00  0.00     0.110 C 
BRANCH   2   3
HETATM    3  C   LIG     1      16.967  37.873  23.229  1.00  0.00     0.139 C 
HETATM    4  O   LIG     1      18.094  38.435  23.249  1.00  0.00    -0.650 OA
BRANCH   3   5
HETATM    5  O   LIG     1      16.157  37.922  24.360  1.00  0.00    -0.776 OA
HETATM    6  H   LIG     1      15.481  38.664  24.488  1.00  0.00     0.167 HD
ENDBRANCH   3   5
ENDBRANCH   2   3
ENDBRANCH   1   2
BRANCH   1   7
HETATM    7  C   LIG     1      17.991  37.049  19.950  1.00  0.00     0.011 C 
BRANCH   7   8
HETATM    8  C   LIG     1      19.471  37.400  19.745  1.00  0.00     0.110 C 
BRANCH   8   9
HETATM    9  C   LIG     1      19.732  38.868  19.927  1.00  0.00     0.139 C 
HETATM   10  O   LIG     1      20.524  39.466  19.151  1.00  0.00    -0.650 OA
BRANCH   9  11
HETATM   11  O   LIG     1      19.117  39.578  20.954  1.00  0.00    -0.776 OA
HETATM   12  H   LIG     1      18.735  40.503  20.797  1.00  0.00     0.167 HD
ENDBRANCH   9  11
ENDBRANCH   8   9
ENDBRANCH   7   8
ENDBRANCH   1   7
TORSDOF 7
ENDMDL
MODEL 9
REMARK VINA RESULT:      -4.9      3.366      5.040
REMARK  7 active torsions:
REMARK  status: ('A' for Active; 'I' for Inactive)
REMARK    1  A    between atoms: O_1  and  C_2 
REMARK    2  A    between atoms: C_2  and  C_3 
REMARK    3  A    between atoms: C_3  and  C_4 
REMARK    4  A    between atoms: C_4  and  C_5 
REMARK    5  A    between atoms: C_5  and  C_6 
REMARK    6  A    between atoms: C_6  and  C_7 
REMARK    7  A    between atoms: C_7  and  O_8 
ROOT
HETATM    1  C   LIG     1      18.203  37.047  19.695  1.00  0.00     0.011 C 
ENDROOT
BRANCH   1   2
HETATM    2  C   LIG     1      19.681  37.431  19.583  1.00  0.00     0.110 C 
BRANCH   2   3
HETATM    3  C   LIG     1      19.835  38.921  19.540  1.00  0.00     0.139 C 
HETATM    4  O   LIG     1      18.966  39.658  20.075  1.00  0.00    -0.650 OA
BRANCH   3   5
HETATM    5  O   LIG     1      20.911  39.502  18.875  1.00  0.00    -0.776 OA
HETATM    6  H   LIG     1      21.766  38.986  18.710  1.00  0.00     0.167 HD
ENDBRANCH   3   5
ENDBRANCH   2   3
ENDBRANCH   1   2
BRANCH   1   7
HETATM    7  C   LIG     1      17.962  36.134  20.906  1.00  0.00     0.011 C 
BRANCH   7   8
HETATM    8  C   LIG     1      16.610  36.408  21.577  1.00  0.00     0.110 C 
BRANCH   8   9
HETATM    9  C   LIG     1      15.575  35.388  21.198  1.00  0.00     0.139 C 
HETATM   10  O   LIG     1      15.927  34.210  20.920  1.00  0.00    -0.650 OA
BRANCH   9  11
HETATM   11  O   LIG     1      14.227  35.729  21.137  1.00  0.00    -0.776 OA
HETATM   12  H   LIG     1      13.927  36.695  21.192  1.00  0.00     0.167 HD
ENDBRANCH   9  11
ENDBRANCH   8   9
ENDBRANCH   7   8
ENDBRANCH   1   7
TORSDOF 7
ENDMDL
MODEL 10
REMARK VINA RESULT:      -4.8      2.439      2.808
REMARK  7 active torsions:
REMARK  status: ('A' for Active; 'I' for Inactive)
REMARK    1  A    between atoms: O_1  and  C_2 
REMARK    2  A    between atoms: C_2  and  C_3 
REMARK    3  A    between atoms: C_3  and  C_4 
REMARK    4  A    between atoms: C_4  and  C_5 
REMARK    5  A    between atoms: C_5  and  C_6 
REMARK    6  A    between atoms: C_6  and  C_7 
REMARK    7  A    between atoms: C_7  and  O_8 
ROOT
HETATM    1  C   LIG     1      16.524  36.416  22.331  1.00  0.00     0.011 C 
ENDROOT
BRANCH   1   2
HETATM    2  C   LIG     1      16.643  34.905  22.115  1.00  0.00     0.110 C 
BRANCH   2   3
HETATM    3  C   LIG     1      15.593  34.427  21.158  1.00  0.00     0.139 C 
HETATM    4  O   LIG     1      15.918  34.062  19.998  1.00  0.00    -0.650 OA
BRANCH   3   5
HETATM    5  O   LIG     1      14.250  34.425  21.525  1.00  0.00    -0.776 OA
HETATM    6  H   LIG     1      13.880  35.120  22.163  1.00  0.00     0.167 HD
ENDBRANCH   3   5
ENDBRANCH   2   3
ENDBRANCH   1   2
BRANCH   1   7
HETATM    7  C   LIG     1      17.441  37.183  21.367  1.00  0.00     0.011 C 
BRANCH   7   8
HETATM    8  C   LIG     1      17.464  38.688  21.665  1.00  0.00     0.110 C 
BRANCH   8   9
HETATM    9  C   LIG     1      18.815  39.292  21.412  1.00  0.00     0.139 C 
HETATM   10  O   LIG     1      19.085  39.776  20.281  1.00  0.00    -0.650 OA
BRANCH   9  11
HETATM   11  O   LIG     1      19.784  39.313  22.412  1.00  0.00    -0.776 OA
HETATM   12  H   LIG     1      19.680  39.898  23.231  1.00  0.00     0.167 HD
ENDBRANCH   9  11
ENDBRANCH   8   9
ENDBRANCH   7   8
ENDBRANCH   1   7
TORSDOF 7
ENDMDL
MODEL 11
REMARK VINA RESULT:      -4.7      3.486      4.178
REMARK  7 active torsions:
REMARK  status: ('A' for Active; 'I' for Inactive)
REMARK    1  A    between atoms: O_1  and  C_2 
REMARK    2  A    between atoms: C_2  and  C_3 
REMARK    3  A    between atoms: C_3  and  C_4 
REMARK    4  A    between atoms: C_4  and  C_5 
REMARK    5  A    between atoms: C_5  and  C_6 
REMARK    6  A    between atoms: C_6  and  C_7 
REMARK    7  A    between atoms: C_7  and  O_8 
ROOT
HETATM    1  C   LIG     1      17.139  38.647  22.211  1.00  0.00     0.011 C 
ENDROOT
BRANCH   1   2
HETATM    2  C   LIG     1      17.057  37.415  23.116  1.00  0.00     0.110 C 
BRANCH   2   3
HETATM    3  C   LIG     1      16.471  36.254  22.370  1.00  0.00     0.139 C 
HETATM    4  O   LIG     1      15.357  36.374  21.796  1.00  0.00    -0.650 OA
BRANCH   3   5
HETATM    5  O   LIG     1      17.127  35.027  22.342  1.00  0.00    -0.776 OA
HETATM    6  H   LIG     1      18.124  34.962  22.505  1.00  0.00     0.167 HD
ENDBRANCH   3   5
ENDBRANCH   2   3
ENDBRANCH   1   2
BRANCH   1   7
HETATM    7  C   LIG     1      18.601  39.007  21.905  1.00  0.00     0.011 C 
BRANCH   7   8
HETATM    8  C   LIG     1      18.769  39.598  20.499  1.00  0.00     0.110 C 
BRANCH   8   9
HETATM    9  C   LIG     1      19.735  38.805  19.667  1.00  0.00     0.139 C 
HETATM   10  O   LIG     1      19.608  37.556  19.576  1.00  0.00    -0.650 OA
BRANCH   9  11
HETATM   11  O   LIG     1      20.783  39.434  19.000  1.00  0.00    -0.776 OA
HETATM   12  H   LIG     1      21.517  38.898  18.552  1.00  0.00     0.167 HD
ENDBRANCH   9  11
ENDBRANCH   8   9
ENDBRANCH   7   8
ENDBRANCH   1   7
TORSDOF 7
ENDMDL
MODEL 12
REMARK VINA RESULT:      -4.7      2.257      4.212
REMARK  7 active torsions:
REMARK  status: ('A' for Active; 'I' for Inactive)
REMARK    1  A    between atoms: O_1  and  C_2 
REMARK    2  A    between atoms: C_2  and  C_3 
REMARK    3  A    between atoms: C_3  and  C_4 
REMARK    4  A    between atoms: C_4  and  C_5 
REMARK    5  A    between atoms: C_5  and  C_6 
REMARK    6  A    between atoms: C_6  and  C_7 
REMARK    7  A    between atoms: C_7  and  O_8 
ROOT
HETATM    1  C   LIG     1      16.733  35.118  24.514  1.00  0.00     0.011 C 
ENDROOT
BRANCH   1   2
HETATM    2  C   LIG     1      17.906  35.321  25.477  1.00  0.00     0.110 C 
BRANCH   2   3
HETATM    3  C   LIG     1      17.978  36.750  25.924  1.00  0.00     0.139 C 
HETATM    4  O   LIG     1      17.093  37.568  25.558  1.00  0.00    -0.650 OA
BRANCH   3   5
HETATM    5  O   LIG     1      19.040  37.194  26.707  1.00  0.00    -0.776 OA
HETATM    6  H   LIG     1      18.890  37.534  27.649  1.00  0.00     0.167 HD
ENDBRANCH   3   5
ENDBRANCH   2   3
ENDBRANCH   1   2
BRANCH   1   7
HETATM    7  C   LIG     1      17.210  35.145  23.055  1.00  0.00     0.011 C 
BRANCH   7   8
HETATM    8  C   LIG     1      16.252  35.929  22.148  1.00  0.00     0.110 C 
BRANCH   8   9
HETATM    9  C   LIG     1      16.285  37.403  22.434  1.00  0.00     0.139 C 
HETATM   10  O   LIG     1      17.266  38.095  22.052  1.00  0.00    -0.650 OA
BRANCH   9  11
HETATM   11  O   LIG     1      15.247  38.017  23.129  1.00  0.00    -0.776 OA
HETATM   12  H   LIG     1      15.015  38.991  22.974  1.00  0.00     0.167 HD
ENDBRANCH   9  11
ENDBRANCH   8   9
ENDBRANCH   7   8
ENDBRANCH   1   7
TORSDOF 7
ENDMDL
MODEL 13
REMARK VINA RESULT:      -4.6      6.578      9.109
REMARK  7 active torsions:
REMARK  status: ('A' for Active; 'I' for Inactive)
REMARK    1  A    between atoms: O_1  and  C_2 
REMARK    2  A    between atoms: C_2  and  C_3 
REMARK    3  A    between atoms: C_3  and  C_4 
REMARK    4  A    between atoms: C_4  and  C_5 
REMARK    5  A    between atoms: C_5  and  C_6 
REMARK    6  A    between atoms: C_6  and  C_7 
REMARK    7  A    between atoms: C_7  and  O_8 
ROOT
HETATM    1  C   LIG     1      16.042  32.068  15.661  1.00  0.00     0.011 C 
ENDROOT
BRANCH   1   2
HETATM    2  C   LIG     1      15.122  33.008  16.445  1.00  0.00     0.110 C 
BRANCH   2   3
HETATM    3  C   LIG     1      14.827  32.442  17.802  1.00  0.00     0.139 C 
HETATM    4  O   LIG     1      15.620  32.654  18.757  1.00  0.00    -0.650 OA
BRANCH   3   5
HETATM    5  O   LIG     1      13.705  31.645  18.007  1.00  0.00    -0.776 OA
HETATM    6  H   LIG     1      13.708  30.663  17.762  1.00  0.00     0.167 HD
ENDBRANCH   3   5
ENDBRANCH   2   3
ENDBRANCH   1   2
BRANCH   1   7
HETATM    7  C   LIG     1      15.321  31.492  14.434  1.00  0.00     0.011 C 
BRANCH   7   8
HETATM    8  C   LIG     1      14.928  30.022  14.631  1.00  0.00     0.110 C 
BRANCH   8   9
HETATM    9  C   LIG     1      13.440  29.848  14.743  1.00  0.00     0.139 C 
HETATM   10  O   LIG     1      12.780  30.575  15.531  1.00  0.00    -0.650 OA
BRANCH   9  11
HETATM   11  O   LIG     1      12.779  28.880  13.992  1.00  0.00    -0.776 OA
HETATM   12  H   LIG     1      12.098  29.137  13.287  1.00  0.00     0.167 HD
ENDBRANCH   9  11
ENDBRANCH   8   9
ENDBRANCH   7   8
ENDBRANCH   1   7
TORSDOF 7
ENDMDL
MODEL 14
REMARK VINA RESULT:      -4.5      7.029      8.745
REMARK  7 active torsions:
REMARK  status: ('A' for Active; 'I' for Inactive)
REMARK    1  A    between atoms: O_1  and  C_2 
REMARK    2  A    between atoms: C_2  and  C_3 
REMARK    3  A    between atoms: C_3  and  C_4 
REMARK    4  A    between atoms: C_4  and  C_5 
REMARK    5  A    between atoms: C_5  and  C_6 
REMARK    6  A    between atoms: C_6  and  C_7 
REMARK    7  A    between atoms: C_7  and  O_8 
ROOT
HETATM    1  C   LIG     1      13.222  30.560  16.233  1.00  0.00     0.011 C 
ENDROOT
BRANCH   1   2
HETATM    2  C   LIG     1      14.108  30.469  14.988  1.00  0.00     0.110 C 
BRANCH   2   3
HETATM    3  C   LIG     1      13.831  29.201  14.238  1.00  0.00     0.139 C 
HETATM    4  O   LIG     1      14.786  28.467  13.870  1.00  0.00    -0.650 OA
BRANCH   3   5
HETATM    5  O   LIG     1      12.527  28.846  13.906  1.00  0.00    -0.776 OA
HETATM    6  H   LIG     1      11.900  28.451  14.595  1.00  0.00     0.167 HD
ENDBRANCH   3   5
ENDBRANCH   2   3
ENDBRANCH   1   2
BRANCH   1   7
HETATM    7  C   LIG     1      13.166  32.000  16.764  1.00  0.00     0.011 C 
BRANCH   7   8
HETATM    8  C   LIG     1      14.445  32.389  17.517  1.00  0.00     0.110 C 
BRANCH   8   9
HETATM    9  C   LIG     1      15.275  33.376  16.746  1.00  0.00     0.139 C 
HETATM   10  O   LIG     1      14.931  34.586  16.703  1.00  0.00    -0.650 OA
BRANCH   9  11
HETATM   11  O   LIG     1      16.418  32.966  16.066  1.00  0.00    -0.776 OA
HETATM   12  H   LIG     1      16.425  32.879  15.057  1.00  0.00     0.167 HD
ENDBRANCH   9  11
ENDBRANCH   8   9
ENDBRANCH   7   8
ENDBRANCH   1   7
TORSDOF 7
ENDMDL
MODEL 15
REMARK VINA RESULT:      -4.5      7.083      9.670
REMARK  7 active torsions:
REMARK  status: ('A' for Active; 'I' for Inactive)
REMARK    1  A    between atoms: O_1  and  C_2 
REMARK    2  A    between atoms: C_2  and  C_3 
REMARK    3  A    between atoms: C_3  and  C_4 
REMARK    4  A    between atoms: C_4  and  C_5 
REMARK    5  A    between atoms: C_5  and  C_6 
REMARK    6  A    between atoms: C_6  and  C_7 
REMARK    7  A    between atoms: C_7  and  O_8 
ROOT
HETATM    1  C   LIG     1      13.291  32.034  16.882  1.00  0.00     0.011 C 
ENDROOT
BRANCH   1   2
HETATM    2  C   LIG     1      14.785  32.252  17.135  1.00  0.00     0.110 C 
BRANCH   2   3
HETATM    3  C   LIG     1      15.259  33.494  16.442  1.00  0.00     0.139 C 
HETATM    4  O   LIG     1      14.842  34.621  16.819  1.00  0.00    -0.650 OA
BRANCH   3   5
HETATM    5  O   LIG     1      16.123  33.412  15.355  1.00  0.00    -0.776 OA
HETATM    6  H   LIG     1      15.781  33.502  14.406  1.00  0.00     0.167 HD
ENDBRANCH   3   5
ENDBRANCH   2   3
ENDBRANCH   1   2
BRANCH   1   7
HETATM    7  C   LIG     1      13.050  30.730  16.107  1.00  0.00     0.011 C 
BRANCH   7   8
HETATM    8  C   LIG     1      14.141  30.470  15.060  1.00  0.00     0.110 C 
BRANCH   8   9
HETATM    9  C   LIG     1      13.873  29.224  14.265  1.00  0.00     0.139 C 
HETATM   10  O   LIG     1      14.834  28.513  13.869  1.00  0.00    -0.650 OA
BRANCH   9  11
HETATM   11  O   LIG     1      12.571  28.848  13.948  1.00  0.00    -0.776 OA
HETATM   12  H   LIG     1      12.377  28.233  13.167  1.00  0.00     0.167 HD
ENDBRANCH   9  11
ENDBRANCH   8   9
ENDBRANCH   7   8
ENDBRANCH   1   7
TORSDOF 7
ENDMDL
MODEL 16
REMARK VINA RESULT:      -4.5      8.341      9.769
REMARK  7 active torsions:
REMARK  status: ('A' for Active; 'I' for Inactive)
REMARK    1  A    between atoms: O_1  and  C_2 
REMARK    2  A    between atoms: C_2  and  C_3 
REMARK    3  A    between atoms: C_3  and  C_4 
REMARK    4  A    between atoms: C_4  and  C_5 
REMARK    5  A    between atoms: C_5  and  C_6 
REMARK    6  A    between atoms: C_6  and  C_7 
REMARK    7  A    between atoms: C_7  and  O_8 
ROOT
HETATM    1  C   LIG     1      15.772  31.717  13.646  1.00  0.00     0.011 C 
ENDROOT
BRANCH   1   2
HETATM    2  C   LIG     1      16.731  32.730  14.277  1.00  0.00     0.110 C 
BRANCH   2   3
HETATM    3  C   LIG     1      17.501  33.456  13.215  1.00  0.00     0.139 C 
HETATM    4  O   LIG     1      17.497  34.715  13.187  1.00  0.00    -0.650 OA
BRANCH   3   5
HETATM    5  O   LIG     1      18.187  32.751  12.231  1.00  0.00    -0.776 OA
HETATM    6  H   LIG     1      17.694  32.310  11.463  1.00  0.00     0.167 HD
ENDBRANCH   3   5
ENDBRANCH   2   3
ENDBRANCH   1   2
BRANCH   1   7
HETATM    7  C   LIG     1      15.501  30.547  14.603  1.00  0.00     0.011 C 
BRANCH   7   8
HETATM    8  C   LIG     1      13.999  30.307  14.811  1.00  0.00     0.110 C 
BRANCH   8   9
HETATM    9  C   LIG     1      13.535  30.782  16.158  1.00  0.00     0.139 C 
HETATM   10  O   LIG     1      14.230  31.609  16.807  1.00  0.00    -0.650 OA
BRANCH   9  11
HETATM   11  O   LIG     1      12.347  30.309  16.709  1.00  0.00    -0.776 OA
HETATM   12  H   LIG     1      11.550  30.085  16.125  1.00  0.00     0.167 HD
ENDBRANCH   9  11
ENDBRANCH   8   9
ENDBRANCH   7   8
ENDBRANCH   1   7
TORSDOF 7
ENDMDL
MODEL 17
REMARK VINA RESULT:      -4.4      6.912      8.054
REMARK  7 active torsions:
REMARK  status: ('A' for Active; 'I' for Inactive)
REMARK    1  A    between atoms: O_1  and  C_2 
REMARK    2  A    between atoms: C_2  and  C_3 
REMARK    3  A    between atoms: C_3  and  C_4 
REMARK    4  A    between atoms: C_4  and  C_5 
REMARK    5  A    between atoms: C_5  and  C_6 
REMARK    6  A    between atoms: C_6  and  C_7 
REMARK    7  A    between atoms: C_7  and  O_8 
ROOT
HETATM    1  C   LIG     1      16.518  32.044  15.595  1.00  0.00     0.011 C 
ENDROOT
BRANCH   1   2
HETATM    2  C   LIG     1      17.247  33.099  14.758  1.00  0.00     0.110 C 
BRANCH   2   3
HETATM    3  C   LIG     1      16.903  34.477  15.236  1.00  0.00     0.139 C 
HETATM    4  O   LIG     1      17.350  35.484  14.625  1.00  0.00    -0.650 OA
BRANCH   3   5
HETATM    5  O   LIG     1      16.128  34.658  16.378  1.00  0.00    -0.776 OA
HETATM    6  H   LIG     1      15.215  35.092  16.329  1.00  0.00     0.167 HD
ENDBRANCH   3   5
ENDBRANCH   2   3
ENDBRANCH   1   2
BRANCH   1   7
HETATM    7  C   LIG     1      15.207  31.617  14.919  1.00  0.00     0.011 C 
BRANCH   7   8
HETATM    8  C   LIG     1      14.233  30.961  15.908  1.00  0.00     0.110 C 
BRANCH   8   9
HETATM    9  C   LIG     1      14.006  31.813  17.123  1.00  0.00     0.139 C 
HETATM   10  O   LIG     1      14.053  31.296  18.271  1.00  0.00    -0.650 OA
BRANCH   9  11
HETATM   11  O   LIG     1      13.732  33.172  16.999  1.00  0.00    -0.776 OA
HETATM   12  H   LIG     1      13.547  33.748  17.812  1.00  0.00     0.167 HD
ENDBRANCH   9  11
ENDBRANCH   8   9
ENDBRANCH   7   8
ENDBRANCH   1   7
TORSDOF 7
ENDMDL
MODEL 18
REMARK VINA RESULT:      -4.4      3.012      5.633
REMARK  7 active torsions:
REMARK  status: ('A' for Active; 'I' for Inactive)
REMARK    1  A    between atoms: O_1  and  C_2 
REMARK    2  A    between atoms: C_2  and  C_3 
REMARK    3  A    between atoms: C_3  and  C_4 
REMARK    4  A    between atoms: C_4  and  C_5 
REMARK    5  A    between atoms: C_5  and  C_6 
REMARK    6  A    between atoms: C_6  and  C_7 
REMARK    7  A    between atoms: C_7  and  O_8 
ROOT
HETATM    1  C   LIG     1      14.843  34.121  21.276  1.00  0.00     0.011 C 
ENDROOT
BRANCH   1   2
HETATM    2  C   LIG     1      15.265  35.591  21.332  1.00  0.00     0.110 C 
BRANCH   2   3
HETATM    3  C   LIG     1      16.697  35.710  21.760  1.00  0.00     0.139 C 
HETATM    4  O   LIG     1      17.043  35.330  22.909  1.00  0.00    -0.650 OA
BRANCH   3   5
HETATM    5  O   LIG     1      17.643  36.278  20.912  1.00  0.00    -0.776 OA
HETATM    6  H   LIG     1      17.501  36.304  19.910  1.00  0.00     0.167 HD
ENDBRANCH   3   5
ENDBRANCH   2   3
ENDBRANCH   1   2
BRANCH   1   7
HETATM    7  C   LIG     1      15.727  33.332  20.300  1.00  0.00     0.011 C 
BRANCH   7   8
HETATM    8  C   LIG     1      15.015  32.089  19.750  1.00  0.00     0.110 C 
BRANCH   8   9
HETATM    9  C   LIG     1      14.717  32.213  18.283  1.00  0.00     0.139 C 
HETATM   10  O   LIG     1      15.614  32.608  17.491  1.00  0.00    -0.650 OA
BRANCH   9  11
HETATM   11  O   LIG     1      13.454  31.908  17.785  1.00  0.00    -0.776 OA
HETATM   12  H   LIG     1      12.625  32.374  18.133  1.00  0.00     0.167 HD
ENDBRANCH   9  11
ENDBRANCH   8   9
ENDBRANCH   7   8
ENDBRANCH   1   7
TORSDOF 7
ENDMDL
MODEL 19
REMARK VINA RESULT:      -4.3      6.756      8.483
REMARK  7 active torsions:
REMARK  status: ('A' for Active; 'I' for Inactive)
REMARK    1  A    between atoms: O_1  and  C_2 
REMARK    2  A    between atoms: C_2  and  C_3 
REMARK    3  A    between atoms: C_3  and  C_4 
REMARK    4  A    between atoms: C_4  and  C_5 
REMARK    5  A    between atoms: C_5  and  C_6 
REMARK    6  A    between atoms: C_6  and  C_7 
REMARK    7  A    between atoms: C_7  and  O_8 
ROOT
HETATM    1  C   LIG     1      14.880  30.336  15.099  1.00  0.00     0.011 C 
ENDROOT
BRANCH   1   2
HETATM    2  C   LIG     1      15.258  30.852  13.708  1.00  0.00     0.110 C 
BRANCH   2   3
HETATM    3  C   LIG     1      16.248  31.973  13.815  1.00  0.00     0.139 C 
HETATM    4  O   LIG     1      17.117  31.959  14.726  1.00  0.00    -0.650 OA
BRANCH   3   5
HETATM    5  O   LIG     1      16.189  33.055  12.942  1.00  0.00    -0.776 OA
HETATM    6  H   LIG     1      16.501  33.976  13.227  1.00  0.00     0.167 HD
ENDBRANCH   3   5
ENDBRANCH   2   3
ENDBRANCH   1   2
BRANCH   1   7
HETATM    7  C   LIG     1      13.778  31.201  15.726  1.00  0.00     0.011 C 
BRANCH   7   8
HETATM    8  C   LIG     1      14.058  31.514  17.202  1.00  0.00     0.110 C 
BRANCH   8   9
HETATM    9  C   LIG     1      14.718  32.852  17.379  1.00  0.00     0.139 C 
HETATM   10  O   LIG     1      14.795  33.647  16.405  1.00  0.00    -0.650 OA
BRANCH   9  11
HETATM   11  O   LIG     1      15.258  33.222  18.607  1.00  0.00    -0.776 OA
HETATM   12  H   LIG     1      16.146  33.707  18.665  1.00  0.00     0.167 HD
ENDBRANCH   9  11
ENDBRANCH   8   9
ENDBRANCH   7   8
ENDBRANCH   1   7
TORSDOF 7
ENDMDL
MODEL 20
REMARK VINA RESULT:      -4.2      4.055      6.532
REMARK  7 active torsions:
REMARK  status: ('A' for Active; 'I' for Inactive)
REMARK    1  A    between atoms: O_1  and  C_2 
REMARK    2  A    between atoms: C_2  and  C_3 
REMARK    3  A    between atoms: C_3  and  C_4 
REMARK    4  A    between atoms: C_4  and  C_5 
REMARK    5  A    between atoms: C_5  and  C_6 
REMARK    6  A    between atoms: C_6  and  C_7 
REMARK    7  A    between atoms: C_7  and  O_8 
ROOT
HETATM    1  C   LIG     1      15.321  32.200  19.858  1.00  0.00     0.011 C 
ENDROOT
BRANCH   1   2
HETATM    2  C   LIG     1      15.698  33.676  20.013  1.00  0.00     0.110 C 
BRANCH   2   3
HETATM    3  C   LIG     1      15.120  34.236  21.277  1.00  0.00     0.139 C 
HETATM    4  O   LIG     1      15.797  35.031  21.980  1.00  0.00    -0.650 OA
BRANCH   3   5
HETATM    5  O   LIG     1      13.853  33.851  21.707  1.00  0.00    -0.776 OA
HETATM    6  H   LIG     1      13.730  33.307  22.552  1.00  0.00     0.167 HD
ENDBRANCH   3   5
ENDBRANCH   2   3
ENDBRANCH   1   2
BRANCH   1   7
HETATM    7  C   LIG     1      14.662  31.941  18.496  1.00  0.00     0.011 C 
BRANCH   7   8
HETATM    8  C   LIG     1      14.962  33.057  17.486  1.00  0.00     0.110 C 
BRANCH   8   9
HETATM    9  C   LIG     1      15.225  32.515  16.110  1.00  0.00     0.139 C 
HETATM   10  O   LIG     1      14.761  31.392  15.778  1.00  0.00    -0.650 OA
BRANCH   9  11
HETATM   11  O   LIG     1      15.988  33.236  15.195  1.00  0.00    -0.776 OA
HETATM   12  H   LIG     1      16.323  32.809  14.340  1.00  0.00     0.167 HD
ENDBRANCH   9  11
ENDBRANCH   8   9
ENDBRANCH   7   8
ENDBRANCH   1   7
TORSDOF 7
ENDMDL
