MODEL 1
REMARK VINA RESULT:      -3.3      0.000      0.000
REMARK  0 active torsions:
REMARK  status: ('A' for Active; 'I' for Inactive)
ROOT
HETATM    1 CL   LIG     1      17.142  35.210  23.416  1.00  0.00    -0.101 Cl
HETATM    2  C   LIG     1      17.113  36.016  25.001  1.00  0.00     0.225 C 
HETATM    3 BR   LIG     1      18.204  35.023  26.250  1.00  0.00    -0.062 Br
HETATM    4 BR   LIG     1      17.807  37.811  24.824  1.00  0.00    -0.062 Br
ENDROOT
TORSDOF 0
ENDMDL
MODEL 2
REMARK VINA RESULT:      -3.1      2.154      2.739
REMARK  0 active torsions:
REMARK  status: ('A' for Active; 'I' for Inactive)
ROOT
HETATM    1 CL   LIG     1      18.180  37.815  24.727  1.00  0.00    -0.101 Cl
HETATM    2  C   LIG     1      17.156  36.368  24.869  1.00  0.00     0.225 C 
HETATM    3 BR   LIG     1      16.993  35.521  23.139  1.00  0.00    -0.062 Br
HETATM    4 BR   LIG     1      17.957  35.132  26.121  1.00  0.00    -0.062 Br
ENDROOT
TORSDOF 0
ENDMDL
MODEL 3
REMARK VINA RESULT:      -3.0      1.792      2.245
REMARK  0 active torsions:
REMARK  status: ('A' for Active; 'I' for Inactive)
ROOT
HETATM    1 CL   LIG     1      17.052  35.487  23.158  1.00  0.00    -0.101 Cl
HETATM    2  C   LIG     1      16.724  37.200  23.501  1.00  0.00     0.225 C 
HETATM    3 BR   LIG     1      17.478  37.670  25.218  1.00  0.00    -0.062 Br
HETATM    4 BR   LIG     1      17.522  38.298  22.124  1.00  0.00    -0.062 Br
ENDROOT
TORSDOF 0
ENDMDL
MODEL 4
REMARK VINA RESULT:      -2.9      2.810      2.977
REMARK  0 active torsions:
REMARK  status: ('A' for Active; 'I' for Inactive)
ROOT
HETATM    1 CL   LIG     1      17.691  38.180  21.771  1.00  0.00    -0.101 Cl
HETATM    2  C   LIG     1      16.644  37.216  22.837  1.00  0.00     0.225 C 
HETATM    3 BR   LIG     1      16.838  35.341  22.408  1.00  0.00    -0.062 Br
HETATM    4 BR   LIG     1      17.150  37.513  24.679  1.00  0.00    -0.062 Br
ENDROOT
TORSDOF 0
ENDMDL
MODEL 5
REMARK VINA RESULT:      -2.8      2.680      2.950
REMARK  0 active torsions:
REMARK  status: ('A' for Active; 'I' for Inactive)
ROOT
HETATM    1 CL   LIG     1      15.407  37.878  22.809  1.00  0.00    -0.101 Cl
HETATM    2  C   LIG     1      16.978  37.095  23.097  1.00  0.00     0.225 C 
HETATM    3 BR   LIG     1      17.383  37.138  24.986  1.00  0.00    -0.062 Br
HETATM    4 BR   LIG     1      16.903  35.260  22.494  1.00  0.00    -0.062 Br
ENDROOT
TORSDOF 0
ENDMDL
MODEL 6
REMARK VINA RESULT:      -2.8      4.605      4.605
REMARK  0 active torsions:
REMARK  status: ('A' for Active; 'I' for Inactive)
ROOT
HETATM    1 CL   LIG     1      19.476  36.727  19.581  1.00  0.00    -0.101 Cl
HETATM    2  C   LIG     1      18.014  37.382  20.354  1.00  0.00     0.225 C 
HETATM    3 BR   LIG     1      17.164  35.998  21.403  1.00  0.00    -0.062 Br
HETATM    4 BR   LIG     1      18.499  38.857  21.505  1.00  0.00    -0.062 Br
ENDROOT
TORSDOF 0
ENDMDL
MODEL 7
REMARK VINA RESULT:      -2.8     12.863     12.948
REMARK  0 active torsions:
REMARK  status: ('A' for Active; 'I' for Inactive)
ROOT
HETATM    1 CL   LIG     1      16.513  43.586  34.777  1.00  0.00    -0.101 Cl
HETATM    2  C   LIG     1      16.669  45.283  34.270  1.00  0.00     0.225 C 
HETATM    3 BR   LIG     1      18.309  45.511  33.272  1.00  0.00    -0.062 Br
HETATM    4 BR   LIG     1      15.164  45.764  33.156  1.00  0.00    -0.062 Br
ENDROOT
TORSDOF 0
ENDMDL
MODEL 8
REMARK VINA RESULT:      -2.7      1.725      2.689
REMARK  0 active torsions:
REMARK  status: ('A' for Active; 'I' for Inactive)
ROOT
HETATM    1 CL   LIG     1      17.047  35.098  23.374  1.00  0.00    -0.101 Cl
HETATM    2  C   LIG     1      17.280  36.856  23.503  1.00  0.00     0.225 C 
HETATM    3 BR   LIG     1      15.708  37.765  22.842  1.00  0.00    -0.062 Br
HETATM    4 BR   LIG     1      17.571  37.333  25.354  1.00  0.00    -0.062 Br
ENDROOT
TORSDOF 0
ENDMDL
MODEL 9
REMARK VINA RESULT:      -2.7      3.971      4.532
REMARK  0 active torsions:
REMARK  status: ('A' for Active; 'I' for Inactive)
ROOT
HETATM    1 CL   LIG     1      16.218  35.496  20.334  1.00  0.00    -0.101 Cl
HETATM    2  C   LIG     1      17.651  36.279  21.037  1.00  0.00     0.225 C 
HETATM    3 BR   LIG     1      18.796  36.923  19.618  1.00  0.00    -0.062 Br
HETATM    4 BR   LIG     1      17.097  37.765  22.142  1.00  0.00    -0.062 Br
ENDROOT
TORSDOF 0
ENDMDL
MODEL 10
REMARK VINA RESULT:      -2.7      4.098      4.527
REMARK  0 active torsions:
REMARK  status: ('A' for Active; 'I' for Inactive)
ROOT
HETATM    1 CL   LIG     1      17.062  35.137  23.165  1.00  0.00    -0.101 Cl
HETATM    2  C   LIG     1      16.421  35.689  21.601  1.00  0.00     0.225 C 
HETATM    3 BR   LIG     1      17.839  36.512  20.576  1.00  0.00    -0.062 Br
HETATM    4 BR   LIG     1      15.712  34.178  20.625  1.00  0.00    -0.062 Br
ENDROOT
TORSDOF 0
ENDMDL
MODEL 11
REMARK VINA RESULT:      -2.7      5.201      5.973
REMARK  0 active torsions:
REMARK  status: ('A' for Active; 'I' for Inactive)
ROOT
HETATM    1 CL   LIG     1      18.339  36.589  19.978  1.00  0.00    -0.101 Cl
HETATM    2  C   LIG     1      19.212  38.138  20.006  1.00  0.00     0.225 C 
HETATM    3 BR   LIG     1      18.965  39.049  18.319  1.00  0.00    -0.062 Br
HETATM    4 BR   LIG     1      18.526  39.239  21.440  1.00  0.00    -0.062 Br
ENDROOT
TORSDOF 0
ENDMDL
MODEL 12
REMARK VINA RESULT:      -2.7      9.775      9.888
REMARK  0 active torsions:
REMARK  status: ('A' for Active; 'I' for Inactive)
ROOT
HETATM    1 CL   LIG     1      14.566  31.773  18.675  1.00  0.00    -0.101 Cl
HETATM    2  C   LIG     1      14.081  32.243  17.030  1.00  0.00     0.225 C 
HETATM    3 BR   LIG     1      15.657  32.639  15.981  1.00  0.00    -0.062 Br
HETATM    4 BR   LIG     1      13.106  30.792  16.206  1.00  0.00    -0.062 Br
ENDROOT
TORSDOF 0
ENDMDL
MODEL 13
REMARK VINA RESULT:      -2.6      9.417      9.448
REMARK  0 active torsions:
REMARK  status: ('A' for Active; 'I' for Inactive)
ROOT
HETATM    1 CL   LIG     1      15.854  32.706  16.000  1.00  0.00    -0.101 Cl
HETATM    2  C   LIG     1      14.433  32.488  17.046  1.00  0.00     0.225 C 
HETATM    3 BR   LIG     1      13.398  30.979  16.423  1.00  0.00    -0.062 Br
HETATM    4 BR   LIG     1      15.013  32.167  18.862  1.00  0.00    -0.062 Br
ENDROOT
TORSDOF 0
ENDMDL
MODEL 14
REMARK VINA RESULT:      -2.6      9.265      9.265
REMARK  0 active torsions:
REMARK  status: ('A' for Active; 'I' for Inactive)
ROOT
HETATM    1 CL   LIG     1      13.435  30.838  16.679  1.00  0.00    -0.101 Cl
HETATM    2  C   LIG     1      14.291  32.319  17.164  1.00  0.00     0.225 C 
HETATM    3 BR   LIG     1      15.004  32.098  18.947  1.00  0.00    -0.062 Br
HETATM    4 BR   LIG     1      15.738  32.661  15.928  1.00  0.00    -0.062 Br
ENDROOT
TORSDOF 0
ENDMDL
MODEL 15
REMARK VINA RESULT:      -2.6     11.802     11.802
REMARK  0 active torsions:
REMARK  status: ('A' for Active; 'I' for Inactive)
ROOT
HETATM    1 CL   LIG     1      15.406  29.083  14.212  1.00  0.00    -0.101 Cl
HETATM    2  C   LIG     1      14.686  30.693  14.441  1.00  0.00     0.225 C 
HETATM    3 BR   LIG     1      13.387  30.622  15.870  1.00  0.00    -0.062 Br
HETATM    4 BR   LIG     1      16.074  31.961  14.893  1.00  0.00    -0.062 Br
ENDROOT
TORSDOF 0
ENDMDL
MODEL 16
REMARK VINA RESULT:      -2.6     13.124     13.432
REMARK  0 active torsions:
REMARK  status: ('A' for Active; 'I' for Inactive)
ROOT
HETATM    1 CL   LIG     1      16.422  43.397  34.776  1.00  0.00    -0.101 Cl
HETATM    2  C   LIG     1      16.984  44.979  34.191  1.00  0.00     0.225 C 
HETATM    3 BR   LIG     1      15.543  45.874  33.263  1.00  0.00    -0.062 Br
HETATM    4 BR   LIG     1      17.553  46.057  35.691  1.00  0.00    -0.062 Br
ENDROOT
TORSDOF 0
ENDMDL
MODEL 17
REMARK VINA RESULT:      -2.5     12.713     12.806
REMARK  0 active torsions:
REMARK  status: ('A' for Active; 'I' for Inactive)
ROOT
HETATM    1 CL   LIG     1      15.596  31.232  13.321  1.00  0.00    -0.101 Cl
HETATM    2  C   LIG     1      15.222  29.982  14.529  1.00  0.00     0.225 C 
HETATM    3 BR   LIG     1      13.495  30.343  15.318  1.00  0.00    -0.062 Br
HETATM    4 BR   LIG     1      15.192  28.248  13.674  1.00  0.00    -0.062 Br
ENDROOT
TORSDOF 0
ENDMDL
MODEL 18
REMARK VINA RESULT:      -2.5     11.552     11.557
REMARK  0 active torsions:
REMARK  status: ('A' for Active; 'I' for Inactive)
ROOT
HETATM    1 CL   LIG     1      16.362  31.943  15.282  1.00  0.00    -0.101 Cl
HETATM    2  C   LIG     1      14.832  31.176  14.799  1.00  0.00     0.225 C 
HETATM    3 BR   LIG     1      15.192  29.424  14.064  1.00  0.00    -0.062 Br
HETATM    4 BR   LIG     1      13.682  31.004  16.344  1.00  0.00    -0.062 Br
ENDROOT
TORSDOF 0
ENDMDL
MODEL 19
REMARK VINA RESULT:      -2.5     10.691     10.691
REMARK  0 active torsions:
REMARK  status: ('A' for Active; 'I' for Inactive)
ROOT
HETATM    1 CL   LIG     1      12.633  31.939  16.760  1.00  0.00    -0.101 Cl
HETATM    2  C   LIG     1      14.241  31.267  16.405  1.00  0.00     0.225 C 
HETATM    3 BR   LIG     1      14.155  30.212  14.787  1.00  0.00    -0.062 Br
HETATM    4 BR   LIG     1      15.505  32.710  16.168  1.00  0.00    -0.062 Br
ENDROOT
TORSDOF 0
ENDMDL
MODEL 20
REMARK VINA RESULT:      -2.5     11.436     11.529
REMARK  0 active torsions:
REMARK  status: ('A' for Active; 'I' for Inactive)
ROOT
HETATM    1 CL   LIG     1      15.186  30.666  13.414  1.00  0.00    -0.101 Cl
HETATM    2  C   LIG     1      15.045  30.793  15.182  1.00  0.00     0.225 C 
HETATM    3 BR   LIG     1      15.701  32.517  15.760  1.00  0.00    -0.062 Br
HETATM    4 BR   LIG     1      13.191  30.602  15.696  1.00  0.00    -0.062 Br
ENDROOT
TORSDOF 0
ENDMDL
