REMARK  6 active torsions:
REMARK  status: ('A' for Active; 'I' for Inactive)
REMARK    1  A    between atoms: C_13  and  O_14 
REMARK    2  A    between atoms: C_20  and  O_21 
REMARK    3  A    between atoms: C_22  and  C_24 
REMARK    4  A    between atoms: C_22  and  O_23 
REMARK    5  A    between atoms: C_24  and  C_25 
REMARK    6  A    between atoms: C_25  and  O_26 
ROOT
HETATM    1  O   LIG     1       5.669   0.902  -2.344  1.00  0.00    -0.289 OA
HETATM    2  C   LIG     1       4.763   0.475  -1.577  1.00  0.00     0.172 C 
HETATM    3  C   LIG     1       4.505   1.144  -0.305  1.00  0.00     0.052 C 
HETATM    4  C   LIG     1       3.588   0.664   0.537  1.00  0.00    -0.006 C 
HETATM    5  C   LIG     1       2.825  -0.645   0.302  1.00  0.00     0.036 C 
HETATM    6  C   LIG     1       3.510  -1.675   1.238  1.00  0.00     0.028 C 
HETATM    7  C   LIG     1       3.006  -1.169  -1.140  1.00  0.00    -0.061 C 
HETATM    8  C   LIG     1       2.057  -2.240  -1.654  1.00  0.00     0.036 C 
HETATM    9  C   LIG     1       0.567  -1.889  -1.410  1.00  0.00     0.013 C 
HETATM   10  C   LIG     1       0.391  -0.544  -0.667  1.00  0.00     0.035 C 
HETATM   11  C   LIG     1       1.255  -0.524   0.640  1.00  0.00     0.147 C 
HETATM   12  F   LIG     1       0.927  -1.650   1.380  1.00  0.00    -0.238 F 
HETATM   13  C   LIG     1       0.837   0.703   1.526  1.00  0.00     0.160 C 
HETATM   14  C   LIG     1      -0.682   0.741   1.915  1.00  0.00     0.048 C 
HETATM   15  C   LIG     1      -1.645  -0.077   0.974  1.00  0.00     0.003 C 
HETATM   16  C   LIG     1      -1.788  -1.552   1.524  1.00  0.00     0.019 C 
HETATM   17  C   LIG     1      -1.088  -0.066  -0.459  1.00  0.00     0.007 C 
HETATM   18  C   LIG     1      -2.212  -0.643  -1.321  1.00  0.00     0.041 C 
HETATM   19  C   LIG     1      -3.520  -0.199  -0.624  1.00  0.00     0.161 C 
HETATM   20  C   LIG     1      -3.101   0.515   0.723  1.00  0.00     0.153 C 
HETATM   21  C   LIG     1       3.941  -0.672  -1.970  1.00  0.00     0.058 C 
ENDROOT
BRANCH  20  22
HETATM   22  C   LIG     1      -3.170   2.064   0.612  1.00  0.00     0.187 C 
HETATM   23  O   LIG     1      -3.054   2.727   1.638  1.00  0.00    -0.292 OA
BRANCH  22  24
HETATM   24  C   LIG     1      -3.506   2.843  -0.648  1.00  0.00     0.245 C 
BRANCH  24  25
HETATM   25  O   LIG     1      -2.580   2.582  -1.668  1.00  0.00    -0.393 OA
HETATM   26  H   LIG     1      -2.058   3.417  -1.818  1.00  0.00     0.209 HD
ENDBRANCH  24  25
ENDBRANCH  22  24
ENDBRANCH  20  22
BRANCH  20  27
HETATM   27  O   LIG     1      -3.990   0.143   1.757  1.00  0.00    -0.378 OA
HETATM   28  H   LIG     1      -3.566   0.385   2.623  1.00  0.00     0.211 HD
ENDBRANCH  20  27
BRANCH  19  29
HETATM   29  O   LIG     1      -4.319  -1.333  -0.378  1.00  0.00    -0.392 OA
HETATM   30  H   LIG     1      -5.224  -0.998  -0.132  1.00  0.00     0.210 HD
ENDBRANCH  19  29
BRANCH  13  31
HETATM   31  O   LIG     1       1.211   1.929   0.935  1.00  0.00    -0.392 OA
HETATM   32  H   LIG     1       0.628   2.100   0.157  1.00  0.00     0.210 HD
ENDBRANCH  13  31
TORSDOF 6
