REMARK  7 active torsions:
REMARK  status: ('A' for Active; 'I' for Inactive)
REMARK    1  A    between atoms: C_2  and  C_3 
REMARK    2  A    between atoms: C_3  and  C_4 
REMARK    3  A    between atoms: C_4  and  C_5 
REMARK    4  A    between atoms: C_5  and  C_6 
REMARK    5  A    between atoms: C_6  and  C_7 
REMARK    6  A    between atoms: C_7  and  C_8 
REMARK    7  A    between atoms: C_8  and  C_9 
ROOT
HETATM    1  C   LIG     1       0.017  -0.785   0.866  1.00  0.00     0.000 C 
ENDROOT
BRANCH   1   2
HETATM    2  C   LIG     1      -0.898   0.419   1.147  1.00  0.00     0.000 C 
BRANCH   2   3
HETATM    3  C   LIG     1      -2.363  -0.005   1.379  1.00  0.00    -0.000 C 
BRANCH   3   4
HETATM    4  C   LIG     1      -3.268   0.213   0.155  1.00  0.00    -0.005 C 
HETATM    5  C   LIG     1      -2.905  -0.685  -1.026  1.00  0.00     0.005 C 
ENDBRANCH   3   4
ENDBRANCH   2   3
ENDBRANCH   1   2
BRANCH   1   6
HETATM    6  C   LIG     1       1.481  -0.376   0.638  1.00  0.00     0.000 C 
BRANCH   6   7
HETATM    7  C   LIG     1       1.709   0.245  -0.751  1.00  0.00     0.007 C 
BRANCH   7   8
HETATM    8  C   LIG     1       3.185   0.585  -0.995  1.00  0.00     0.069 C 
BRANCH   8   9
HETATM    9  C   LIG     1       4.019  -0.654  -1.142  1.00  0.00     0.231 C 
HETATM   10  O   LIG     1       4.944  -0.872  -0.376  1.00  0.00    -0.307 OA
ENDBRANCH   8   9
ENDBRANCH   7   8
ENDBRANCH   6   7
ENDBRANCH   1   6
TORSDOF 7
