MODEL 1
REMARK VINA RESULT:      -5.6      0.000      0.000
REMARK  6 active torsions:
REMARK  status: ('A' for Active; 'I' for Inactive)
REMARK    1  A    between atoms: C_2  and  C_3 
REMARK    2  A    between atoms: C_3  and  C_4 
REMARK    3  A    between atoms: C_4  and  C_5 
REMARK    4  A    between atoms: C_5  and  C_6 
REMARK    5  A    between atoms: C_6  and  C_7 
REMARK    6  A    between atoms: C_7  and  C_8 
ROOT
HETATM    1  C   LIG     1      17.723  38.278  24.082  1.00  0.00     0.000 C 
ENDROOT
BRANCH   1   2
HETATM    2  C   LIG     1      17.409  37.654  25.451  1.00  0.00     0.004 C 
BRANCH   2   3
HETATM    3  C   LIG     1      18.623  36.943  26.070  1.00  0.00     0.026 C 
BRANCH   3   4
HETATM    4  C   LIG     1      18.276  35.539  26.484  1.00  0.00    -0.037 C 
HETATM    5  C   LIG     1      17.378  34.809  25.816  1.00  0.00     0.007 C 
ENDBRANCH   3   4
ENDBRANCH   2   3
ENDBRANCH   1   2
BRANCH   1   6
HETATM    6  C   LIG     1      16.760  37.801  22.980  1.00  0.00     0.000 C 
BRANCH   6   7
HETATM    7  C   LIG     1      17.455  37.603  21.621  1.00  0.00    -0.000 C 
BRANCH   7   8
HETATM    8  C   LIG     1      17.460  36.154  21.099  1.00  0.00    -0.005 C 
HETATM    9  C   LIG     1      16.917  35.150  22.114  1.00  0.00     0.005 C 
ENDBRANCH   7   8
ENDBRANCH   6   7
ENDBRANCH   1   6
TORSDOF 6
ENDMDL
MODEL 2
REMARK VINA RESULT:      -5.6      1.080      1.953
REMARK  6 active torsions:
REMARK  status: ('A' for Active; 'I' for Inactive)
REMARK    1  A    between atoms: C_2  and  C_3 
REMARK    2  A    between atoms: C_3  and  C_4 
REMARK    3  A    between atoms: C_4  and  C_5 
REMARK    4  A    between atoms: C_5  and  C_6 
REMARK    5  A    between atoms: C_6  and  C_7 
REMARK    6  A    between atoms: C_7  and  C_8 
ROOT
HETATM    1  C   LIG     1      17.588  38.295  24.080  1.00  0.00     0.000 C 
ENDROOT
BRANCH   1   2
HETATM    2  C   LIG     1      17.399  37.737  25.499  1.00  0.00     0.004 C 
BRANCH   2   3
HETATM    3  C   LIG     1      18.636  36.977  26.006  1.00  0.00     0.026 C 
BRANCH   3   4
HETATM    4  C   LIG     1      18.266  35.605  26.498  1.00  0.00    -0.037 C 
HETATM    5  C   LIG     1      17.401  34.829  25.839  1.00  0.00     0.007 C 
ENDBRANCH   3   4
ENDBRANCH   2   3
ENDBRANCH   1   2
BRANCH   1   6
HETATM    6  C   LIG     1      17.060  37.343  22.994  1.00  0.00     0.000 C 
BRANCH   6   7
HETATM    7  C   LIG     1      17.554  37.709  21.583  1.00  0.00    -0.000 C 
BRANCH   7   8
HETATM    8  C   LIG     1      18.197  39.103  21.461  1.00  0.00    -0.005 C 
HETATM    9  C   LIG     1      19.359  39.141  20.469  1.00  0.00     0.005 C 
ENDBRANCH   7   8
ENDBRANCH   6   7
ENDBRANCH   1   6
TORSDOF 6
ENDMDL
MODEL 3
REMARK VINA RESULT:      -5.5      1.576      4.863
REMARK  6 active torsions:
REMARK  status: ('A' for Active; 'I' for Inactive)
REMARK    1  A    between atoms: C_2  and  C_3 
REMARK    2  A    between atoms: C_3  and  C_4 
REMARK    3  A    between atoms: C_4  and  C_5 
REMARK    4  A    between atoms: C_5  and  C_6 
REMARK    5  A    between atoms: C_6  and  C_7 
REMARK    6  A    between atoms: C_7  and  C_8 
ROOT
HETATM    1  C   LIG     1      17.041  37.505  23.243  1.00  0.00     0.000 C 
ENDROOT
BRANCH   1   2
HETATM    2  C   LIG     1      17.534  37.894  21.841  1.00  0.00     0.004 C 
BRANCH   2   3
HETATM    3  C   LIG     1      18.470  39.114  21.860  1.00  0.00     0.026 C 
BRANCH   3   4
HETATM    4  C   LIG     1      18.911  39.481  20.470  1.00  0.00    -0.037 C 
HETATM    5  C   LIG     1      19.907  38.837  19.854  1.00  0.00     0.007 C 
ENDBRANCH   3   4
ENDBRANCH   2   3
ENDBRANCH   1   2
BRANCH   1   6
HETATM    6  C   LIG     1      17.928  38.077  24.363  1.00  0.00     0.000 C 
BRANCH   6   7
HETATM    7  C   LIG     1      17.521  37.582  25.762  1.00  0.00    -0.000 C 
BRANCH   7   8
HETATM    8  C   LIG     1      18.406  36.461  26.337  1.00  0.00    -0.005 C 
HETATM    9  C   LIG     1      17.872  35.061  26.035  1.00  0.00     0.005 C 
ENDBRANCH   7   8
ENDBRANCH   6   7
ENDBRANCH   1   6
TORSDOF 6
ENDMDL
MODEL 4
REMARK VINA RESULT:      -5.4      0.690      4.022
REMARK  6 active torsions:
REMARK  status: ('A' for Active; 'I' for Inactive)
REMARK    1  A    between atoms: C_2  and  C_3 
REMARK    2  A    between atoms: C_3  and  C_4 
REMARK    3  A    between atoms: C_4  and  C_5 
REMARK    4  A    between atoms: C_5  and  C_6 
REMARK    5  A    between atoms: C_6  and  C_7 
REMARK    6  A    between atoms: C_7  and  C_8 
ROOT
HETATM    1  C   LIG     1      17.931  38.278  23.957  1.00  0.00     0.000 C 
ENDROOT
BRANCH   1   2
HETATM    2  C   LIG     1      16.950  38.371  22.778  1.00  0.00     0.004 C 
BRANCH   2   3
HETATM    3  C   LIG     1      16.182  37.061  22.541  1.00  0.00     0.026 C 
BRANCH   3   4
HETATM    4  C   LIG     1      17.026  36.065  21.794  1.00  0.00    -0.037 C 
HETATM    5  C   LIG     1      17.686  36.395  20.680  1.00  0.00     0.007 C 
ENDBRANCH   3   4
ENDBRANCH   2   3
ENDBRANCH   1   2
BRANCH   1   6
HETATM    6  C   LIG     1      17.305  37.617  25.197  1.00  0.00     0.000 C 
BRANCH   6   7
HETATM    7  C   LIG     1      18.354  37.028  26.156  1.00  0.00    -0.000 C 
BRANCH   7   8
HETATM    8  C   LIG     1      18.269  35.503  26.356  1.00  0.00    -0.005 C 
HETATM    9  C   LIG     1      17.356  34.816  25.342  1.00  0.00     0.005 C 
ENDBRANCH   7   8
ENDBRANCH   6   7
ENDBRANCH   1   6
TORSDOF 6
ENDMDL
MODEL 5
REMARK VINA RESULT:      -5.3      1.725      2.504
REMARK  6 active torsions:
REMARK  status: ('A' for Active; 'I' for Inactive)
REMARK    1  A    between atoms: C_2  and  C_3 
REMARK    2  A    between atoms: C_3  and  C_4 
REMARK    3  A    between atoms: C_4  and  C_5 
REMARK    4  A    between atoms: C_5  and  C_6 
REMARK    5  A    between atoms: C_6  and  C_7 
REMARK    6  A    between atoms: C_7  and  C_8 
ROOT
HETATM    1  C   LIG     1      17.106  38.558  22.467  1.00  0.00     0.000 C 
ENDROOT
BRANCH   1   2
HETATM    2  C   LIG     1      17.078  37.428  23.509  1.00  0.00     0.004 C 
BRANCH   2   3
HETATM    3  C   LIG     1      17.256  37.943  24.946  1.00  0.00     0.026 C 
BRANCH   3   4
HETATM    4  C   LIG     1      18.398  37.246  25.634  1.00  0.00    -0.037 C 
HETATM    5  C   LIG     1      18.195  36.255  26.507  1.00  0.00     0.007 C 
ENDBRANCH   3   4
ENDBRANCH   2   3
ENDBRANCH   1   2
BRANCH   1   6
HETATM    6  C   LIG     1      18.536  39.001  22.113  1.00  0.00     0.000 C 
BRANCH   6   7
HETATM    7  C   LIG     1      18.690  39.404  20.635  1.00  0.00    -0.000 C 
BRANCH   7   8
HETATM    8  C   LIG     1      19.653  38.524  19.818  1.00  0.00    -0.005 C 
HETATM    9  C   LIG     1      19.103  37.125  19.548  1.00  0.00     0.005 C 
ENDBRANCH   7   8
ENDBRANCH   6   7
ENDBRANCH   1   6
TORSDOF 6
ENDMDL
MODEL 6
REMARK VINA RESULT:      -5.2      1.553      4.930
REMARK  6 active torsions:
REMARK  status: ('A' for Active; 'I' for Inactive)
REMARK    1  A    between atoms: C_2  and  C_3 
REMARK    2  A    between atoms: C_3  and  C_4 
REMARK    3  A    between atoms: C_4  and  C_5 
REMARK    4  A    between atoms: C_5  and  C_6 
REMARK    5  A    between atoms: C_6  and  C_7 
REMARK    6  A    between atoms: C_7  and  C_8 
ROOT
HETATM    1  C   LIG     1      17.085  35.710  22.427  1.00  0.00     0.000 C 
ENDROOT
BRANCH   1   2
HETATM    2  C   LIG     1      17.409  36.105  20.978  1.00  0.00     0.004 C 
BRANCH   2   3
HETATM    3  C   LIG     1      18.045  37.501  20.872  1.00  0.00     0.026 C 
BRANCH   3   4
HETATM    4  C   LIG     1      18.984  37.582  19.701  1.00  0.00    -0.037 C 
HETATM    5  C   LIG     1      19.939  38.513  19.627  1.00  0.00     0.007 C 
ENDBRANCH   3   4
ENDBRANCH   2   3
ENDBRANCH   1   2
BRANCH   1   6
HETATM    6  C   LIG     1      16.893  36.930  23.344  1.00  0.00     0.000 C 
BRANCH   6   7
HETATM    7  C   LIG     1      17.259  36.641  24.811  1.00  0.00    -0.000 C 
BRANCH   7   8
HETATM    8  C   LIG     1      17.415  35.149  25.160  1.00  0.00    -0.005 C 
HETATM    9  C   LIG     1      18.321  34.908  26.367  1.00  0.00     0.005 C 
ENDBRANCH   7   8
ENDBRANCH   6   7
ENDBRANCH   1   6
TORSDOF 6
ENDMDL
MODEL 7
REMARK VINA RESULT:      -5.0      1.247      2.034
REMARK  6 active torsions:
REMARK  status: ('A' for Active; 'I' for Inactive)
REMARK    1  A    between atoms: C_2  and  C_3 
REMARK    2  A    between atoms: C_3  and  C_4 
REMARK    3  A    between atoms: C_4  and  C_5 
REMARK    4  A    between atoms: C_5  and  C_6 
REMARK    5  A    between atoms: C_6  and  C_7 
REMARK    6  A    between atoms: C_7  and  C_8 
ROOT
HETATM    1  C   LIG     1      17.120  37.493  22.702  1.00  0.00     0.000 C 
ENDROOT
BRANCH   1   2
HETATM    2  C   LIG     1      17.807  38.122  23.925  1.00  0.00     0.004 C 
BRANCH   2   3
HETATM    3  C   LIG     1      17.327  37.513  25.252  1.00  0.00     0.026 C 
BRANCH   3   4
HETATM    4  C   LIG     1      18.456  36.836  25.979  1.00  0.00    -0.037 C 
HETATM    5  C   LIG     1      18.305  35.641  26.558  1.00  0.00     0.007 C 
ENDBRANCH   3   4
ENDBRANCH   2   3
ENDBRANCH   1   2
BRANCH   1   6
HETATM    6  C   LIG     1      16.833  35.993  22.891  1.00  0.00     0.000 C 
BRANCH   6   7
HETATM    7  C   LIG     1      16.741  35.228  21.559  1.00  0.00    -0.000 C 
BRANCH   7   8
HETATM    8  C   LIG     1      15.400  34.512  21.312  1.00  0.00    -0.005 C 
HETATM    9  C   LIG     1      15.497  33.404  20.264  1.00  0.00     0.005 C 
ENDBRANCH   7   8
ENDBRANCH   6   7
ENDBRANCH   1   6
TORSDOF 6
ENDMDL
MODEL 8
REMARK VINA RESULT:      -4.9      1.032      4.583
REMARK  6 active torsions:
REMARK  status: ('A' for Active; 'I' for Inactive)
REMARK    1  A    between atoms: C_2  and  C_3 
REMARK    2  A    between atoms: C_3  and  C_4 
REMARK    3  A    between atoms: C_4  and  C_5 
REMARK    4  A    between atoms: C_5  and  C_6 
REMARK    5  A    between atoms: C_6  and  C_7 
REMARK    6  A    between atoms: C_7  and  C_8 
ROOT
HETATM    1  C   LIG     1      17.331  34.970  23.252  1.00  0.00     0.000 C 
ENDROOT
BRANCH   1   2
HETATM    2  C   LIG     1      16.316  35.530  22.243  1.00  0.00     0.004 C 
BRANCH   2   3
HETATM    3  C   LIG     1      16.217  37.063  22.292  1.00  0.00     0.026 C 
BRANCH   3   4
HETATM    4  C   LIG     1      17.481  37.705  21.788  1.00  0.00    -0.037 C 
HETATM    5  C   LIG     1      17.735  39.003  21.975  1.00  0.00     0.007 C 
ENDBRANCH   3   4
ENDBRANCH   2   3
ENDBRANCH   1   2
BRANCH   1   6
HETATM    6  C   LIG     1      16.839  35.073  24.706  1.00  0.00     0.000 C 
BRANCH   6   7
HETATM    7  C   LIG     1      17.986  35.035  25.732  1.00  0.00    -0.000 C 
BRANCH   7   8
HETATM    8  C   LIG     1      18.389  36.406  26.307  1.00  0.00    -0.005 C 
HETATM    9  C   LIG     1      17.610  37.567  25.691  1.00  0.00     0.005 C 
ENDBRANCH   7   8
ENDBRANCH   6   7
ENDBRANCH   1   6
TORSDOF 6
ENDMDL
MODEL 9
REMARK VINA RESULT:      -4.8      2.331      3.406
REMARK  6 active torsions:
REMARK  status: ('A' for Active; 'I' for Inactive)
REMARK    1  A    between atoms: C_2  and  C_3 
REMARK    2  A    between atoms: C_3  and  C_4 
REMARK    3  A    between atoms: C_4  and  C_5 
REMARK    4  A    between atoms: C_5  and  C_6 
REMARK    5  A    between atoms: C_6  and  C_7 
REMARK    6  A    between atoms: C_7  and  C_8 
ROOT
HETATM    1  C   LIG     1      16.459  35.920  21.888  1.00  0.00     0.000 C 
ENDROOT
BRANCH   1   2
HETATM    2  C   LIG     1      16.803  35.000  23.071  1.00  0.00     0.004 C 
BRANCH   2   3
HETATM    3  C   LIG     1      17.261  35.780  24.313  1.00  0.00     0.026 C 
BRANCH   3   4
HETATM    4  C   LIG     1      17.385  34.874  25.508  1.00  0.00    -0.037 C 
HETATM    5  C   LIG     1      18.456  34.902  26.305  1.00  0.00     0.007 C 
ENDBRANCH   3   4
ENDBRANCH   2   3
ENDBRANCH   1   2
BRANCH   1   6
HETATM    6  C   LIG     1      16.326  35.153  20.561  1.00  0.00     0.000 C 
BRANCH   6   7
HETATM    7  C   LIG     1      15.322  33.989  20.640  1.00  0.00    -0.000 C 
BRANCH   7   8
HETATM    8  C   LIG     1      15.493  32.908  19.557  1.00  0.00    -0.005 C 
HETATM    9  C   LIG     1      15.042  31.523  20.017  1.00  0.00     0.005 C 
ENDBRANCH   7   8
ENDBRANCH   6   7
ENDBRANCH   1   6
TORSDOF 6
ENDMDL
MODEL 10
REMARK VINA RESULT:      -4.8      2.778      4.394
REMARK  6 active torsions:
REMARK  status: ('A' for Active; 'I' for Inactive)
REMARK    1  A    between atoms: C_2  and  C_3 
REMARK    2  A    between atoms: C_3  and  C_4 
REMARK    3  A    between atoms: C_4  and  C_5 
REMARK    4  A    between atoms: C_5  and  C_6 
REMARK    5  A    between atoms: C_6  and  C_7 
REMARK    6  A    between atoms: C_7  and  C_8 
ROOT
HETATM    1  C   LIG     1      16.730  37.434  22.611  1.00  0.00     0.000 C 
ENDROOT
BRANCH   1   2
HETATM    2  C   LIG     1      17.110  38.881  22.257  1.00  0.00     0.004 C 
BRANCH   2   3
HETATM    3  C   LIG     1      18.613  39.049  21.986  1.00  0.00     0.026 C 
BRANCH   3   4
HETATM    4  C   LIG     1      18.867  39.426  20.552  1.00  0.00    -0.037 C 
HETATM    5  C   LIG     1      19.935  38.980  19.885  1.00  0.00     0.007 C 
ENDBRANCH   3   4
ENDBRANCH   2   3
ENDBRANCH   1   2
BRANCH   1   6
HETATM    6  C   LIG     1      17.156  36.429  21.526  1.00  0.00     0.000 C 
BRANCH   6   7
HETATM    7  C   LIG     1      16.371  35.107  21.593  1.00  0.00    -0.000 C 
BRANCH   7   8
HETATM    8  C   LIG     1      15.738  34.659  20.262  1.00  0.00    -0.005 C 
HETATM    9  C   LIG     1      15.468  33.157  20.203  1.00  0.00     0.005 C 
ENDBRANCH   7   8
ENDBRANCH   6   7
ENDBRANCH   1   6
TORSDOF 6
ENDMDL
MODEL 11
REMARK VINA RESULT:      -4.7      3.228      4.888
REMARK  6 active torsions:
REMARK  status: ('A' for Active; 'I' for Inactive)
REMARK    1  A    between atoms: C_2  and  C_3 
REMARK    2  A    between atoms: C_3  and  C_4 
REMARK    3  A    between atoms: C_4  and  C_5 
REMARK    4  A    between atoms: C_5  and  C_6 
REMARK    5  A    between atoms: C_6  and  C_7 
REMARK    6  A    between atoms: C_7  and  C_8 
ROOT
HETATM    1  C   LIG     1      17.228  35.616  21.563  1.00  0.00     0.000 C 
ENDROOT
BRANCH   1   2
HETATM    2  C   LIG     1      15.698  35.728  21.667  1.00  0.00     0.004 C 
BRANCH   2   3
HETATM    3  C   LIG     1      14.984  34.407  21.339  1.00  0.00     0.026 C 
BRANCH   3   4
HETATM    4  C   LIG     1      15.707  33.653  20.257  1.00  0.00    -0.037 C 
HETATM    5  C   LIG     1      15.345  32.419  19.895  1.00  0.00     0.007 C 
ENDBRANCH   3   4
ENDBRANCH   2   3
ENDBRANCH   1   2
BRANCH   1   6
HETATM    6  C   LIG     1      17.856  36.793  20.797  1.00  0.00     0.000 C 
BRANCH   6   7
HETATM    7  C   LIG     1      17.704  38.136  21.533  1.00  0.00    -0.000 C 
BRANCH   7   8
HETATM    8  C   LIG     1      18.904  39.092  21.395  1.00  0.00    -0.005 C 
HETATM    9  C   LIG     1      19.584  39.007  20.030  1.00  0.00     0.005 C 
ENDBRANCH   7   8
ENDBRANCH   6   7
ENDBRANCH   1   6
TORSDOF 6
ENDMDL
MODEL 12
REMARK VINA RESULT:      -4.6      2.875      4.434
REMARK  6 active torsions:
REMARK  status: ('A' for Active; 'I' for Inactive)
REMARK    1  A    between atoms: C_2  and  C_3 
REMARK    2  A    between atoms: C_3  and  C_4 
REMARK    3  A    between atoms: C_4  and  C_5 
REMARK    4  A    between atoms: C_5  and  C_6 
REMARK    5  A    between atoms: C_6  and  C_7 
REMARK    6  A    between atoms: C_7  and  C_8 
ROOT
HETATM    1  C   LIG     1      18.176  37.584  20.937  1.00  0.00     0.000 C 
ENDROOT
BRANCH   1   2
HETATM    2  C   LIG     1      18.108  38.903  21.723  1.00  0.00     0.004 C 
BRANCH   2   3
HETATM    3  C   LIG     1      16.929  38.945  22.708  1.00  0.00     0.026 C 
BRANCH   3   4
HETATM    4  C   LIG     1      17.056  37.871  23.753  1.00  0.00    -0.037 C 
HETATM    5  C   LIG     1      17.447  38.145  25.001  1.00  0.00     0.007 C 
ENDBRANCH   3   4
ENDBRANCH   2   3
ENDBRANCH   1   2
BRANCH   1   6
HETATM    6  C   LIG     1      19.060  37.689  19.682  1.00  0.00     0.000 C 
BRANCH   6   7
HETATM    7  C   LIG     1      19.017  39.084  19.033  1.00  0.00    -0.000 C 
BRANCH   7   8
HETATM    8  C   LIG     1      18.924  39.084  17.496  1.00  0.00    -0.005 C 
HETATM    9  C   LIG     1      18.179  40.297  16.940  1.00  0.00     0.005 C 
ENDBRANCH   7   8
ENDBRANCH   6   7
ENDBRANCH   1   6
TORSDOF 6
ENDMDL
MODEL 13
REMARK VINA RESULT:      -4.6      8.016     11.110
REMARK  6 active torsions:
REMARK  status: ('A' for Active; 'I' for Inactive)
REMARK    1  A    between atoms: C_2  and  C_3 
REMARK    2  A    between atoms: C_3  and  C_4 
REMARK    3  A    between atoms: C_4  and  C_5 
REMARK    4  A    between atoms: C_5  and  C_6 
REMARK    5  A    between atoms: C_6  and  C_7 
REMARK    6  A    between atoms: C_7  and  C_8 
ROOT
HETATM    1  C   LIG     1      12.875  30.473  15.511  1.00  0.00     0.000 C 
ENDROOT
BRANCH   1   2
HETATM    2  C   LIG     1      13.619  29.681  14.424  1.00  0.00     0.004 C 
BRANCH   2   3
HETATM    3  C   LIG     1      15.136  29.928  14.446  1.00  0.00     0.026 C 
BRANCH   3   4
HETATM    4  C   LIG     1      15.524  31.008  13.474  1.00  0.00    -0.037 C 
HETATM    5  C   LIG     1      16.082  32.153  13.878  1.00  0.00     0.007 C 
ENDBRANCH   3   4
ENDBRANCH   2   3
ENDBRANCH   1   2
BRANCH   1   6
HETATM    6  C   LIG     1      13.767  30.800  16.721  1.00  0.00     0.000 C 
BRANCH   6   7
HETATM    7  C   LIG     1      13.867  32.310  17.001  1.00  0.00    -0.000 C 
BRANCH   7   8
HETATM    8  C   LIG     1      15.081  32.735  17.848  1.00  0.00    -0.005 C 
HETATM    9  C   LIG     1      15.096  32.096  19.236  1.00  0.00     0.005 C 
ENDBRANCH   7   8
ENDBRANCH   6   7
ENDBRANCH   1   6
TORSDOF 6
ENDMDL
MODEL 14
REMARK VINA RESULT:      -4.6      7.368      9.690
REMARK  6 active torsions:
REMARK  status: ('A' for Active; 'I' for Inactive)
REMARK    1  A    between atoms: C_2  and  C_3 
REMARK    2  A    between atoms: C_3  and  C_4 
REMARK    3  A    between atoms: C_4  and  C_5 
REMARK    4  A    between atoms: C_5  and  C_6 
REMARK    5  A    between atoms: C_6  and  C_7 
REMARK    6  A    between atoms: C_7  and  C_8 
ROOT
HETATM    1  C   LIG     1      12.922  32.115  16.667  1.00  0.00     0.000 C 
ENDROOT
BRANCH   1   2
HETATM    2  C   LIG     1      14.098  33.058  16.972  1.00  0.00     0.004 C 
BRANCH   2   3
HETATM    3  C   LIG     1      15.283  32.333  17.630  1.00  0.00     0.026 C 
BRANCH   3   4
HETATM    4  C   LIG     1      15.231  32.456  19.128  1.00  0.00    -0.037 C 
HETATM    5  C   LIG     1      14.849  31.439  19.905  1.00  0.00     0.007 C 
ENDBRANCH   3   4
ENDBRANCH   2   3
ENDBRANCH   1   2
BRANCH   1   6
HETATM    6  C   LIG     1      13.366  30.651  16.502  1.00  0.00     0.000 C 
BRANCH   6   7
HETATM    7  C   LIG     1      13.413  30.201  15.031  1.00  0.00    -0.000 C 
BRANCH   7   8
HETATM    8  C   LIG     1      14.821  29.887  14.492  1.00  0.00    -0.005 C 
HETATM    9  C   LIG     1      15.499  31.096  13.848  1.00  0.00     0.005 C 
ENDBRANCH   7   8
ENDBRANCH   6   7
ENDBRANCH   1   6
TORSDOF 6
ENDMDL
MODEL 15
REMARK VINA RESULT:      -4.5      1.860      3.164
REMARK  6 active torsions:
REMARK  status: ('A' for Active; 'I' for Inactive)
REMARK    1  A    between atoms: C_2  and  C_3 
REMARK    2  A    between atoms: C_3  and  C_4 
REMARK    3  A    between atoms: C_4  and  C_5 
REMARK    4  A    between atoms: C_5  and  C_6 
REMARK    5  A    between atoms: C_6  and  C_7 
REMARK    6  A    between atoms: C_7  and  C_8 
ROOT
HETATM    1  C   LIG     1      18.340  38.653  20.664  1.00  0.00     0.000 C 
ENDROOT
BRANCH   1   2
HETATM    2  C   LIG     1      18.150  38.626  22.189  1.00  0.00     0.004 C 
BRANCH   2   3
HETATM    3  C   LIG     1      16.710  38.960  22.612  1.00  0.00     0.026 C 
BRANCH   3   4
HETATM    4  C   LIG     1      16.153  37.902  23.523  1.00  0.00    -0.037 C 
HETATM    5  C   LIG     1      16.874  37.377  24.518  1.00  0.00     0.007 C 
ENDBRANCH   3   4
ENDBRANCH   2   3
ENDBRANCH   1   2
BRANCH   1   6
HETATM    6  C   LIG     1      18.642  37.261  20.081  1.00  0.00     0.000 C 
BRANCH   6   7
HETATM    7  C   LIG     1      17.973  36.122  20.873  1.00  0.00    -0.000 C 
BRANCH   7   8
HETATM    8  C   LIG     1      16.568  35.727  20.382  1.00  0.00    -0.005 C 
HETATM    9  C   LIG     1      15.869  34.731  21.307  1.00  0.00     0.005 C 
ENDBRANCH   7   8
ENDBRANCH   6   7
ENDBRANCH   1   6
TORSDOF 6
ENDMDL
MODEL 16
REMARK VINA RESULT:      -4.4      2.467      4.562
REMARK  6 active torsions:
REMARK  status: ('A' for Active; 'I' for Inactive)
REMARK    1  A    between atoms: C_2  and  C_3 
REMARK    2  A    between atoms: C_3  and  C_4 
REMARK    3  A    between atoms: C_4  and  C_5 
REMARK    4  A    between atoms: C_5  and  C_6 
REMARK    5  A    between atoms: C_6  and  C_7 
REMARK    6  A    between atoms: C_7  and  C_8 
ROOT
HETATM    1  C   LIG     1      17.572  38.881  22.950  1.00  0.00     0.000 C 
ENDROOT
BRANCH   1   2
HETATM    2  C   LIG     1      18.729  38.969  21.941  1.00  0.00     0.004 C 
BRANCH   2   3
HETATM    3  C   LIG     1      18.241  39.160  20.496  1.00  0.00     0.026 C 
BRANCH   3   4
HETATM    4  C   LIG     1      19.398  39.234  19.538  1.00  0.00    -0.037 C 
HETATM    5  C   LIG     1      20.457  38.428  19.648  1.00  0.00     0.007 C 
ENDBRANCH   3   4
ENDBRANCH   2   3
ENDBRANCH   1   2
BRANCH   1   6
HETATM    6  C   LIG     1      17.046  37.445  23.122  1.00  0.00     0.000 C 
BRANCH   6   7
HETATM    7  C   LIG     1      15.677  37.224  22.454  1.00  0.00    -0.000 C 
BRANCH   7   8
HETATM    8  C   LIG     1      15.591  35.989  21.538  1.00  0.00    -0.005 C 
HETATM    9  C   LIG     1      16.900  35.695  20.806  1.00  0.00     0.005 C 
ENDBRANCH   7   8
ENDBRANCH   6   7
ENDBRANCH   1   6
TORSDOF 6
ENDMDL
MODEL 17
REMARK VINA RESULT:      -4.4      2.205      4.023
REMARK  6 active torsions:
REMARK  status: ('A' for Active; 'I' for Inactive)
REMARK    1  A    between atoms: C_2  and  C_3 
REMARK    2  A    between atoms: C_3  and  C_4 
REMARK    3  A    between atoms: C_4  and  C_5 
REMARK    4  A    between atoms: C_5  and  C_6 
REMARK    5  A    between atoms: C_6  and  C_7 
REMARK    6  A    between atoms: C_7  and  C_8 
ROOT
HETATM    1  C   LIG     1      16.822  35.815  20.578  1.00  0.00     0.000 C 
ENDROOT
BRANCH   1   2
HETATM    2  C   LIG     1      17.394  36.996  21.378  1.00  0.00     0.004 C 
BRANCH   2   3
HETATM    3  C   LIG     1      16.584  37.300  22.648  1.00  0.00     0.026 C 
BRANCH   3   4
HETATM    4  C   LIG     1      17.345  38.208  23.573  1.00  0.00    -0.037 C 
HETATM    5  C   LIG     1      17.267  38.087  24.901  1.00  0.00     0.007 C 
ENDBRANCH   3   4
ENDBRANCH   2   3
ENDBRANCH   1   2
BRANCH   1   6
HETATM    6  C   LIG     1      15.364  35.497  20.955  1.00  0.00     0.000 C 
BRANCH   6   7
HETATM    7  C   LIG     1      15.104  33.990  21.124  1.00  0.00    -0.000 C 
BRANCH   7   8
HETATM    8  C   LIG     1      15.432  33.130  19.889  1.00  0.00    -0.005 C 
HETATM    9  C   LIG     1      14.883  31.708  19.987  1.00  0.00     0.005 C 
ENDBRANCH   7   8
ENDBRANCH   6   7
ENDBRANCH   1   6
TORSDOF 6
ENDMDL
MODEL 18
REMARK VINA RESULT:      -4.4      9.563     11.168
REMARK  6 active torsions:
REMARK  status: ('A' for Active; 'I' for Inactive)
REMARK    1  A    between atoms: C_2  and  C_3 
REMARK    2  A    between atoms: C_3  and  C_4 
REMARK    3  A    between atoms: C_4  and  C_5 
REMARK    4  A    between atoms: C_5  and  C_6 
REMARK    5  A    between atoms: C_6  and  C_7 
REMARK    6  A    between atoms: C_7  and  C_8 
ROOT
HETATM    1  C   LIG     1      15.288  30.576  13.488  1.00  0.00     0.000 C 
ENDROOT
BRANCH   1   2
HETATM    2  C   LIG     1      14.877  30.168  14.912  1.00  0.00     0.004 C 
BRANCH   2   3
HETATM    3  C   LIG     1      13.353  30.161  15.109  1.00  0.00     0.026 C 
BRANCH   3   4
HETATM    4  C   LIG     1      12.951  31.031  16.268  1.00  0.00    -0.037 C 
HETATM    5  C   LIG     1      13.841  31.459  17.169  1.00  0.00     0.007 C 
ENDBRANCH   3   4
ENDBRANCH   2   3
ENDBRANCH   1   2
BRANCH   1   6
HETATM    6  C   LIG     1      15.966  31.957  13.441  1.00  0.00     0.000 C 
BRANCH   6   7
HETATM    7  C   LIG     1      16.550  32.384  14.800  1.00  0.00    -0.000 C 
BRANCH   7   8
HETATM    8  C   LIG     1      17.508  33.589  14.746  1.00  0.00    -0.005 C 
HETATM    9  C   LIG     1      18.396  33.592  13.503  1.00  0.00     0.005 C 
ENDBRANCH   7   8
ENDBRANCH   6   7
ENDBRANCH   1   6
TORSDOF 6
ENDMDL
MODEL 19
REMARK VINA RESULT:      -4.4      8.953     11.130
REMARK  6 active torsions:
REMARK  status: ('A' for Active; 'I' for Inactive)
REMARK    1  A    between atoms: C_2  and  C_3 
REMARK    2  A    between atoms: C_3  and  C_4 
REMARK    3  A    between atoms: C_4  and  C_5 
REMARK    4  A    between atoms: C_5  and  C_6 
REMARK    5  A    between atoms: C_6  and  C_7 
REMARK    6  A    between atoms: C_7  and  C_8 
ROOT
HETATM    1  C   LIG     1      16.521  32.227  15.339  1.00  0.00     0.000 C 
ENDROOT
BRANCH   1   2
HETATM    2  C   LIG     1      16.212  32.235  13.834  1.00  0.00     0.004 C 
BRANCH   2   3
HETATM    3  C   LIG     1      15.332  31.051  13.404  1.00  0.00     0.026 C 
BRANCH   3   4
HETATM    4  C   LIG     1      15.615  29.833  14.239  1.00  0.00    -0.037 C 
HETATM    5  C   LIG     1      15.187  28.619  13.881  1.00  0.00     0.007 C 
ENDBRANCH   3   4
ENDBRANCH   2   3
ENDBRANCH   1   2
BRANCH   1   6
HETATM    6  C   LIG     1      15.486  33.018  16.159  1.00  0.00     0.000 C 
BRANCH   6   7
HETATM    7  C   LIG     1      14.711  32.137  17.155  1.00  0.00    -0.000 C 
BRANCH   7   8
HETATM    8  C   LIG     1      13.205  31.998  16.864  1.00  0.00    -0.005 C 
HETATM    9  C   LIG     1      12.847  30.683  16.174  1.00  0.00     0.005 C 
ENDBRANCH   7   8
ENDBRANCH   6   7
ENDBRANCH   1   6
TORSDOF 6
ENDMDL
MODEL 20
REMARK VINA RESULT:      -4.4      8.287     10.750
REMARK  6 active torsions:
REMARK  status: ('A' for Active; 'I' for Inactive)
REMARK    1  A    between atoms: C_2  and  C_3 
REMARK    2  A    between atoms: C_3  and  C_4 
REMARK    3  A    between atoms: C_4  and  C_5 
REMARK    4  A    between atoms: C_5  and  C_6 
REMARK    5  A    between atoms: C_6  and  C_7 
REMARK    6  A    between atoms: C_7  and  C_8 
ROOT
HETATM    1  C   LIG     1      14.917  30.144  14.815  1.00  0.00     0.000 C 
ENDROOT
BRANCH   1   2
HETATM    2  C   LIG     1      13.452  30.445  15.171  1.00  0.00     0.004 C 
BRANCH   2   3
HETATM    3  C   LIG     1      13.259  30.770  16.661  1.00  0.00     0.026 C 
BRANCH   3   4
HETATM    4  C   LIG     1      13.800  32.134  16.994  1.00  0.00    -0.037 C 
HETATM    5  C   LIG     1      14.699  32.317  17.964  1.00  0.00     0.007 C 
ENDBRANCH   3   4
ENDBRANCH   2   3
ENDBRANCH   1   2
BRANCH   1   6
HETATM    6  C   LIG     1      15.307  30.668  13.422  1.00  0.00     0.000 C 
BRANCH   6   7
HETATM    7  C   LIG     1      16.019  32.031  13.471  1.00  0.00    -0.000 C 
BRANCH   7   8
HETATM    8  C   LIG     1      16.777  32.322  14.780  1.00  0.00    -0.005 C 
HETATM    9  C   LIG     1      17.416  33.709  14.806  1.00  0.00     0.005 C 
ENDBRANCH   7   8
ENDBRANCH   6   7
ENDBRANCH   1   6
TORSDOF 6
ENDMDL
