REMARK  0 active torsions:
REMARK  status: ('A' for Active; 'I' for Inactive)
ROOT
HETATM    1 CL   LIG     1       1.611  -0.459  -0.545  1.00  0.00    -0.101 Cl
HETATM    2  C   LIG     1       0.038  -0.009   0.152  1.00  0.00     0.225 C 
HETATM    3 BR   LIG     1      -0.450   1.763  -0.447  1.00  0.00    -0.062 Br
HETATM    4 BR   LIG     1      -1.306  -1.276  -0.419  1.00  0.00    -0.062 Br
ENDROOT
TORSDOF 0
