REMARK  4 active torsions:
REMARK  status: ('A' for Active; 'I' for Inactive)
REMARK    1  A    between atoms: C_4  and  C_5 
REMARK    2  A    between atoms: C_5  and  O_6 
REMARK    3  A    between atoms: C_10  and  C_12 
REMARK    4  A    between atoms: C_12  and  O_13 
ROOT
HETATM    1  C   LIG     1       0.703  -0.997  -1.414  1.00  0.00     0.017 C 
HETATM    2  C   LIG     1       0.343  -0.525   0.032  1.00  0.00    -0.017 C 
HETATM    3  C   LIG     1       0.669  -1.706   0.989  1.00  0.00     0.017 C 
HETATM    4  C   LIG     1       1.149   0.751   0.389  1.00  0.00     0.092 C 
HETATM    5  C   LIG     1       0.381   1.908  -0.274  1.00  0.00     0.017 C 
HETATM    6  C   LIG     1      -1.051   1.412  -0.510  1.00  0.00     0.022 C 
HETATM    7  C   LIG     1      -1.150   0.000   0.116  1.00  0.00     0.049 C 
HETATM    8  C   LIG     1      -2.145  -0.890  -0.674  1.00  0.00     0.027 C 
ENDROOT
BRANCH   7   9
HETATM    9  C   LIG     1      -1.705   0.169   1.542  1.00  0.00     0.149 C 
HETATM   10  O   LIG     1      -1.028  -0.133   2.558  1.00  0.00    -0.649 OA
BRANCH   9  11
HETATM   11  O   LIG     1      -2.979   0.701   1.753  1.00  0.00    -0.776 OA
HETATM   12  H   LIG     1      -3.567   1.024   0.996  1.00  0.00     0.167 HD
ENDBRANCH   9  11
ENDBRANCH   7   9
BRANCH   4  13
HETATM   13  C   LIG     1       2.624   0.699   0.052  1.00  0.00     0.144 C 
HETATM   14  O   LIG     1       3.134   1.499  -0.778  1.00  0.00    -0.650 OA
BRANCH  13  15
HETATM   15  O   LIG     1       3.435  -0.238   0.686  1.00  0.00    -0.776 OA
HETATM   16  H   LIG     1       4.425  -0.292   0.480  1.00  0.00     0.167 HD
ENDBRANCH  13  15
ENDBRANCH   4  13
TORSDOF 4
