REMARK  6 active torsions:
REMARK  status: ('A' for Active; 'I' for Inactive)
REMARK    1  A    between atoms: C_2  and  C_3 
REMARK    2  A    between atoms: C_3  and  C_4 
REMARK    3  A    between atoms: C_4  and  C_5 
REMARK    4  A    between atoms: C_5  and  C_6 
REMARK    5  A    between atoms: C_6  and  C_7 
REMARK    6  A    between atoms: C_7  and  C_8 
ROOT
HETATM    1  C   LIG     1       0.090  -0.502  -0.024  1.00  0.00     0.000 C 
ENDROOT
BRANCH   1   2
HETATM    2  C   LIG     1       1.274   0.016   0.808  1.00  0.00     0.004 C 
BRANCH   2   3
HETATM    3  C   LIG     1       2.424   0.545  -0.064  1.00  0.00     0.026 C 
BRANCH   3   4
HETATM    4  C   LIG     1       3.594   0.970   0.780  1.00  0.00    -0.037 C 
HETATM    5  C   LIG     1       4.376   0.081   1.399  1.00  0.00     0.007 C 
ENDBRANCH   3   4
ENDBRANCH   2   3
ENDBRANCH   1   2
BRANCH   1   6
HETATM    6  C   LIG     1      -0.761   0.636  -0.614  1.00  0.00     0.000 C 
BRANCH   6   7
HETATM    7  C   LIG     1      -1.891   0.128  -1.527  1.00  0.00    -0.000 C 
BRANCH   7   8
HETATM    8  C   LIG     1      -2.956  -0.735  -0.825  1.00  0.00    -0.005 C 
HETATM    9  C   LIG     1      -3.699   0.013   0.281  1.00  0.00     0.005 C 
ENDBRANCH   7   8
ENDBRANCH   6   7
ENDBRANCH   1   6
TORSDOF 6
