MODEL 1
REMARK VINA RESULT:      -5.5      0.000      0.000
REMARK  6 active torsions:
REMARK  status: ('A' for Active; 'I' for Inactive)
REMARK    1  A    between atoms: C_2  and  C_3 
REMARK    2  A    between atoms: C_3  and  C_4 
REMARK    3  A    between atoms: C_4  and  C_5 
REMARK    4  A    between atoms: C_5  and  C_6 
REMARK    5  A    between atoms: C_6  and  C_7 
REMARK    6  A    between atoms: C_7  and  C_8 
ROOT
HETATM    1  C   LIG     1      17.589  38.622  23.190  1.00  0.00     0.000 C 
ENDROOT
BRANCH   1   2
HETATM    2  C   LIG     1      17.245  37.376  24.016  1.00  0.00     0.000 C 
BRANCH   2   3
HETATM    3  C   LIG     1      17.457  37.634  25.514  1.00  0.00    -0.000 C 
BRANCH   3   4
HETATM    4  C   LIG     1      18.484  36.677  26.138  1.00  0.00    -0.005 C 
HETATM    5  C   LIG     1      17.995  35.230  26.182  1.00  0.00     0.005 C 
ENDBRANCH   3   4
ENDBRANCH   2   3
ENDBRANCH   1   2
BRANCH   1   6
HETATM    6  C   LIG     1      17.838  38.259  21.721  1.00  0.00     0.007 C 
BRANCH   6   7
HETATM    7  C   LIG     1      18.620  39.370  21.004  1.00  0.00     0.069 C 
BRANCH   7   8
HETATM    8  C   LIG     1      19.401  38.870  19.818  1.00  0.00     0.231 C 
HETATM    9  O   LIG     1      20.391  39.456  19.408  1.00  0.00    -0.307 OA
ENDBRANCH   7   8
ENDBRANCH   6   7
ENDBRANCH   1   6
TORSDOF 6
ENDMDL
MODEL 2
REMARK VINA RESULT:      -5.4      2.382      2.576
REMARK  6 active torsions:
REMARK  status: ('A' for Active; 'I' for Inactive)
REMARK    1  A    between atoms: C_2  and  C_3 
REMARK    2  A    between atoms: C_3  and  C_4 
REMARK    3  A    between atoms: C_4  and  C_5 
REMARK    4  A    between atoms: C_5  and  C_6 
REMARK    5  A    between atoms: C_6  and  C_7 
REMARK    6  A    between atoms: C_7  and  C_8 
ROOT
HETATM    1  C   LIG     1      17.774  38.157  23.945  1.00  0.00     0.000 C 
ENDROOT
BRANCH   1   2
HETATM    2  C   LIG     1      17.324  37.515  25.263  1.00  0.00     0.000 C 
BRANCH   2   3
HETATM    3  C   LIG     1      18.529  37.006  26.067  1.00  0.00    -0.000 C 
BRANCH   3   4
HETATM    4  C   LIG     1      18.409  35.518  26.432  1.00  0.00    -0.005 C 
HETATM    5  C   LIG     1      17.306  34.805  25.651  1.00  0.00     0.005 C 
ENDBRANCH   3   4
ENDBRANCH   2   3
ENDBRANCH   1   2
BRANCH   1   6
HETATM    6  C   LIG     1      16.745  37.917  22.834  1.00  0.00     0.007 C 
BRANCH   6   7
HETATM    7  C   LIG     1      16.831  36.479  22.305  1.00  0.00     0.069 C 
BRANCH   7   8
HETATM    8  C   LIG     1      17.477  36.387  20.948  1.00  0.00     0.231 C 
HETATM    9  O   LIG     1      17.041  35.648  20.078  1.00  0.00    -0.307 OA
ENDBRANCH   7   8
ENDBRANCH   6   7
ENDBRANCH   1   6
TORSDOF 6
ENDMDL
MODEL 3
REMARK VINA RESULT:      -5.2      2.003      2.645
REMARK  6 active torsions:
REMARK  status: ('A' for Active; 'I' for Inactive)
REMARK    1  A    between atoms: C_2  and  C_3 
REMARK    2  A    between atoms: C_3  and  C_4 
REMARK    3  A    between atoms: C_4  and  C_5 
REMARK    4  A    between atoms: C_5  and  C_6 
REMARK    5  A    between atoms: C_6  and  C_7 
REMARK    6  A    between atoms: C_7  and  C_8 
ROOT
HETATM    1  C   LIG     1      16.983  35.196  22.828  1.00  0.00     0.000 C 
ENDROOT
BRANCH   1   2
HETATM    2  C   LIG     1      17.202  35.853  24.197  1.00  0.00     0.000 C 
BRANCH   2   3
HETATM    3  C   LIG     1      17.321  34.793  25.302  1.00  0.00    -0.000 C 
BRANCH   3   4
HETATM    4  C   LIG     1      18.342  35.181  26.383  1.00  0.00    -0.005 C 
HETATM    5  C   LIG     1      18.507  36.693  26.526  1.00  0.00     0.005 C 
ENDBRANCH   3   4
ENDBRANCH   2   3
ENDBRANCH   1   2
BRANCH   1   6
HETATM    6  C   LIG     1      16.478  36.216  21.801  1.00  0.00     0.007 C 
BRANCH   6   7
HETATM    7  C   LIG     1      17.642  36.804  20.989  1.00  0.00     0.069 C 
BRANCH   7   8
HETATM    8  C   LIG     1      18.006  38.203  21.407  1.00  0.00     0.231 C 
HETATM    9  O   LIG     1      17.201  38.940  21.955  1.00  0.00    -0.307 OA
ENDBRANCH   7   8
ENDBRANCH   6   7
ENDBRANCH   1   6
TORSDOF 6
ENDMDL
MODEL 4
REMARK VINA RESULT:      -5.0      3.308      5.139
REMARK  6 active torsions:
REMARK  status: ('A' for Active; 'I' for Inactive)
REMARK    1  A    between atoms: C_2  and  C_3 
REMARK    2  A    between atoms: C_3  and  C_4 
REMARK    3  A    between atoms: C_4  and  C_5 
REMARK    4  A    between atoms: C_5  and  C_6 
REMARK    5  A    between atoms: C_6  and  C_7 
REMARK    6  A    between atoms: C_7  and  C_8 
ROOT
HETATM    1  C   LIG     1      17.730  38.430  23.860  1.00  0.00     0.000 C 
ENDROOT
BRANCH   1   2
HETATM    2  C   LIG     1      16.840  37.879  22.740  1.00  0.00     0.000 C 
BRANCH   2   3
HETATM    3  C   LIG     1      17.657  37.618  21.467  1.00  0.00    -0.000 C 
BRANCH   3   4
HETATM    4  C   LIG     1      17.444  36.203  20.908  1.00  0.00    -0.005 C 
HETATM    5  C   LIG     1      16.946  35.218  21.965  1.00  0.00     0.005 C 
ENDBRANCH   3   4
ENDBRANCH   2   3
ENDBRANCH   1   2
BRANCH   1   6
HETATM    6  C   LIG     1      17.250  37.949  25.235  1.00  0.00     0.007 C 
BRANCH   6   7
HETATM    7  C   LIG     1      18.138  36.813  25.762  1.00  0.00     0.069 C 
BRANCH   7   8
HETATM    8  C   LIG     1      17.544  35.447  25.540  1.00  0.00     0.231 C 
HETATM    9  O   LIG     1      17.514  34.608  26.427  1.00  0.00    -0.307 OA
ENDBRANCH   7   8
ENDBRANCH   6   7
ENDBRANCH   1   6
TORSDOF 6
ENDMDL
MODEL 5
REMARK VINA RESULT:      -5.0      2.727      5.698
REMARK  6 active torsions:
REMARK  status: ('A' for Active; 'I' for Inactive)
REMARK    1  A    between atoms: C_2  and  C_3 
REMARK    2  A    between atoms: C_3  and  C_4 
REMARK    3  A    between atoms: C_4  and  C_5 
REMARK    4  A    between atoms: C_5  and  C_6 
REMARK    5  A    between atoms: C_6  and  C_7 
REMARK    6  A    between atoms: C_7  and  C_8 
ROOT
HETATM    1  C   LIG     1      18.233  38.875  21.334  1.00  0.00     0.000 C 
ENDROOT
BRANCH   1   2
HETATM    2  C   LIG     1      18.231  37.492  20.670  1.00  0.00     0.000 C 
BRANCH   2   3
HETATM    3  C   LIG     1      19.221  37.446  19.497  1.00  0.00    -0.000 C 
BRANCH   3   4
HETATM    4  C   LIG     1      19.588  38.845  18.979  1.00  0.00    -0.005 C 
HETATM    5  C   LIG     1      18.872  39.200  17.676  1.00  0.00     0.005 C 
ENDBRANCH   3   4
ENDBRANCH   2   3
ENDBRANCH   1   2
BRANCH   1   6
HETATM    6  C   LIG     1      17.295  38.904  22.548  1.00  0.00     0.007 C 
BRANCH   6   7
HETATM    7  C   LIG     1      17.001  37.484  23.052  1.00  0.00     0.069 C 
BRANCH   7   8
HETATM    8  C   LIG     1      16.805  37.416  24.543  1.00  0.00     0.231 C 
HETATM    9  O   LIG     1      16.831  38.418  25.240  1.00  0.00    -0.307 OA
ENDBRANCH   7   8
ENDBRANCH   6   7
ENDBRANCH   1   6
TORSDOF 6
ENDMDL
MODEL 6
REMARK VINA RESULT:      -4.8      4.717      5.670
REMARK  6 active torsions:
REMARK  status: ('A' for Active; 'I' for Inactive)
REMARK    1  A    between atoms: C_2  and  C_3 
REMARK    2  A    between atoms: C_3  and  C_4 
REMARK    3  A    between atoms: C_4  and  C_5 
REMARK    4  A    between atoms: C_5  and  C_6 
REMARK    5  A    between atoms: C_6  and  C_7 
REMARK    6  A    between atoms: C_7  and  C_8 
ROOT
HETATM    1  C   LIG     1      16.707  35.569  21.869  1.00  0.00     0.000 C 
ENDROOT
BRANCH   1   2
HETATM    2  C   LIG     1      16.227  34.979  20.538  1.00  0.00     0.000 C 
BRANCH   2   3
HETATM    3  C   LIG     1      15.322  33.760  20.772  1.00  0.00    -0.000 C 
BRANCH   3   4
HETATM    4  C   LIG     1      15.417  32.728  19.637  1.00  0.00    -0.005 C 
HETATM    5  C   LIG     1      14.848  31.365  20.029  1.00  0.00     0.005 C 
ENDBRANCH   3   4
ENDBRANCH   2   3
ENDBRANCH   1   2
BRANCH   1   6
HETATM    6  C   LIG     1      17.157  37.025  21.697  1.00  0.00     0.007 C 
BRANCH   6   7
HETATM    7  C   LIG     1      16.494  37.935  22.741  1.00  0.00     0.069 C 
BRANCH   7   8
HETATM    8  C   LIG     1      16.762  37.501  24.157  1.00  0.00     0.231 C 
HETATM    9  O   LIG     1      16.693  38.283  25.092  1.00  0.00    -0.307 OA
ENDBRANCH   7   8
ENDBRANCH   6   7
ENDBRANCH   1   6
TORSDOF 6
ENDMDL
MODEL 7
REMARK VINA RESULT:      -4.7      3.014      3.818
REMARK  6 active torsions:
REMARK  status: ('A' for Active; 'I' for Inactive)
REMARK    1  A    between atoms: C_2  and  C_3 
REMARK    2  A    between atoms: C_3  and  C_4 
REMARK    3  A    between atoms: C_4  and  C_5 
REMARK    4  A    between atoms: C_5  and  C_6 
REMARK    5  A    between atoms: C_6  and  C_7 
REMARK    6  A    between atoms: C_7  and  C_8 
ROOT
HETATM    1  C   LIG     1      17.108  36.627  21.929  1.00  0.00     0.000 C 
ENDROOT
BRANCH   1   2
HETATM    2  C   LIG     1      15.576  36.647  21.994  1.00  0.00     0.000 C 
BRANCH   2   3
HETATM    3  C   LIG     1      14.980  35.430  21.272  1.00  0.00    -0.000 C 
BRANCH   3   4
HETATM    4  C   LIG     1      16.052  34.417  20.839  1.00  0.00    -0.005 C 
HETATM    5  C   LIG     1      15.462  33.201  20.125  1.00  0.00     0.005 C 
ENDBRANCH   3   4
ENDBRANCH   2   3
ENDBRANCH   1   2
BRANCH   1   6
HETATM    6  C   LIG     1      17.666  38.025  21.635  1.00  0.00     0.007 C 
BRANCH   6   7
HETATM    7  C   LIG     1      18.630  37.993  20.440  1.00  0.00     0.069 C 
BRANCH   7   8
HETATM    8  C   LIG     1      19.321  39.310  20.205  1.00  0.00     0.231 C 
HETATM    9  O   LIG     1      20.327  39.393  19.517  1.00  0.00    -0.307 OA
ENDBRANCH   7   8
ENDBRANCH   6   7
ENDBRANCH   1   6
TORSDOF 6
ENDMDL
MODEL 8
REMARK VINA RESULT:      -4.7     10.220     11.368
REMARK  6 active torsions:
REMARK  status: ('A' for Active; 'I' for Inactive)
REMARK    1  A    between atoms: C_2  and  C_3 
REMARK    2  A    between atoms: C_3  and  C_4 
REMARK    3  A    between atoms: C_4  and  C_5 
REMARK    4  A    between atoms: C_5  and  C_6 
REMARK    5  A    between atoms: C_6  and  C_7 
REMARK    6  A    between atoms: C_7  and  C_8 
ROOT
HETATM    1  C   LIG     1      13.284  30.847  16.402  1.00  0.00     0.000 C 
ENDROOT
BRANCH   1   2
HETATM    2  C   LIG     1      14.093  30.847  15.099  1.00  0.00     0.000 C 
BRANCH   2   3
HETATM    3  C   LIG     1      14.010  29.482  14.401  1.00  0.00    -0.000 C 
BRANCH   3   4
HETATM    4  C   LIG     1      15.385  28.962  13.956  1.00  0.00    -0.005 C 
HETATM    5  C   LIG     1      15.337  27.522  13.447  1.00  0.00     0.005 C 
ENDBRANCH   3   4
ENDBRANCH   2   3
ENDBRANCH   1   2
BRANCH   1   6
HETATM    6  C   LIG     1      13.984  31.676  17.486  1.00  0.00     0.007 C 
BRANCH   6   7
HETATM    7  C   LIG     1      15.203  32.413  16.915  1.00  0.00     0.069 C 
BRANCH   7   8
HETATM    8  C   LIG     1      15.024  33.907  16.874  1.00  0.00     0.231 C 
HETATM    9  O   LIG     1      15.873  34.643  16.396  1.00  0.00    -0.307 OA
ENDBRANCH   7   8
ENDBRANCH   6   7
ENDBRANCH   1   6
TORSDOF 6
ENDMDL
MODEL 9
REMARK VINA RESULT:      -4.7      4.630      5.068
REMARK  6 active torsions:
REMARK  status: ('A' for Active; 'I' for Inactive)
REMARK    1  A    between atoms: C_2  and  C_3 
REMARK    2  A    between atoms: C_3  and  C_4 
REMARK    3  A    between atoms: C_4  and  C_5 
REMARK    4  A    between atoms: C_5  and  C_6 
REMARK    5  A    between atoms: C_6  and  C_7 
REMARK    6  A    between atoms: C_7  and  C_8 
ROOT
HETATM    1  C   LIG     1      15.384  35.643  21.388  1.00  0.00     0.000 C 
ENDROOT
BRANCH   1   2
HETATM    2  C   LIG     1      16.676  36.086  22.086  1.00  0.00     0.000 C 
BRANCH   2   3
HETATM    3  C   LIG     1      17.027  35.139  23.242  1.00  0.00    -0.000 C 
BRANCH   3   4
HETATM    4  C   LIG     1      17.273  35.886  24.562  1.00  0.00    -0.005 C 
HETATM    5  C   LIG     1      17.551  34.943  25.733  1.00  0.00     0.005 C 
ENDBRANCH   3   4
ENDBRANCH   2   3
ENDBRANCH   1   2
BRANCH   1   6
HETATM    6  C   LIG     1      15.689  34.912  20.075  1.00  0.00     0.007 C 
BRANCH   6   7
HETATM    7  C   LIG     1      15.616  33.389  20.262  1.00  0.00     0.069 C 
BRANCH   7   8
HETATM    8  C   LIG     1      15.086  32.670  19.050  1.00  0.00     0.231 C 
HETATM    9  O   LIG     1      15.706  32.642  17.998  1.00  0.00    -0.307 OA
ENDBRANCH   7   8
ENDBRANCH   6   7
ENDBRANCH   1   6
TORSDOF 6
ENDMDL
MODEL 10
REMARK VINA RESULT:      -4.6      9.954     11.518
REMARK  6 active torsions:
REMARK  status: ('A' for Active; 'I' for Inactive)
REMARK    1  A    between atoms: C_2  and  C_3 
REMARK    2  A    between atoms: C_3  and  C_4 
REMARK    3  A    between atoms: C_4  and  C_5 
REMARK    4  A    between atoms: C_5  and  C_6 
REMARK    5  A    between atoms: C_6  and  C_7 
REMARK    6  A    between atoms: C_7  and  C_8 
ROOT
HETATM    1  C   LIG     1      13.483  30.259  15.006  1.00  0.00     0.000 C 
ENDROOT
BRANCH   1   2
HETATM    2  C   LIG     1      15.007  30.316  14.837  1.00  0.00     0.000 C 
BRANCH   2   3
HETATM    3  C   LIG     1      15.386  30.867  13.455  1.00  0.00    -0.000 C 
BRANCH   3   4
HETATM    4  C   LIG     1      16.173  32.184  13.540  1.00  0.00    -0.005 C 
HETATM    5  C   LIG     1      16.703  32.467  14.945  1.00  0.00     0.005 C 
ENDBRANCH   3   4
ENDBRANCH   2   3
ENDBRANCH   1   2
BRANCH   1   6
HETATM    6  C   LIG     1      13.074  30.594  16.445  1.00  0.00     0.007 C 
BRANCH   6   7
HETATM    7  C   LIG     1      13.535  32.006  16.834  1.00  0.00     0.069 C 
BRANCH   7   8
HETATM    8  C   LIG     1      14.456  32.020  18.025  1.00  0.00     0.231 C 
HETATM    9  O   LIG     1      14.284  31.276  18.977  1.00  0.00    -0.307 OA
ENDBRANCH   7   8
ENDBRANCH   6   7
ENDBRANCH   1   6
TORSDOF 6
ENDMDL
MODEL 11
REMARK VINA RESULT:      -4.6      4.406      5.886
REMARK  6 active torsions:
REMARK  status: ('A' for Active; 'I' for Inactive)
REMARK    1  A    between atoms: C_2  and  C_3 
REMARK    2  A    between atoms: C_3  and  C_4 
REMARK    3  A    between atoms: C_4  and  C_5 
REMARK    4  A    between atoms: C_5  and  C_6 
REMARK    5  A    between atoms: C_6  and  C_7 
REMARK    6  A    between atoms: C_7  and  C_8 
ROOT
HETATM    1  C   LIG     1      16.999  35.450  22.437  1.00  0.00     0.000 C 
ENDROOT
BRANCH   1   2
HETATM    2  C   LIG     1      17.088  35.845  20.958  1.00  0.00     0.000 C 
BRANCH   2   3
HETATM    3  C   LIG     1      15.948  35.207  20.150  1.00  0.00    -0.000 C 
BRANCH   3   4
HETATM    4  C   LIG     1      15.397  33.934  20.810  1.00  0.00    -0.005 C 
HETATM    5  C   LIG     1      15.451  32.718  19.887  1.00  0.00     0.005 C 
ENDBRANCH   3   4
ENDBRANCH   2   3
ENDBRANCH   1   2
BRANCH   1   6
HETATM    6  C   LIG     1      16.830  36.686  23.329  1.00  0.00     0.007 C 
BRANCH   6   7
HETATM    7  C   LIG     1      17.429  36.446  24.722  1.00  0.00     0.069 C 
BRANCH   7   8
HETATM    8  C   LIG     1      17.348  35.009  25.161  1.00  0.00     0.231 C 
HETATM    9  O   LIG     1      17.768  34.644  26.247  1.00  0.00    -0.307 OA
ENDBRANCH   7   8
ENDBRANCH   6   7
ENDBRANCH   1   6
TORSDOF 6
ENDMDL
MODEL 12
REMARK VINA RESULT:      -4.6      9.982     11.100
REMARK  6 active torsions:
REMARK  status: ('A' for Active; 'I' for Inactive)
REMARK    1  A    between atoms: C_2  and  C_3 
REMARK    2  A    between atoms: C_3  and  C_4 
REMARK    3  A    between atoms: C_4  and  C_5 
REMARK    4  A    between atoms: C_5  and  C_6 
REMARK    5  A    between atoms: C_6  and  C_7 
REMARK    6  A    between atoms: C_7  and  C_8 
ROOT
HETATM    1  C   LIG     1      15.962  31.863  13.418  1.00  0.00     0.000 C 
ENDROOT
BRANCH   1   2
HETATM    2  C   LIG     1      15.249  30.506  13.471  1.00  0.00     0.000 C 
BRANCH   2   3
HETATM    3  C   LIG     1      14.845  30.154  14.909  1.00  0.00    -0.000 C 
BRANCH   3   4
HETATM    4  C   LIG     1      13.325  30.216  15.127  1.00  0.00    -0.005 C 
HETATM    5  C   LIG     1      12.937  31.032  16.360  1.00  0.00     0.005 C 
ENDBRANCH   3   4
ENDBRANCH   2   3
ENDBRANCH   1   2
BRANCH   1   6
HETATM    6  C   LIG     1      16.388  32.318  14.819  1.00  0.00     0.007 C 
BRANCH   6   7
HETATM    7  C   LIG     1      17.654  33.184  14.757  1.00  0.00     0.069 C 
BRANCH   7   8
HETATM    8  C   LIG     1      17.847  33.852  13.422  1.00  0.00     0.231 C 
HETATM    9  O   LIG     1      17.504  35.008  13.227  1.00  0.00    -0.307 OA
ENDBRANCH   7   8
ENDBRANCH   6   7
ENDBRANCH   1   6
TORSDOF 6
ENDMDL
MODEL 13
REMARK VINA RESULT:      -4.6      4.182      5.494
REMARK  6 active torsions:
REMARK  status: ('A' for Active; 'I' for Inactive)
REMARK    1  A    between atoms: C_2  and  C_3 
REMARK    2  A    between atoms: C_3  and  C_4 
REMARK    3  A    between atoms: C_4  and  C_5 
REMARK    4  A    between atoms: C_5  and  C_6 
REMARK    5  A    between atoms: C_6  and  C_7 
REMARK    6  A    between atoms: C_7  and  C_8 
ROOT
HETATM    1  C   LIG     1      17.126  35.398  21.889  1.00  0.00     0.000 C 
ENDROOT
BRANCH   1   2
HETATM    2  C   LIG     1      17.487  36.754  21.269  1.00  0.00     0.000 C 
BRANCH   2   3
HETATM    3  C   LIG     1      17.121  37.905  22.216  1.00  0.00    -0.000 C 
BRANCH   3   4
HETATM    4  C   LIG     1      17.981  39.157  21.983  1.00  0.00    -0.005 C 
HETATM    5  C   LIG     1      18.814  39.073  20.704  1.00  0.00     0.005 C 
ENDBRANCH   3   4
ENDBRANCH   2   3
ENDBRANCH   1   2
BRANCH   1   6
HETATM    6  C   LIG     1      15.687  34.997  21.541  1.00  0.00     0.007 C 
BRANCH   6   7
HETATM    7  C   LIG     1      15.590  34.496  20.092  1.00  0.00     0.069 C 
BRANCH   7   8
HETATM    8  C   LIG     1      15.416  33.004  19.994  1.00  0.00     0.231 C 
HETATM    9  O   LIG     1      15.737  32.385  18.992  1.00  0.00    -0.307 OA
ENDBRANCH   7   8
ENDBRANCH   6   7
ENDBRANCH   1   6
TORSDOF 6
ENDMDL
MODEL 14
REMARK VINA RESULT:      -4.5      3.291      5.246
REMARK  6 active torsions:
REMARK  status: ('A' for Active; 'I' for Inactive)
REMARK    1  A    between atoms: C_2  and  C_3 
REMARK    2  A    between atoms: C_3  and  C_4 
REMARK    3  A    between atoms: C_4  and  C_5 
REMARK    4  A    between atoms: C_5  and  C_6 
REMARK    5  A    between atoms: C_6  and  C_7 
REMARK    6  A    between atoms: C_7  and  C_8 
ROOT
HETATM    1  C   LIG     1      17.586  37.262  21.956  1.00  0.00     0.000 C 
ENDROOT
BRANCH   1   2
HETATM    2  C   LIG     1      17.485  38.788  21.849  1.00  0.00     0.000 C 
BRANCH   2   3
HETATM    3  C   LIG     1      18.685  39.367  21.086  1.00  0.00    -0.000 C 
BRANCH   3   4
HETATM    4  C   LIG     1      19.225  38.404  20.018  1.00  0.00    -0.005 C 
HETATM    5  C   LIG     1      19.037  38.931  18.596  1.00  0.00     0.005 C 
ENDBRANCH   3   4
ENDBRANCH   2   3
ENDBRANCH   1   2
BRANCH   1   6
HETATM    6  C   LIG     1      16.197  36.613  21.921  1.00  0.00     0.007 C 
BRANCH   6   7
HETATM    7  C   LIG     1      16.304  35.081  21.919  1.00  0.00     0.069 C 
BRANCH   7   8
HETATM    8  C   LIG     1      15.925  34.464  20.599  1.00  0.00     0.231 C 
HETATM    9  O   LIG     1      16.063  35.067  19.546  1.00  0.00    -0.307 OA
ENDBRANCH   7   8
ENDBRANCH   6   7
ENDBRANCH   1   6
TORSDOF 6
ENDMDL
MODEL 15
REMARK VINA RESULT:      -4.2      9.692     11.105
REMARK  6 active torsions:
REMARK  status: ('A' for Active; 'I' for Inactive)
REMARK    1  A    between atoms: C_2  and  C_3 
REMARK    2  A    between atoms: C_3  and  C_4 
REMARK    3  A    between atoms: C_4  and  C_5 
REMARK    4  A    between atoms: C_5  and  C_6 
REMARK    5  A    between atoms: C_6  and  C_7 
REMARK    6  A    between atoms: C_7  and  C_8 
ROOT
HETATM    1  C   LIG     1      13.989  31.318  16.112  1.00  0.00     0.000 C 
ENDROOT
BRANCH   1   2
HETATM    2  C   LIG     1      15.256  32.042  15.641  1.00  0.00     0.000 C 
BRANCH   2   3
HETATM    3  C   LIG     1      15.985  31.228  14.563  1.00  0.00    -0.000 C 
BRANCH   3   4
HETATM    4  C   LIG     1      15.026  30.379  13.714  1.00  0.00    -0.005 C 
HETATM    5  C   LIG     1      15.339  28.885  13.784  1.00  0.00     0.005 C 
ENDBRANCH   3   4
ENDBRANCH   2   3
ENDBRANCH   1   2
BRANCH   1   6
HETATM    6  C   LIG     1      13.755  31.535  17.612  1.00  0.00     0.007 C 
BRANCH   6   7
HETATM    7  C   LIG     1      14.911  32.326  18.242  1.00  0.00     0.069 C 
BRANCH   7   8
HETATM    8  C   LIG     1      15.154  31.969  19.684  1.00  0.00     0.231 C 
HETATM    9  O   LIG     1      14.681  30.961  20.184  1.00  0.00    -0.307 OA
ENDBRANCH   7   8
ENDBRANCH   6   7
ENDBRANCH   1   6
TORSDOF 6
ENDMDL
MODEL 16
REMARK VINA RESULT:      -4.2      8.351      9.695
REMARK  6 active torsions:
REMARK  status: ('A' for Active; 'I' for Inactive)
REMARK    1  A    between atoms: C_2  and  C_3 
REMARK    2  A    between atoms: C_3  and  C_4 
REMARK    3  A    between atoms: C_4  and  C_5 
REMARK    4  A    between atoms: C_5  and  C_6 
REMARK    5  A    between atoms: C_6  and  C_7 
REMARK    6  A    between atoms: C_7  and  C_8 
ROOT
HETATM    1  C   LIG     1      14.489  31.803  18.640  1.00  0.00     0.000 C 
ENDROOT
BRANCH   1   2
HETATM    2  C   LIG     1      14.821  32.267  17.216  1.00  0.00     0.000 C 
BRANCH   2   3
HETATM    3  C   LIG     1      14.179  31.341  16.173  1.00  0.00    -0.000 C 
BRANCH   3   4
HETATM    4  C   LIG     1      15.089  31.098  14.960  1.00  0.00    -0.005 C 
HETATM    5  C   LIG     1      14.661  29.887  14.132  1.00  0.00     0.005 C 
ENDBRANCH   3   4
ENDBRANCH   2   3
ENDBRANCH   1   2
BRANCH   1   6
HETATM    6  C   LIG     1      15.573  32.245  19.631  1.00  0.00     0.007 C 
BRANCH   6   7
HETATM    7  C   LIG     1      15.614  33.775  19.757  1.00  0.00     0.069 C 
BRANCH   7   8
HETATM    8  C   LIG     1      15.292  34.261  21.145  1.00  0.00     0.231 C 
HETATM    9  O   LIG     1      14.281  33.908  21.731  1.00  0.00    -0.307 OA
ENDBRANCH   7   8
ENDBRANCH   6   7
ENDBRANCH   1   6
TORSDOF 6
ENDMDL
MODEL 17
REMARK VINA RESULT:      -4.0      6.241      7.514
REMARK  6 active torsions:
REMARK  status: ('A' for Active; 'I' for Inactive)
REMARK    1  A    between atoms: C_2  and  C_3 
REMARK    2  A    between atoms: C_3  and  C_4 
REMARK    3  A    between atoms: C_4  and  C_5 
REMARK    4  A    between atoms: C_5  and  C_6 
REMARK    5  A    between atoms: C_6  and  C_7 
REMARK    6  A    between atoms: C_7  and  C_8 
ROOT
HETATM    1  C   LIG     1      15.115  33.250  20.511  1.00  0.00     0.000 C 
ENDROOT
BRANCH   1   2
HETATM    2  C   LIG     1      15.603  32.367  19.356  1.00  0.00     0.000 C 
BRANCH   2   3
HETATM    3  C   LIG     1      14.430  31.625  18.698  1.00  0.00    -0.000 C 
BRANCH   3   4
HETATM    4  C   LIG     1      14.239  32.013  17.224  1.00  0.00    -0.005 C 
HETATM    5  C   LIG     1      15.143  33.168  16.794  1.00  0.00     0.005 C 
ENDBRANCH   3   4
ENDBRANCH   2   3
ENDBRANCH   1   2
BRANCH   1   6
HETATM    6  C   LIG     1      15.969  34.517  20.636  1.00  0.00     0.007 C 
BRANCH   6   7
HETATM    7  C   LIG     1      15.151  35.679  21.218  1.00  0.00     0.069 C 
BRANCH   7   8
HETATM    8  C   LIG     1      15.959  36.577  22.116  1.00  0.00     0.231 C 
HETATM    9  O   LIG     1      15.470  37.564  22.645  1.00  0.00    -0.307 OA
ENDBRANCH   7   8
ENDBRANCH   6   7
ENDBRANCH   1   6
TORSDOF 6
ENDMDL
MODEL 18
REMARK VINA RESULT:      -4.0      9.588     10.386
REMARK  6 active torsions:
REMARK  status: ('A' for Active; 'I' for Inactive)
REMARK    1  A    between atoms: C_2  and  C_3 
REMARK    2  A    between atoms: C_3  and  C_4 
REMARK    3  A    between atoms: C_4  and  C_5 
REMARK    4  A    between atoms: C_5  and  C_6 
REMARK    5  A    between atoms: C_6  and  C_7 
REMARK    6  A    between atoms: C_7  and  C_8 
ROOT
HETATM    1  C   LIG     1      17.017  32.599  15.069  1.00  0.00     0.000 C 
ENDROOT
BRANCH   1   2
HETATM    2  C   LIG     1      15.613  32.038  15.328  1.00  0.00     0.000 C 
BRANCH   2   3
HETATM    3  C   LIG     1      15.145  32.365  16.753  1.00  0.00    -0.000 C 
BRANCH   3   4
HETATM    4  C   LIG     1      13.654  32.064  16.967  1.00  0.00    -0.005 C 
HETATM    5  C   LIG     1      13.189  30.816  16.218  1.00  0.00     0.005 C 
ENDBRANCH   3   4
ENDBRANCH   2   3
ENDBRANCH   1   2
BRANCH   1   6
HETATM    6  C   LIG     1      17.143  33.131  13.636  1.00  0.00     0.007 C 
BRANCH   6   7
HETATM    7  C   LIG     1      18.489  33.840  13.428  1.00  0.00     0.069 C 
BRANCH   7   8
HETATM    8  C   LIG     1      19.115  33.538  12.092  1.00  0.00     0.231 C 
HETATM    9  O   LIG     1      18.987  32.449  11.555  1.00  0.00    -0.307 OA
ENDBRANCH   7   8
ENDBRANCH   6   7
ENDBRANCH   1   6
TORSDOF 6
ENDMDL
MODEL 19
REMARK VINA RESULT:      -4.0      7.406      8.092
REMARK  6 active torsions:
REMARK  status: ('A' for Active; 'I' for Inactive)
REMARK    1  A    between atoms: C_2  and  C_3 
REMARK    2  A    between atoms: C_3  and  C_4 
REMARK    3  A    between atoms: C_4  and  C_5 
REMARK    4  A    between atoms: C_5  and  C_6 
REMARK    5  A    between atoms: C_6  and  C_7 
REMARK    6  A    between atoms: C_7  and  C_8 
ROOT
HETATM    1  C   LIG     1      15.402  32.924  18.744  1.00  0.00     0.000 C 
ENDROOT
BRANCH   1   2
HETATM    2  C   LIG     1      15.443  33.233  20.246  1.00  0.00     0.000 C 
BRANCH   2   3
HETATM    3  C   LIG     1      15.631  34.737  20.493  1.00  0.00    -0.000 C 
BRANCH   3   4
HETATM    4  C   LIG     1      16.857  35.043  21.367  1.00  0.00    -0.005 C 
HETATM    5  C   LIG     1      17.092  36.541  21.552  1.00  0.00     0.005 C 
ENDBRANCH   3   4
ENDBRANCH   2   3
ENDBRANCH   1   2
BRANCH   1   6
HETATM    6  C   LIG     1      14.486  31.730  18.452  1.00  0.00     0.007 C 
BRANCH   6   7
HETATM    7  C   LIG     1      13.659  31.967  17.180  1.00  0.00     0.069 C 
BRANCH   7   8
HETATM    8  C   LIG     1      13.449  30.716  16.370  1.00  0.00     0.231 C 
HETATM    9  O   LIG     1      14.109  30.478  15.372  1.00  0.00    -0.307 OA
ENDBRANCH   7   8
ENDBRANCH   6   7
ENDBRANCH   1   6
TORSDOF 6
ENDMDL
MODEL 20
REMARK VINA RESULT:      -3.9      4.443      5.672
REMARK  6 active torsions:
REMARK  status: ('A' for Active; 'I' for Inactive)
REMARK    1  A    between atoms: C_2  and  C_3 
REMARK    2  A    between atoms: C_3  and  C_4 
REMARK    3  A    between atoms: C_4  and  C_5 
REMARK    4  A    between atoms: C_5  and  C_6 
REMARK    5  A    between atoms: C_6  and  C_7 
REMARK    6  A    between atoms: C_7  and  C_8 
ROOT
HETATM    1  C   LIG     1      16.660  34.885  21.380  1.00  0.00     0.000 C 
ENDROOT
BRANCH   1   2
HETATM    2  C   LIG     1      15.725  34.565  20.207  1.00  0.00     0.000 C 
BRANCH   2   3
HETATM    3  C   LIG     1      15.514  33.050  20.071  1.00  0.00    -0.000 C 
BRANCH   3   4
HETATM    4  C   LIG     1      15.118  32.635  18.646  1.00  0.00    -0.005 C 
HETATM    5  C   LIG     1      15.109  33.810  17.668  1.00  0.00     0.005 C 
ENDBRANCH   3   4
ENDBRANCH   2   3
ENDBRANCH   1   2
BRANCH   1   6
HETATM    6  C   LIG     1      16.634  36.382  21.713  1.00  0.00     0.007 C 
BRANCH   6   7
HETATM    7  C   LIG     1      17.811  37.114  21.052  1.00  0.00     0.069 C 
BRANCH   7   8
HETATM    8  C   LIG     1      17.898  38.565  21.443  1.00  0.00     0.231 C 
HETATM    9  O   LIG     1      18.823  38.994  22.115  1.00  0.00    -0.307 OA
ENDBRANCH   7   8
ENDBRANCH   6   7
ENDBRANCH   1   6
TORSDOF 6
ENDMDL
