REMARK  6 active torsions:
REMARK  status: ('A' for Active; 'I' for Inactive)
REMARK    1  A    between atoms: C_2  and  C_3 
REMARK    2  A    between atoms: C_3  and  C_4 
REMARK    3  A    between atoms: C_4  and  C_5 
REMARK    4  A    between atoms: C_5  and  C_6 
REMARK    5  A    between atoms: C_6  and  C_7 
REMARK    6  A    between atoms: C_7  and  C_8 
ROOT
HETATM    1  C   LIG     1       0.712  -0.086   0.690  1.00  0.00     0.000 C 
ENDROOT
BRANCH   1   2
HETATM    2  C   LIG     1      -0.602  -0.211  -0.091  1.00  0.00     0.000 C 
BRANCH   2   3
HETATM    3  C   LIG     1      -1.809  -0.193   0.858  1.00  0.00    -0.000 C 
BRANCH   3   4
HETATM    4  C   LIG     1      -3.138  -0.438   0.127  1.00  0.00    -0.005 C 
HETATM    5  C   LIG     1      -3.555   0.740  -0.753  1.00  0.00     0.005 C 
ENDBRANCH   3   4
ENDBRANCH   2   3
ENDBRANCH   1   2
BRANCH   1   6
HETATM    6  C   LIG     1       1.919  -0.094  -0.256  1.00  0.00     0.007 C 
BRANCH   6   7
HETATM    7  C   LIG     1       3.234   0.029   0.527  1.00  0.00     0.069 C 
BRANCH   7   8
HETATM    8  C   LIG     1       4.451   0.027  -0.359  1.00  0.00     0.231 C 
HETATM    9  O   LIG     1       4.361  -0.066  -1.573  1.00  0.00    -0.307 OA
ENDBRANCH   7   8
ENDBRANCH   6   7
ENDBRANCH   1   6
TORSDOF 6
