MODEL 1
REMARK VINA RESULT:      -5.8      0.000      0.000
REMARK  7 active torsions:
REMARK  status: ('A' for Active; 'I' for Inactive)
REMARK    1  A    between atoms: C_2  and  C_3 
REMARK    2  A    between atoms: C_3  and  C_4 
REMARK    3  A    between atoms: C_4  and  C_5 
REMARK    4  A    between atoms: C_5  and  C_6 
REMARK    5  A    between atoms: C_6  and  C_7 
REMARK    6  A    between atoms: C_7  and  C_8 
REMARK    7  A    between atoms: C_8  and  O_9 
ROOT
HETATM    1  C   LIG     1      17.842  38.284  21.589  1.00  0.00     0.010 C 
ENDROOT
BRANCH   1   2
HETATM    2  C   LIG     1      17.297  38.720  22.960  1.00  0.00     0.001 C 
BRANCH   2   3
HETATM    3  C   LIG     1      18.163  38.230  24.134  1.00  0.00     0.000 C 
BRANCH   3   4
HETATM    4  C   LIG     1      17.434  37.326  25.145  1.00  0.00    -0.000 C 
BRANCH   4   5
HETATM    5  C   LIG     1      18.391  36.624  26.119  1.00  0.00    -0.005 C 
HETATM    6  C   LIG     1      18.079  35.134  26.219  1.00  0.00     0.005 C 
ENDBRANCH   4   5
ENDBRANCH   3   4
ENDBRANCH   2   3
ENDBRANCH   1   2
BRANCH   1   7
HETATM    7  C   LIG     1      18.865  39.284  21.031  1.00  0.00     0.110 C 
BRANCH   7   8
HETATM    8  C   LIG     1      19.644  38.709  19.888  1.00  0.00     0.139 C 
HETATM    9  O   LIG     1      19.483  37.504  19.554  1.00  0.00    -0.650 OA
BRANCH   8  10
HETATM   10  O   LIG     1      20.541  39.510  19.187  1.00  0.00    -0.776 OA
HETATM   11  H   LIG     1      20.674  39.392  18.190  1.00  0.00     0.167 HD
ENDBRANCH   8  10
ENDBRANCH   7   8
ENDBRANCH   1   7
TORSDOF 7
ENDMDL
MODEL 2
REMARK VINA RESULT:      -5.8      3.294      3.847
REMARK  7 active torsions:
REMARK  status: ('A' for Active; 'I' for Inactive)
REMARK    1  A    between atoms: C_2  and  C_3 
REMARK    2  A    between atoms: C_3  and  C_4 
REMARK    3  A    between atoms: C_4  and  C_5 
REMARK    4  A    between atoms: C_5  and  C_6 
REMARK    5  A    between atoms: C_6  and  C_7 
REMARK    6  A    between atoms: C_7  and  C_8 
REMARK    7  A    between atoms: C_8  and  O_9 
ROOT
HETATM    1  C   LIG     1      17.195  36.703  21.690  1.00  0.00     0.010 C 
ENDROOT
BRANCH   1   2
HETATM    2  C   LIG     1      17.156  37.581  22.954  1.00  0.00     0.001 C 
BRANCH   2   3
HETATM    3  C   LIG     1      17.073  36.759  24.252  1.00  0.00     0.000 C 
BRANCH   3   4
HETATM    4  C   LIG     1      17.731  37.416  25.479  1.00  0.00    -0.000 C 
BRANCH   4   5
HETATM    5  C   LIG     1      18.425  36.403  26.400  1.00  0.00    -0.005 C 
HETATM    6  C   LIG     1      17.933  34.984  26.129  1.00  0.00     0.005 C 
ENDBRANCH   4   5
ENDBRANCH   3   4
ENDBRANCH   2   3
ENDBRANCH   1   2
BRANCH   1   7
HETATM    7  C   LIG     1      16.802  35.248  21.986  1.00  0.00     0.110 C 
BRANCH   7   8
HETATM    8  C   LIG     1      15.695  34.776  21.093  1.00  0.00     0.139 C 
HETATM    9  O   LIG     1      15.935  33.957  20.166  1.00  0.00    -0.650 OA
BRANCH   8  10
HETATM   10  O   LIG     1      14.397  35.235  21.295  1.00  0.00    -0.776 OA
HETATM   11  H   LIG     1      13.665  34.607  21.605  1.00  0.00     0.167 HD
ENDBRANCH   8  10
ENDBRANCH   7   8
ENDBRANCH   1   7
TORSDOF 7
ENDMDL
MODEL 3
REMARK VINA RESULT:      -5.6      3.295      5.336
REMARK  7 active torsions:
REMARK  status: ('A' for Active; 'I' for Inactive)
REMARK    1  A    between atoms: C_2  and  C_3 
REMARK    2  A    between atoms: C_3  and  C_4 
REMARK    3  A    between atoms: C_4  and  C_5 
REMARK    4  A    between atoms: C_5  and  C_6 
REMARK    5  A    between atoms: C_6  and  C_7 
REMARK    6  A    between atoms: C_7  and  C_8 
REMARK    7  A    between atoms: C_8  and  O_9 
ROOT
HETATM    1  C   LIG     1      17.217  37.489  22.687  1.00  0.00     0.010 C 
ENDROOT
BRANCH   1   2
HETATM    2  C   LIG     1      17.229  38.922  22.126  1.00  0.00     0.001 C 
BRANCH   2   3
HETATM    3  C   LIG     1      18.624  39.369  21.654  1.00  0.00     0.000 C 
BRANCH   3   4
HETATM    4  C   LIG     1      18.823  39.372  20.128  1.00  0.00    -0.000 C 
BRANCH   4   5
HETATM    5  C   LIG     1      19.833  38.318  19.654  1.00  0.00    -0.005 C 
HETATM    6  C   LIG     1      19.166  36.956  19.480  1.00  0.00     0.005 C 
ENDBRANCH   4   5
ENDBRANCH   3   4
ENDBRANCH   2   3
ENDBRANCH   1   2
BRANCH   1   7
HETATM    7  C   LIG     1      16.465  37.399  24.023  1.00  0.00     0.110 C 
BRANCH   7   8
HETATM    8  C   LIG     1      17.352  37.718  25.188  1.00  0.00     0.139 C 
HETATM    9  O   LIG     1      18.181  36.865  25.605  1.00  0.00    -0.650 OA
BRANCH   8  10
HETATM   10  O   LIG     1      17.266  38.962  25.805  1.00  0.00    -0.776 OA
HETATM   11  H   LIG     1      16.463  39.207  26.371  1.00  0.00     0.167 HD
ENDBRANCH   8  10
ENDBRANCH   7   8
ENDBRANCH   1   7
TORSDOF 7
ENDMDL
MODEL 4
REMARK VINA RESULT:      -5.3      3.441      5.563
REMARK  7 active torsions:
REMARK  status: ('A' for Active; 'I' for Inactive)
REMARK    1  A    between atoms: C_2  and  C_3 
REMARK    2  A    between atoms: C_3  and  C_4 
REMARK    3  A    between atoms: C_4  and  C_5 
REMARK    4  A    between atoms: C_5  and  C_6 
REMARK    5  A    between atoms: C_6  and  C_7 
REMARK    6  A    between atoms: C_7  and  C_8 
REMARK    7  A    between atoms: C_8  and  O_9 
ROOT
HETATM    1  C   LIG     1      17.044  35.756  23.453  1.00  0.00     0.010 C 
ENDROOT
BRANCH   1   2
HETATM    2  C   LIG     1      17.055  35.429  21.950  1.00  0.00     0.001 C 
BRANCH   2   3
HETATM    3  C   LIG     1      17.244  36.675  21.066  1.00  0.00     0.000 C 
BRANCH   3   4
HETATM    4  C   LIG     1      18.456  36.621  20.119  1.00  0.00    -0.000 C 
BRANCH   4   5
HETATM    5  C   LIG     1      18.965  38.013  19.719  1.00  0.00    -0.005 C 
HETATM    6  C   LIG     1      18.854  38.996  20.881  1.00  0.00     0.005 C 
ENDBRANCH   4   5
ENDBRANCH   3   4
ENDBRANCH   2   3
ENDBRANCH   1   2
BRANCH   1   7
HETATM    7  C   LIG     1      17.097  37.269  23.714  1.00  0.00     0.110 C 
BRANCH   7   8
HETATM    8  C   LIG     1      17.166  37.582  25.178  1.00  0.00     0.139 C 
HETATM    9  O   LIG     1      17.067  38.774  25.576  1.00  0.00    -0.650 OA
BRANCH   8  10
HETATM   10  O   LIG     1      17.330  36.553  26.100  1.00  0.00    -0.776 OA
HETATM   11  H   LIG     1      18.126  36.538  26.726  1.00  0.00     0.167 HD
ENDBRANCH   8  10
ENDBRANCH   7   8
ENDBRANCH   1   7
TORSDOF 7
ENDMDL
MODEL 5
REMARK VINA RESULT:      -5.3      3.767      5.266
REMARK  7 active torsions:
REMARK  status: ('A' for Active; 'I' for Inactive)
REMARK    1  A    between atoms: C_2  and  C_3 
REMARK    2  A    between atoms: C_3  and  C_4 
REMARK    3  A    between atoms: C_4  and  C_5 
REMARK    4  A    between atoms: C_5  and  C_6 
REMARK    5  A    between atoms: C_6  and  C_7 
REMARK    6  A    between atoms: C_7  and  C_8 
REMARK    7  A    between atoms: C_8  and  O_9 
ROOT
HETATM    1  C   LIG     1      17.045  35.689  21.080  1.00  0.00     0.010 C 
ENDROOT
BRANCH   1   2
HETATM    2  C   LIG     1      16.847  35.644  22.605  1.00  0.00     0.001 C 
BRANCH   2   3
HETATM    3  C   LIG     1      17.047  37.014  23.276  1.00  0.00     0.000 C 
BRANCH   3   4
HETATM    4  C   LIG     1      16.899  38.225  22.337  1.00  0.00    -0.000 C 
BRANCH   4   5
HETATM    5  C   LIG     1      18.195  39.036  22.198  1.00  0.00    -0.005 C 
HETATM    6  C   LIG     1      18.642  39.114  20.741  1.00  0.00     0.005 C 
ENDBRANCH   4   5
ENDBRANCH   3   4
ENDBRANCH   2   3
ENDBRANCH   1   2
BRANCH   1   7
HETATM    7  C   LIG     1      15.760  35.331  20.320  1.00  0.00     0.110 C 
BRANCH   7   8
HETATM    8  C   LIG     1      15.323  33.924  20.591  1.00  0.00     0.139 C 
HETATM    9  O   LIG     1      15.927  32.958  20.052  1.00  0.00    -0.650 OA
BRANCH   8  10
HETATM   10  O   LIG     1      14.252  33.683  21.447  1.00  0.00    -0.776 OA
HETATM   11  H   LIG     1      13.319  34.002  21.215  1.00  0.00     0.167 HD
ENDBRANCH   8  10
ENDBRANCH   7   8
ENDBRANCH   1   7
TORSDOF 7
ENDMDL
MODEL 6
REMARK VINA RESULT:      -5.3      3.305      5.933
REMARK  7 active torsions:
REMARK  status: ('A' for Active; 'I' for Inactive)
REMARK    1  A    between atoms: C_2  and  C_3 
REMARK    2  A    between atoms: C_3  and  C_4 
REMARK    3  A    between atoms: C_4  and  C_5 
REMARK    4  A    between atoms: C_5  and  C_6 
REMARK    5  A    between atoms: C_6  and  C_7 
REMARK    6  A    between atoms: C_7  and  C_8 
REMARK    7  A    between atoms: C_8  and  O_9 
ROOT
HETATM    1  C   LIG     1      17.471  39.152  22.404  1.00  0.00     0.010 C 
ENDROOT
BRANCH   1   2
HETATM    2  C   LIG     1      18.421  39.077  21.196  1.00  0.00     0.001 C 
BRANCH   2   3
HETATM    3  C   LIG     1      18.476  37.675  20.563  1.00  0.00     0.000 C 
BRANCH   3   4
HETATM    4  C   LIG     1      19.009  37.636  19.119  1.00  0.00    -0.000 C 
BRANCH   4   5
HETATM    5  C   LIG     1      19.454  39.013  18.608  1.00  0.00    -0.005 C 
HETATM    6  C   LIG     1      18.785  39.349  17.277  1.00  0.00     0.005 C 
ENDBRANCH   4   5
ENDBRANCH   3   4
ENDBRANCH   2   3
ENDBRANCH   1   2
BRANCH   1   7
HETATM    7  C   LIG     1      17.988  38.335  23.596  1.00  0.00     0.110 C 
BRANCH   7   8
HETATM    8  C   LIG     1      16.879  37.920  24.515  1.00  0.00     0.139 C 
HETATM    9  O   LIG     1      15.689  37.901  24.102  1.00  0.00    -0.650 OA
BRANCH   8  10
HETATM   10  O   LIG     1      17.166  37.547  25.825  1.00  0.00    -0.776 OA
HETATM   11  H   LIG     1      18.123  37.413  26.129  1.00  0.00     0.167 HD
ENDBRANCH   8  10
ENDBRANCH   7   8
ENDBRANCH   1   7
TORSDOF 7
ENDMDL
MODEL 7
REMARK VINA RESULT:      -5.1      9.447     11.013
REMARK  7 active torsions:
REMARK  status: ('A' for Active; 'I' for Inactive)
REMARK    1  A    between atoms: C_2  and  C_3 
REMARK    2  A    between atoms: C_3  and  C_4 
REMARK    3  A    between atoms: C_4  and  C_5 
REMARK    4  A    between atoms: C_5  and  C_6 
REMARK    5  A    between atoms: C_6  and  C_7 
REMARK    6  A    between atoms: C_7  and  C_8 
REMARK    7  A    between atoms: C_8  and  O_9 
ROOT
HETATM    1  C   LIG     1      13.796  31.021  16.709  1.00  0.00     0.010 C 
ENDROOT
BRANCH   1   2
HETATM    2  C   LIG     1      12.909  30.417  15.607  1.00  0.00     0.001 C 
BRANCH   2   3
HETATM    3  C   LIG     1      13.718  29.688  14.519  1.00  0.00     0.000 C 
BRANCH   3   4
HETATM    4  C   LIG     1      15.206  30.073  14.450  1.00  0.00    -0.000 C 
BRANCH   4   5
HETATM    5  C   LIG     1      15.521  31.045  13.305  1.00  0.00    -0.005 C 
HETATM    6  C   LIG     1      16.231  32.294  13.822  1.00  0.00     0.005 C 
ENDBRANCH   4   5
ENDBRANCH   3   4
ENDBRANCH   2   3
ENDBRANCH   1   2
BRANCH   1   7
HETATM    7  C   LIG     1      13.603  32.540  16.836  1.00  0.00     0.110 C 
BRANCH   7   8
HETATM    8  C   LIG     1      14.892  33.245  17.127  1.00  0.00     0.139 C 
HETATM    9  O   LIG     1      15.771  32.692  17.841  1.00  0.00    -0.650 OA
BRANCH   8  10
HETATM   10  O   LIG     1      15.123  34.512  16.599  1.00  0.00    -0.776 OA
HETATM   11  H   LIG     1      14.841  35.344  17.102  1.00  0.00     0.167 HD
ENDBRANCH   8  10
ENDBRANCH   7   8
ENDBRANCH   1   7
TORSDOF 7
ENDMDL
MODEL 8
REMARK VINA RESULT:      -5.0      9.703     10.899
REMARK  7 active torsions:
REMARK  status: ('A' for Active; 'I' for Inactive)
REMARK    1  A    between atoms: C_2  and  C_3 
REMARK    2  A    between atoms: C_3  and  C_4 
REMARK    3  A    between atoms: C_4  and  C_5 
REMARK    4  A    between atoms: C_5  and  C_6 
REMARK    5  A    between atoms: C_6  and  C_7 
REMARK    6  A    between atoms: C_7  and  C_8 
REMARK    7  A    between atoms: C_8  and  O_9 
ROOT
HETATM    1  C   LIG     1      15.727  31.461  13.549  1.00  0.00     0.010 C 
ENDROOT
BRANCH   1   2
HETATM    2  C   LIG     1      15.445  30.244  14.448  1.00  0.00     0.001 C 
BRANCH   2   3
HETATM    3  C   LIG     1      13.980  29.779  14.386  1.00  0.00     0.000 C 
BRANCH   3   4
HETATM    4  C   LIG     1      13.051  30.417  15.436  1.00  0.00    -0.000 C 
BRANCH   4   5
HETATM    5  C   LIG     1      13.797  30.862  16.702  1.00  0.00    -0.005 C 
HETATM    6  C   LIG     1      13.673  32.369  16.912  1.00  0.00     0.005 C 
ENDBRANCH   4   5
ENDBRANCH   3   4
ENDBRANCH   2   3
ENDBRANCH   1   2
BRANCH   1   7
HETATM    7  C   LIG     1      16.535  32.543  14.280  1.00  0.00     0.110 C 
BRANCH   7   8
HETATM    8  C   LIG     1      17.398  33.329  13.340  1.00  0.00     0.139 C 
HETATM    9  O   LIG     1      17.523  34.574  13.486  1.00  0.00    -0.650 OA
BRANCH   8  10
HETATM   10  O   LIG     1      18.069  32.679  12.308  1.00  0.00    -0.776 OA
HETATM   11  H   LIG     1      18.255  31.685  12.355  1.00  0.00     0.167 HD
ENDBRANCH   8  10
ENDBRANCH   7   8
ENDBRANCH   1   7
TORSDOF 7
ENDMDL
MODEL 9
REMARK VINA RESULT:      -5.0      5.106      5.837
REMARK  7 active torsions:
REMARK  status: ('A' for Active; 'I' for Inactive)
REMARK    1  A    between atoms: C_2  and  C_3 
REMARK    2  A    between atoms: C_3  and  C_4 
REMARK    3  A    between atoms: C_4  and  C_5 
REMARK    4  A    between atoms: C_5  and  C_6 
REMARK    5  A    between atoms: C_6  and  C_7 
REMARK    6  A    between atoms: C_7  and  C_8 
REMARK    7  A    between atoms: C_8  and  O_9 
ROOT
HETATM    1  C   LIG     1      15.654  34.197  20.162  1.00  0.00     0.010 C 
ENDROOT
BRANCH   1   2
HETATM    2  C   LIG     1      15.855  34.576  21.640  1.00  0.00     0.001 C 
BRANCH   2   3
HETATM    3  C   LIG     1      16.309  36.034  21.829  1.00  0.00     0.000 C 
BRANCH   3   4
HETATM    4  C   LIG     1      17.009  36.327  23.168  1.00  0.00    -0.000 C 
BRANCH   4   5
HETATM    5  C   LIG     1      17.154  35.081  24.054  1.00  0.00    -0.005 C 
HETATM    6  C   LIG     1      17.508  35.463  25.488  1.00  0.00     0.005 C 
ENDBRANCH   4   5
ENDBRANCH   3   4
ENDBRANCH   2   3
ENDBRANCH   1   2
BRANCH   1   7
HETATM    7  C   LIG     1      15.401  32.693  19.981  1.00  0.00     0.110 C 
BRANCH   7   8
HETATM    8  C   LIG     1      15.015  32.356  18.573  1.00  0.00     0.139 C 
HETATM    9  O   LIG     1      15.728  32.748  17.610  1.00  0.00    -0.650 OA
BRANCH   8  10
HETATM   10  O   LIG     1      13.872  31.600  18.329  1.00  0.00    -0.776 OA
HETATM   11  H   LIG     1      13.641  31.297  17.391  1.00  0.00     0.167 HD
ENDBRANCH   8  10
ENDBRANCH   7   8
ENDBRANCH   1   7
TORSDOF 7
ENDMDL
MODEL 10
REMARK VINA RESULT:      -5.0      8.910     10.284
REMARK  7 active torsions:
REMARK  status: ('A' for Active; 'I' for Inactive)
REMARK    1  A    between atoms: C_2  and  C_3 
REMARK    2  A    between atoms: C_3  and  C_4 
REMARK    3  A    between atoms: C_4  and  C_5 
REMARK    4  A    between atoms: C_5  and  C_6 
REMARK    5  A    between atoms: C_6  and  C_7 
REMARK    6  A    between atoms: C_7  and  C_8 
REMARK    7  A    between atoms: C_8  and  O_9 
ROOT
HETATM    1  C   LIG     1      16.753  32.691  13.441  1.00  0.00     0.010 C 
ENDROOT
BRANCH   1   2
HETATM    2  C   LIG     1      15.743  31.531  13.413  1.00  0.00     0.001 C 
BRANCH   2   3
HETATM    3  C   LIG     1      15.328  31.062  14.819  1.00  0.00     0.000 C 
BRANCH   3   4
HETATM    4  C   LIG     1      14.055  30.198  14.866  1.00  0.00    -0.000 C 
BRANCH   4   5
HETATM    5  C   LIG     1      13.053  30.664  15.932  1.00  0.00    -0.005 C 
HETATM    6  C   LIG     1      13.712  31.616  16.927  1.00  0.00     0.005 C 
ENDBRANCH   4   5
ENDBRANCH   3   4
ENDBRANCH   2   3
ENDBRANCH   1   2
BRANCH   1   7
HETATM    7  C   LIG     1      17.241  32.996  14.865  1.00  0.00     0.110 C 
BRANCH   7   8
HETATM    8  C   LIG     1      16.860  34.377  15.303  1.00  0.00     0.139 C 
HETATM    9  O   LIG     1      17.347  35.383  14.721  1.00  0.00    -0.650 OA
BRANCH   8  10
HETATM   10  O   LIG     1      15.959  34.549  16.351  1.00  0.00    -0.776 OA
HETATM   11  H   LIG     1      15.557  35.457  16.546  1.00  0.00     0.167 HD
ENDBRANCH   8  10
ENDBRANCH   7   8
ENDBRANCH   1   7
TORSDOF 7
ENDMDL
MODEL 11
REMARK VINA RESULT:      -5.0      5.029      6.345
REMARK  7 active torsions:
REMARK  status: ('A' for Active; 'I' for Inactive)
REMARK    1  A    between atoms: C_2  and  C_3 
REMARK    2  A    between atoms: C_3  and  C_4 
REMARK    3  A    between atoms: C_4  and  C_5 
REMARK    4  A    between atoms: C_5  and  C_6 
REMARK    5  A    between atoms: C_6  and  C_7 
REMARK    6  A    between atoms: C_7  and  C_8 
REMARK    7  A    between atoms: C_8  and  O_9 
ROOT
HETATM    1  C   LIG     1      15.667  34.260  20.090  1.00  0.00     0.010 C 
ENDROOT
BRANCH   1   2
HETATM    2  C   LIG     1      15.547  34.683  21.565  1.00  0.00     0.001 C 
BRANCH   2   3
HETATM    3  C   LIG     1      15.811  36.184  21.781  1.00  0.00     0.000 C 
BRANCH   3   4
HETATM    4  C   LIG     1      17.227  36.655  21.402  1.00  0.00    -0.000 C 
BRANCH   4   5
HETATM    5  C   LIG     1      17.532  38.081  21.882  1.00  0.00    -0.005 C 
HETATM    6  C   LIG     1      18.491  38.789  20.929  1.00  0.00     0.005 C 
ENDBRANCH   4   5
ENDBRANCH   3   4
ENDBRANCH   2   3
ENDBRANCH   1   2
BRANCH   1   7
HETATM    7  C   LIG     1      15.473  32.748  19.906  1.00  0.00     0.110 C 
BRANCH   7   8
HETATM    8  C   LIG     1      15.009  32.407  18.523  1.00  0.00     0.139 C 
HETATM    9  O   LIG     1      15.758  32.623  17.532  1.00  0.00    -0.650 OA
BRANCH   8  10
HETATM   10  O   LIG     1      13.751  31.843  18.332  1.00  0.00    -0.776 OA
HETATM   11  H   LIG     1      13.454  31.534  17.415  1.00  0.00     0.167 HD
ENDBRANCH   8  10
ENDBRANCH   7   8
ENDBRANCH   1   7
TORSDOF 7
ENDMDL
MODEL 12
REMARK VINA RESULT:      -4.9      3.838      5.299
REMARK  7 active torsions:
REMARK  status: ('A' for Active; 'I' for Inactive)
REMARK    1  A    between atoms: C_2  and  C_3 
REMARK    2  A    between atoms: C_3  and  C_4 
REMARK    3  A    between atoms: C_4  and  C_5 
REMARK    4  A    between atoms: C_5  and  C_6 
REMARK    5  A    between atoms: C_6  and  C_7 
REMARK    6  A    between atoms: C_7  and  C_8 
REMARK    7  A    between atoms: C_8  and  O_9 
ROOT
HETATM    1  C   LIG     1      16.998  35.966  20.122  1.00  0.00     0.010 C 
ENDROOT
BRANCH   1   2
HETATM    2  C   LIG     1      18.396  36.480  20.507  1.00  0.00     0.001 C 
BRANCH   2   3
HETATM    3  C   LIG     1      18.759  37.805  19.814  1.00  0.00     0.000 C 
BRANCH   3   4
HETATM    4  C   LIG     1      18.515  39.068  20.659  1.00  0.00    -0.000 C 
BRANCH   4   5
HETATM    5  C   LIG     1      18.284  38.758  22.145  1.00  0.00    -0.005 C 
HETATM    6  C   LIG     1      16.829  39.002  22.539  1.00  0.00     0.005 C 
ENDBRANCH   4   5
ENDBRANCH   3   4
ENDBRANCH   2   3
ENDBRANCH   1   2
BRANCH   1   7
HETATM    7  C   LIG     1      16.462  34.941  21.132  1.00  0.00     0.110 C 
BRANCH   7   8
HETATM    8  C   LIG     1      15.020  35.178  21.460  1.00  0.00     0.139 C 
HETATM    9  O   LIG     1      14.603  36.348  21.674  1.00  0.00    -0.650 OA
BRANCH   8  10
HETATM   10  O   LIG     1      14.136  34.104  21.519  1.00  0.00    -0.776 OA
HETATM   11  H   LIG     1      13.166  34.214  21.249  1.00  0.00     0.167 HD
ENDBRANCH   8  10
ENDBRANCH   7   8
ENDBRANCH   1   7
TORSDOF 7
ENDMDL
MODEL 13
REMARK VINA RESULT:      -4.8      3.739      5.955
REMARK  7 active torsions:
REMARK  status: ('A' for Active; 'I' for Inactive)
REMARK    1  A    between atoms: C_2  and  C_3 
REMARK    2  A    between atoms: C_3  and  C_4 
REMARK    3  A    between atoms: C_4  and  C_5 
REMARK    4  A    between atoms: C_5  and  C_6 
REMARK    5  A    between atoms: C_6  and  C_7 
REMARK    6  A    between atoms: C_7  and  C_8 
REMARK    7  A    between atoms: C_8  and  O_9 
ROOT
HETATM    1  C   LIG     1      17.480  35.838  21.219  1.00  0.00     0.010 C 
ENDROOT
BRANCH   1   2
HETATM    2  C   LIG     1      17.929  37.085  20.438  1.00  0.00     0.001 C 
BRANCH   2   3
HETATM    3  C   LIG     1      19.220  36.856  19.632  1.00  0.00     0.000 C 
BRANCH   3   4
HETATM    4  C   LIG     1      20.023  38.130  19.316  1.00  0.00    -0.000 C 
BRANCH   4   5
HETATM    5  C   LIG     1      19.133  39.315  18.916  1.00  0.00    -0.005 C 
HETATM    6  C   LIG     1      18.823  39.292  17.422  1.00  0.00     0.005 C 
ENDBRANCH   4   5
ENDBRANCH   3   4
ENDBRANCH   2   3
ENDBRANCH   1   2
BRANCH   1   7
HETATM    7  C   LIG     1      16.788  36.203  22.540  1.00  0.00     0.110 C 
BRANCH   7   8
HETATM    8  C   LIG     1      15.429  36.794  22.316  1.00  0.00     0.139 C 
HETATM    9  O   LIG     1      14.617  36.234  21.532  1.00  0.00    -0.650 OA
BRANCH   8  10
HETATM   10  O   LIG     1      15.061  37.959  22.983  1.00  0.00    -0.776 OA
HETATM   11  H   LIG     1      15.495  38.845  22.758  1.00  0.00     0.167 HD
ENDBRANCH   8  10
ENDBRANCH   7   8
ENDBRANCH   1   7
TORSDOF 7
ENDMDL
MODEL 14
REMARK VINA RESULT:      -4.7      8.349      9.726
REMARK  7 active torsions:
REMARK  status: ('A' for Active; 'I' for Inactive)
REMARK    1  A    between atoms: C_2  and  C_3 
REMARK    2  A    between atoms: C_3  and  C_4 
REMARK    3  A    between atoms: C_4  and  C_5 
REMARK    4  A    between atoms: C_5  and  C_6 
REMARK    5  A    between atoms: C_6  and  C_7 
REMARK    6  A    between atoms: C_7  and  C_8 
REMARK    7  A    between atoms: C_8  and  O_9 
ROOT
HETATM    1  C   LIG     1      15.163  32.678  18.504  1.00  0.00     0.010 C 
ENDROOT
BRANCH   1   2
HETATM    2  C   LIG     1      14.283  31.528  17.984  1.00  0.00     0.001 C 
BRANCH   2   3
HETATM    3  C   LIG     1      14.075  31.575  16.460  1.00  0.00     0.000 C 
BRANCH   3   4
HETATM    4  C   LIG     1      13.049  30.566  15.913  1.00  0.00    -0.000 C 
BRANCH   4   5
HETATM    5  C   LIG     1      13.573  29.774  14.706  1.00  0.00    -0.005 C 
HETATM    6  C   LIG     1      15.040  30.096  14.431  1.00  0.00     0.005 C 
ENDBRANCH   4   5
ENDBRANCH   3   4
ENDBRANCH   2   3
ENDBRANCH   1   2
BRANCH   1   7
HETATM    7  C   LIG     1      15.287  32.662  20.035  1.00  0.00     0.110 C 
BRANCH   7   8
HETATM    8  C   LIG     1      15.618  34.016  20.584  1.00  0.00     0.139 C 
HETATM    9  O   LIG     1      15.209  34.354  21.727  1.00  0.00    -0.650 OA
BRANCH   8  10
HETATM   10  O   LIG     1      16.387  34.900  19.832  1.00  0.00    -0.776 OA
HETATM   11  H   LIG     1      16.036  35.818  19.590  1.00  0.00     0.167 HD
ENDBRANCH   8  10
ENDBRANCH   7   8
ENDBRANCH   1   7
TORSDOF 7
ENDMDL
MODEL 15
REMARK VINA RESULT:      -4.7      8.868      9.835
REMARK  7 active torsions:
REMARK  status: ('A' for Active; 'I' for Inactive)
REMARK    1  A    between atoms: C_2  and  C_3 
REMARK    2  A    between atoms: C_3  and  C_4 
REMARK    3  A    between atoms: C_4  and  C_5 
REMARK    4  A    between atoms: C_5  and  C_6 
REMARK    5  A    between atoms: C_6  and  C_7 
REMARK    6  A    between atoms: C_7  and  C_8 
REMARK    7  A    between atoms: C_8  and  O_9 
ROOT
HETATM    1  C   LIG     1      15.612  30.564  14.569  1.00  0.00     0.010 C 
ENDROOT
BRANCH   1   2
HETATM    2  C   LIG     1      14.141  30.242  14.885  1.00  0.00     0.001 C 
BRANCH   2   3
HETATM    3  C   LIG     1      13.501  31.252  15.854  1.00  0.00     0.000 C 
BRANCH   3   4
HETATM    4  C   LIG     1      13.748  30.966  17.346  1.00  0.00    -0.000 C 
BRANCH   4   5
HETATM    5  C   LIG     1      14.535  32.082  18.048  1.00  0.00    -0.005 C 
HETATM    6  C   LIG     1      14.861  31.703  19.490  1.00  0.00     0.005 C 
ENDBRANCH   4   5
ENDBRANCH   3   4
ENDBRANCH   2   3
ENDBRANCH   1   2
BRANCH   1   7
HETATM    7  C   LIG     1      15.806  32.032  14.162  1.00  0.00     0.110 C 
BRANCH   7   8
HETATM    8  C   LIG     1      16.728  32.755  15.096  1.00  0.00     0.139 C 
HETATM    9  O   LIG     1      17.869  32.283  15.350  1.00  0.00    -0.650 OA
BRANCH   8  10
HETATM   10  O   LIG     1      16.327  33.954  15.678  1.00  0.00    -0.776 OA
HETATM   11  H   LIG     1      16.974  34.509  16.224  1.00  0.00     0.167 HD
ENDBRANCH   8  10
ENDBRANCH   7   8
ENDBRANCH   1   7
TORSDOF 7
ENDMDL
MODEL 16
REMARK VINA RESULT:      -4.7      9.682     10.665
REMARK  7 active torsions:
REMARK  status: ('A' for Active; 'I' for Inactive)
REMARK    1  A    between atoms: C_2  and  C_3 
REMARK    2  A    between atoms: C_3  and  C_4 
REMARK    3  A    between atoms: C_4  and  C_5 
REMARK    4  A    between atoms: C_5  and  C_6 
REMARK    5  A    between atoms: C_6  and  C_7 
REMARK    6  A    between atoms: C_7  and  C_8 
REMARK    7  A    between atoms: C_8  and  O_9 
ROOT
HETATM    1  C   LIG     1      15.482  31.514  14.287  1.00  0.00     0.010 C 
ENDROOT
BRANCH   1   2
HETATM    2  C   LIG     1      16.228  32.070  15.512  1.00  0.00     0.001 C 
BRANCH   2   3
HETATM    3  C   LIG     1      15.333  32.934  16.419  1.00  0.00     0.000 C 
BRANCH   3   4
HETATM    4  C   LIG     1      14.641  32.172  17.563  1.00  0.00    -0.000 C 
BRANCH   4   5
HETATM    5  C   LIG     1      15.256  32.468  18.938  1.00  0.00    -0.005 C 
HETATM    6  C   LIG     1      14.871  31.398  19.956  1.00  0.00     0.005 C 
ENDBRANCH   4   5
ENDBRANCH   3   4
ENDBRANCH   2   3
ENDBRANCH   1   2
BRANCH   1   7
HETATM    7  C   LIG     1      15.246  30.000  14.393  1.00  0.00     0.110 C 
BRANCH   7   8
HETATM    8  C   LIG     1      13.788  29.665  14.475  1.00  0.00     0.139 C 
HETATM    9  O   LIG     1      13.010  30.386  15.156  1.00  0.00    -0.650 OA
BRANCH   8  10
HETATM   10  O   LIG     1      13.291  28.559  13.791  1.00  0.00    -0.776 OA
HETATM   11  H   LIG     1      12.611  28.670  13.049  1.00  0.00     0.167 HD
ENDBRANCH   8  10
ENDBRANCH   7   8
ENDBRANCH   1   7
TORSDOF 7
ENDMDL
MODEL 17
REMARK VINA RESULT:      -4.6      7.240      8.155
REMARK  7 active torsions:
REMARK  status: ('A' for Active; 'I' for Inactive)
REMARK    1  A    between atoms: C_2  and  C_3 
REMARK    2  A    between atoms: C_3  and  C_4 
REMARK    3  A    between atoms: C_4  and  C_5 
REMARK    4  A    between atoms: C_5  and  C_6 
REMARK    5  A    between atoms: C_6  and  C_7 
REMARK    6  A    between atoms: C_7  and  C_8 
REMARK    7  A    between atoms: C_8  and  O_9 
ROOT
HETATM    1  C   LIG     1      14.967  33.005  17.823  1.00  0.00     0.010 C 
ENDROOT
BRANCH   1   2
HETATM    2  C   LIG     1      15.172  32.308  19.179  1.00  0.00     0.001 C 
BRANCH   2   3
HETATM    3  C   LIG     1      15.652  33.269  20.281  1.00  0.00     0.000 C 
BRANCH   3   4
HETATM    4  C   LIG     1      15.623  34.760  19.899  1.00  0.00    -0.000 C 
BRANCH   4   5
HETATM    5  C   LIG     1      16.659  35.595  20.665  1.00  0.00    -0.005 C 
HETATM    6  C   LIG     1      16.876  35.046  22.073  1.00  0.00     0.005 C 
ENDBRANCH   4   5
ENDBRANCH   3   4
ENDBRANCH   2   3
ENDBRANCH   1   2
BRANCH   1   7
HETATM    7  C   LIG     1      14.795  31.998  16.677  1.00  0.00     0.110 C 
BRANCH   7   8
HETATM    8  C   LIG     1      13.397  31.461  16.608  1.00  0.00     0.139 C 
HETATM    9  O   LIG     1      13.165  30.372  16.018  1.00  0.00    -0.650 OA
BRANCH   8  10
HETATM   10  O   LIG     1      12.355  32.164  17.206  1.00  0.00    -0.776 OA
HETATM   11  H   LIG     1      12.515  32.730  18.029  1.00  0.00     0.167 HD
ENDBRANCH   8  10
ENDBRANCH   7   8
ENDBRANCH   1   7
TORSDOF 7
ENDMDL
MODEL 18
REMARK VINA RESULT:      -4.5     10.269     11.155
REMARK  7 active torsions:
REMARK  status: ('A' for Active; 'I' for Inactive)
REMARK    1  A    between atoms: C_2  and  C_3 
REMARK    2  A    between atoms: C_3  and  C_4 
REMARK    3  A    between atoms: C_4  and  C_5 
REMARK    4  A    between atoms: C_5  and  C_6 
REMARK    5  A    between atoms: C_6  and  C_7 
REMARK    6  A    between atoms: C_7  and  C_8 
REMARK    7  A    between atoms: C_8  and  O_9 
ROOT
HETATM    1  C   LIG     1      14.155  30.776  14.910  1.00  0.00     0.010 C 
ENDROOT
BRANCH   1   2
HETATM    2  C   LIG     1      13.781  30.720  16.402  1.00  0.00     0.001 C 
BRANCH   2   3
HETATM    3  C   LIG     1      13.677  32.114  17.046  1.00  0.00     0.000 C 
BRANCH   3   4
HETATM    4  C   LIG     1      14.944  32.584  17.783  1.00  0.00    -0.000 C 
BRANCH   4   5
HETATM    5  C   LIG     1      15.018  32.078  19.230  1.00  0.00    -0.005 C 
HETATM    6  C   LIG     1      15.527  33.168  20.170  1.00  0.00     0.005 C 
ENDBRANCH   4   5
ENDBRANCH   3   4
ENDBRANCH   2   3
ENDBRANCH   1   2
BRANCH   1   7
HETATM    7  C   LIG     1      14.983  29.557  14.477  1.00  0.00     0.110 C 
BRANCH   7   8
HETATM    8  C   LIG     1      14.119  28.456  13.943  1.00  0.00     0.139 C 
HETATM    9  O   LIG     1      14.637  27.368  13.571  1.00  0.00    -0.650 OA
BRANCH   8  10
HETATM   10  O   LIG     1      12.740  28.631  13.864  1.00  0.00    -0.776 OA
HETATM   11  H   LIG     1      12.247  29.179  14.558  1.00  0.00     0.167 HD
ENDBRANCH   8  10
ENDBRANCH   7   8
ENDBRANCH   1   7
TORSDOF 7
ENDMDL
MODEL 19
REMARK VINA RESULT:      -4.5      9.451     10.242
REMARK  7 active torsions:
REMARK  status: ('A' for Active; 'I' for Inactive)
REMARK    1  A    between atoms: C_2  and  C_3 
REMARK    2  A    between atoms: C_3  and  C_4 
REMARK    3  A    between atoms: C_4  and  C_5 
REMARK    4  A    between atoms: C_5  and  C_6 
REMARK    5  A    between atoms: C_6  and  C_7 
REMARK    6  A    between atoms: C_7  and  C_8 
REMARK    7  A    between atoms: C_8  and  O_9 
ROOT
HETATM    1  C   LIG     1      16.394  32.507  14.627  1.00  0.00     0.010 C 
ENDROOT
BRANCH   1   2
HETATM    2  C   LIG     1      16.103  32.397  16.134  1.00  0.00     0.001 C 
BRANCH   2   3
HETATM    3  C   LIG     1      14.614  32.583  16.473  1.00  0.00     0.000 C 
BRANCH   3   4
HETATM    4  C   LIG     1      13.922  31.340  17.062  1.00  0.00    -0.000 C 
BRANCH   4   5
HETATM    5  C   LIG     1      12.898  30.714  16.104  1.00  0.00    -0.005 C 
HETATM    6  C   LIG     1      13.590  30.056  14.913  1.00  0.00     0.005 C 
ENDBRANCH   4   5
ENDBRANCH   3   4
ENDBRANCH   2   3
ENDBRANCH   1   2
BRANCH   1   7
HETATM    7  C   LIG     1      17.641  33.357  14.341  1.00  0.00     0.110 C 
BRANCH   7   8
HETATM    8  C   LIG     1      17.853  33.561  12.872  1.00  0.00     0.139 C 
HETATM    9  O   LIG     1      18.650  32.819  12.238  1.00  0.00    -0.650 OA
BRANCH   8  10
HETATM   10  O   LIG     1      17.163  34.569  12.205  1.00  0.00    -0.776 OA
HETATM   11  H   LIG     1      16.404  35.065  12.657  1.00  0.00     0.167 HD
ENDBRANCH   8  10
ENDBRANCH   7   8
ENDBRANCH   1   7
TORSDOF 7
ENDMDL
MODEL 20
REMARK VINA RESULT:      -4.5     10.601     11.944
REMARK  7 active torsions:
REMARK  status: ('A' for Active; 'I' for Inactive)
REMARK    1  A    between atoms: C_2  and  C_3 
REMARK    2  A    between atoms: C_3  and  C_4 
REMARK    3  A    between atoms: C_4  and  C_5 
REMARK    4  A    between atoms: C_5  and  C_6 
REMARK    5  A    between atoms: C_6  and  C_7 
REMARK    6  A    between atoms: C_7  and  C_8 
REMARK    7  A    between atoms: C_8  and  O_9 
ROOT
HETATM    1  C   LIG     1      13.023  30.438  15.559  1.00  0.00     0.010 C 
ENDROOT
BRANCH   1   2
HETATM    2  C   LIG     1      13.819  30.980  16.759  1.00  0.00     0.001 C 
BRANCH   2   3
HETATM    3  C   LIG     1      13.955  32.513  16.744  1.00  0.00     0.000 C 
BRANCH   3   4
HETATM    4  C   LIG     1      15.399  33.035  16.623  1.00  0.00    -0.000 C 
BRANCH   4   5
HETATM    5  C   LIG     1      16.160  32.420  15.439  1.00  0.00    -0.005 C 
HETATM    6  C   LIG     1      17.223  33.379  14.911  1.00  0.00     0.005 C 
ENDBRANCH   4   5
ENDBRANCH   3   4
ENDBRANCH   2   3
ENDBRANCH   1   2
BRANCH   1   7
HETATM    7  C   LIG     1      13.931  29.755  14.526  1.00  0.00     0.110 C 
BRANCH   7   8
HETATM    8  C   LIG     1      13.285  28.543  13.927  1.00  0.00     0.139 C 
HETATM    9  O   LIG     1      13.948  27.482  13.775  1.00  0.00    -0.650 OA
BRANCH   8  10
HETATM   10  O   LIG     1      11.947  28.587  13.546  1.00  0.00    -0.776 OA
HETATM   11  H   LIG     1      11.496  27.778  13.137  1.00  0.00     0.167 HD
ENDBRANCH   8  10
ENDBRANCH   7   8
ENDBRANCH   1   7
TORSDOF 7
ENDMDL
