REMARK  7 active torsions:
REMARK  status: ('A' for Active; 'I' for Inactive)
REMARK    1  A    between atoms: O_1  and  C_2 
REMARK    2  A    between atoms: C_2  and  C_3 
REMARK    3  A    between atoms: C_3  and  C_4 
REMARK    4  A    between atoms: C_4  and  C_5 
REMARK    5  A    between atoms: C_5  and  C_6 
REMARK    6  A    between atoms: C_6  and  C_7 
REMARK    7  A    between atoms: C_7  and  O_8 
ROOT
HETATM    1  C   LIG     1      -0.510   0.447   0.028  1.00  0.00     0.011 C 
ENDROOT
BRANCH   1   2
HETATM    2  C   LIG     1      -1.673   0.029  -0.876  1.00  0.00     0.110 C 
BRANCH   2   3
HETATM    3  C   LIG     1      -2.965   0.060  -0.117  1.00  0.00     0.139 C 
HETATM    4  O   LIG     1      -3.699   1.082  -0.167  1.00  0.00    -0.650 OA
BRANCH   3   5
HETATM    5  O   LIG     1      -3.343  -1.016   0.681  1.00  0.00    -0.776 OA
HETATM    6  H   LIG     1      -2.762  -1.842   0.756  1.00  0.00     0.167 HD
ENDBRANCH   3   5
ENDBRANCH   2   3
ENDBRANCH   1   2
BRANCH   1   7
HETATM    7  C   LIG     1       0.821   0.411  -0.737  1.00  0.00     0.011 C 
BRANCH   7   8
HETATM    8  C   LIG     1       1.999   0.877   0.129  1.00  0.00     0.110 C 
BRANCH   8   9
HETATM    9  C   LIG     1       2.288  -0.081   1.249  1.00  0.00     0.139 C 
HETATM   10  O   LIG     1       2.127   0.283   2.444  1.00  0.00    -0.650 OA
BRANCH   9  11
HETATM   11  O   LIG     1       2.745  -1.369   0.984  1.00  0.00    -0.776 OA
HETATM   12  H   LIG     1       2.909  -1.683   0.035  1.00  0.00     0.167 HD
ENDBRANCH   9  11
ENDBRANCH   8   9
ENDBRANCH   7   8
ENDBRANCH   1   7
TORSDOF 7
