REMARK  7 active torsions:
REMARK  status: ('A' for Active; 'I' for Inactive)
REMARK    1  A    between atoms: C_2  and  C_3 
REMARK    2  A    between atoms: C_3  and  C_4 
REMARK    3  A    between atoms: C_4  and  C_5 
REMARK    4  A    between atoms: C_5  and  C_6 
REMARK    5  A    between atoms: C_6  and  C_7 
REMARK    6  A    between atoms: C_7  and  C_8 
REMARK    7  A    between atoms: C_8  and  O_9 
ROOT
HETATM    1  C   LIG     1      -1.291  -0.913  -0.595  1.00  0.00     0.010 C 
ENDROOT
BRANCH   1   2
HETATM    2  C   LIG     1      -0.763  -0.596   0.815  1.00  0.00     0.001 C 
BRANCH   2   3
HETATM    3  C   LIG     1       0.589  -1.268   1.114  1.00  0.00     0.000 C 
BRANCH   3   4
HETATM    4  C   LIG     1       1.745  -0.838   0.193  1.00  0.00    -0.000 C 
BRANCH   4   5
HETATM    5  C   LIG     1       2.055   0.663   0.282  1.00  0.00    -0.005 C 
HETATM    6  C   LIG     1       3.320   1.011  -0.498  1.00  0.00     0.005 C 
ENDBRANCH   4   5
ENDBRANCH   3   4
ENDBRANCH   2   3
ENDBRANCH   1   2
BRANCH   1   7
HETATM    7  C   LIG     1      -2.727  -0.409  -0.800  1.00  0.00     0.110 C 
BRANCH   7   8
HETATM    8  C   LIG     1      -2.805   1.087  -0.770  1.00  0.00     0.139 C 
HETATM    9  O   LIG     1      -2.208   1.770  -1.645  1.00  0.00    -0.650 OA
BRANCH   8  10
HETATM   10  O   LIG     1      -3.546   1.723   0.222  1.00  0.00    -0.776 OA
HETATM   11  H   LIG     1      -3.609   2.733   0.256  1.00  0.00     0.167 HD
ENDBRANCH   8  10
ENDBRANCH   7   8
ENDBRANCH   1   7
TORSDOF 7
