MODEL 1
REMARK VINA RESULT:      -5.2      0.000      0.000
REMARK  6 active torsions:
REMARK  status: ('A' for Active; 'I' for Inactive)
REMARK    1  A    between atoms: C_13  and  O_14 
REMARK    2  A    between atoms: C_20  and  O_21 
REMARK    3  A    between atoms: C_22  and  C_24 
REMARK    4  A    between atoms: C_22  and  O_23 
REMARK    5  A    between atoms: C_24  and  C_25 
REMARK    6  A    between atoms: C_25  and  O_26 
ROOT
HETATM    1  O   LIG     1      22.434  17.933  20.637  1.00  0.00    -0.289 OA
HETATM    2  C   LIG     1      22.838  19.126  20.690  1.00  0.00     0.172 C 
HETATM    3  C   LIG     1      23.369  19.665  21.940  1.00  0.00     0.052 C 
HETATM    4  C   LIG     1      23.745  20.943  22.019  1.00  0.00    -0.006 C 
HETATM    5  C   LIG     1      23.561  21.952  20.879  1.00  0.00     0.036 C 
HETATM    6  C   LIG     1      22.331  22.800  21.296  1.00  0.00     0.028 C 
HETATM    7  C   LIG     1      23.191  21.260  19.548  1.00  0.00    -0.061 C 
HETATM    8  C   LIG     1      23.317  22.047  18.254  1.00  0.00     0.036 C 
HETATM    9  C   LIG     1      24.692  22.751  18.111  1.00  0.00     0.013 C 
HETATM   10  C   LIG     1      25.605  22.517  19.337  1.00  0.00     0.035 C 
HETATM   11  C   LIG     1      24.852  22.890  20.659  1.00  0.00     0.147 C 
HETATM   12  F   LIG     1      24.375  24.185  20.522  1.00  0.00    -0.238 F 
HETATM   13  C   LIG     1      25.875  22.938  21.849  1.00  0.00     0.160 C 
HETATM   14  C   LIG     1      27.071  23.931  21.643  1.00  0.00     0.048 C 
HETATM   15  C   LIG     1      27.391  24.308  20.147  1.00  0.00     0.003 C 
HETATM   16  C   LIG     1      26.567  25.595  19.742  1.00  0.00     0.019 C 
HETATM   17  C   LIG     1      27.050  23.117  19.237  1.00  0.00     0.007 C 
HETATM   18  C   LIG     1      27.639  23.483  17.874  1.00  0.00     0.041 C 
HETATM   19  C   LIG     1      28.898  24.325  18.194  1.00  0.00     0.161 C 
HETATM   20  C   LIG     1      28.917  24.541  19.760  1.00  0.00     0.153 C 
HETATM   21  C   LIG     1      22.811  19.970  19.494  1.00  0.00     0.058 C 
ENDROOT
BRANCH  20  22
HETATM   22  C   LIG     1      29.926  23.595  20.470  1.00  0.00     0.187 C 
HETATM   23  O   LIG     1      30.491  23.999  21.482  1.00  0.00    -0.292 OA
BRANCH  22  24
HETATM   24  C   LIG     1      30.386  22.245  19.947  1.00  0.00     0.245 C 
BRANCH  24  25
HETATM   25  O   LIG     1      29.664  21.198  20.538  1.00  0.00    -0.393 OA
HETATM   26  H   LIG     1      30.324  20.581  20.958  1.00  0.00     0.209 HD
ENDBRANCH  24  25
ENDBRANCH  22  24
ENDBRANCH  20  22
BRANCH  20  27
HETATM   27  O   LIG     1      29.325  25.862  20.055  1.00  0.00    -0.378 OA
HETATM   28  H   LIG     1      30.027  26.116  19.399  1.00  0.00     0.211 HD
ENDBRANCH  20  27
BRANCH  19  29
HETATM   29  O   LIG     1      28.819  25.552  17.507  1.00  0.00    -0.392 OA
HETATM   30  H   LIG     1      27.872  25.658  17.217  1.00  0.00     0.210 HD
ENDBRANCH  19  29
BRANCH  13  31
HETATM   31  O   LIG     1      26.367  21.655  22.171  1.00  0.00    -0.392 OA
HETATM   32  H   LIG     1      27.141  21.752  22.777  1.00  0.00     0.210 HD
ENDBRANCH  13  31
TORSDOF 6
ENDMDL
MODEL 2
REMARK VINA RESULT:      -4.7      2.342      3.623
REMARK  6 active torsions:
REMARK  status: ('A' for Active; 'I' for Inactive)
REMARK    1  A    between atoms: C_13  and  O_14 
REMARK    2  A    between atoms: C_20  and  O_21 
REMARK    3  A    between atoms: C_22  and  C_24 
REMARK    4  A    between atoms: C_22  and  O_23 
REMARK    5  A    between atoms: C_24  and  C_25 
REMARK    6  A    between atoms: C_25  and  O_26 
ROOT
HETATM    1  O   LIG     1      22.175  18.357  15.468  1.00  0.00    -0.289 OA
HETATM    2  C   LIG     1      22.942  18.795  16.369  1.00  0.00     0.172 C 
HETATM    3  C   LIG     1      24.316  18.310  16.459  1.00  0.00     0.052 C 
HETATM    4  C   LIG     1      25.116  18.725  17.443  1.00  0.00    -0.006 C 
HETATM    5  C   LIG     1      24.651  19.634  18.586  1.00  0.00     0.036 C 
HETATM    6  C   LIG     1      24.471  18.683  19.799  1.00  0.00     0.028 C 
HETATM    7  C   LIG     1      23.265  20.256  18.303  1.00  0.00    -0.061 C 
HETATM    8  C   LIG     1      22.809  21.440  19.141  1.00  0.00     0.036 C 
HETATM    9  C   LIG     1      23.876  22.561  19.227  1.00  0.00     0.013 C 
HETATM   10  C   LIG     1      25.175  22.200  18.468  1.00  0.00     0.035 C 
HETATM   11  C   LIG     1      25.707  20.800  18.929  1.00  0.00     0.147 C 
HETATM   12  F   LIG     1      25.824  20.828  20.310  1.00  0.00    -0.238 F 
HETATM   13  C   LIG     1      27.164  20.588  18.383  1.00  0.00     0.160 C 
HETATM   14  C   LIG     1      28.190  21.694  18.812  1.00  0.00     0.048 C 
HETATM   15  C   LIG     1      27.563  23.077  19.229  1.00  0.00     0.003 C 
HETATM   16  C   LIG     1      27.279  23.077  20.784  1.00  0.00     0.019 C 
HETATM   17  C   LIG     1      26.275  23.316  18.425  1.00  0.00     0.007 C 
HETATM   18  C   LIG     1      25.904  24.774  18.703  1.00  0.00     0.041 C 
HETATM   19  C   LIG     1      27.255  25.502  18.896  1.00  0.00     0.161 C 
HETATM   20  C   LIG     1      28.381  24.393  18.862  1.00  0.00     0.153 C 
HETATM   21  C   LIG     1      22.474  19.817  17.308  1.00  0.00     0.058 C 
ENDROOT
BRANCH  20  22
HETATM   22  C   LIG     1      29.119  24.347  17.495  1.00  0.00     0.187 C 
HETATM   23  O   LIG     1      30.327  24.130  17.492  1.00  0.00    -0.292 OA
BRANCH  22  24
HETATM   24  C   LIG     1      28.502  24.682  16.149  1.00  0.00     0.245 C 
BRANCH  24  25
HETATM   25  O   LIG     1      29.187  25.734  15.524  1.00  0.00    -0.393 OA
HETATM   26  H   LIG     1      29.800  26.134  16.199  1.00  0.00     0.209 HD
ENDBRANCH  24  25
ENDBRANCH  22  24
ENDBRANCH  20  22
BRANCH  20  27
HETATM   27  O   LIG     1      29.360  24.676  19.842  1.00  0.00    -0.378 OA
HETATM   28  H   LIG     1      29.713  23.810  20.178  1.00  0.00     0.211 HD
ENDBRANCH  20  27
BRANCH  19  29
HETATM   29  O   LIG     1      27.240  26.182  20.129  1.00  0.00    -0.392 OA
HETATM   30  H   LIG     1      27.362  27.150  19.924  1.00  0.00     0.210 HD
ENDBRANCH  19  29
BRANCH  13  31
HETATM   31  O   LIG     1      27.182  20.436  16.980  1.00  0.00    -0.392 OA
HETATM   32  H   LIG     1      27.375  21.311  16.566  1.00  0.00     0.210 HD
ENDBRANCH  13  31
TORSDOF 6
ENDMDL
MODEL 3
REMARK VINA RESULT:      -4.6      3.654      6.054
REMARK  6 active torsions:
REMARK  status: ('A' for Active; 'I' for Inactive)
REMARK    1  A    between atoms: C_13  and  O_14 
REMARK    2  A    between atoms: C_20  and  O_21 
REMARK    3  A    between atoms: C_22  and  C_24 
REMARK    4  A    between atoms: C_22  and  O_23 
REMARK    5  A    between atoms: C_24  and  C_25 
REMARK    6  A    between atoms: C_25  and  O_26 
ROOT
HETATM    1  O   LIG     1      20.702  21.052  28.239  1.00  0.00    -0.289 OA
HETATM    2  C   LIG     1      21.620  20.786  27.415  1.00  0.00     0.172 C 
HETATM    3  C   LIG     1      21.565  19.555  26.630  1.00  0.00     0.052 C 
HETATM    4  C   LIG     1      22.560  19.239  25.800  1.00  0.00    -0.006 C 
HETATM    5  C   LIG     1      23.853  20.055  25.677  1.00  0.00     0.036 C 
HETATM    6  C   LIG     1      24.911  19.241  26.466  1.00  0.00     0.028 C 
HETATM    7  C   LIG     1      23.739  21.428  26.376  1.00  0.00    -0.061 C 
HETATM    8  C   LIG     1      24.772  22.498  26.061  1.00  0.00     0.036 C 
HETATM    9  C   LIG     1      24.976  22.704  24.538  1.00  0.00     0.013 C 
HETATM   10  C   LIG     1      24.106  21.747  23.690  1.00  0.00     0.035 C 
HETATM   11  C   LIG     1      24.318  20.264  24.149  1.00  0.00     0.147 C 
HETATM   12  F   LIG     1      25.680  20.003  24.117  1.00  0.00    -0.238 F 
HETATM   13  C   LIG     1      23.674  19.293  23.097  1.00  0.00     0.160 C 
HETATM   14  C   LIG     1      24.217  19.460  21.635  1.00  0.00     0.048 C 
HETATM   15  C   LIG     1      24.874  20.854  21.309  1.00  0.00     0.003 C 
HETATM   16  C   LIG     1      26.423  20.790  21.621  1.00  0.00     0.019 C 
HETATM   17  C   LIG     1      24.182  21.949  22.137  1.00  0.00     0.007 C 
HETATM   18  C   LIG     1      24.700  23.266  21.556  1.00  0.00     0.041 C 
HETATM   19  C   LIG     1      24.936  22.977  20.055  1.00  0.00     0.161 C 
HETATM   20  C   LIG     1      24.675  21.432  19.840  1.00  0.00     0.153 C 
HETATM   21  C   LIG     1      22.728  21.722  27.214  1.00  0.00     0.058 C 
ENDROOT
BRANCH  20  22
HETATM   22  C   LIG     1      23.282  21.155  19.208  1.00  0.00     0.187 C 
HETATM   23  O   LIG     1      22.412  22.014  19.315  1.00  0.00    -0.292 OA
BRANCH  22  24
HETATM   24  C   LIG     1      22.846  19.844  18.577  1.00  0.00     0.245 C 
BRANCH  24  25
HETATM   25  O   LIG     1      23.527  19.609  17.374  1.00  0.00    -0.393 OA
HETATM   26  H   LIG     1      24.417  20.050  17.444  1.00  0.00     0.209 HD
ENDBRANCH  24  25
ENDBRANCH  22  24
ENDBRANCH  20  22
BRANCH  20  27
HETATM   27  O   LIG     1      25.636  20.905  18.948  1.00  0.00    -0.378 OA
HETATM   28  H   LIG     1      26.489  20.803  19.447  1.00  0.00     0.211 HD
ENDBRANCH  20  27
BRANCH  19  29
HETATM   29  O   LIG     1      26.259  23.326  19.720  1.00  0.00    -0.392 OA
HETATM   30  H   LIG     1      26.609  22.598  19.138  1.00  0.00     0.210 HD
ENDBRANCH  19  29
BRANCH  13  31
HETATM   31  O   LIG     1      22.265  19.378  23.097  1.00  0.00    -0.392 OA
HETATM   32  H   LIG     1      21.966  19.731  23.969  1.00  0.00     0.210 HD
ENDBRANCH  13  31
TORSDOF 6
ENDMDL
MODEL 4
REMARK VINA RESULT:      -4.4      3.211      5.024
REMARK  6 active torsions:
REMARK  status: ('A' for Active; 'I' for Inactive)
REMARK    1  A    between atoms: C_13  and  O_14 
REMARK    2  A    between atoms: C_20  and  O_21 
REMARK    3  A    between atoms: C_22  and  C_24 
REMARK    4  A    between atoms: C_22  and  O_23 
REMARK    5  A    between atoms: C_24  and  C_25 
REMARK    6  A    between atoms: C_25  and  O_26 
ROOT
HETATM    1  O   LIG     1      24.017  19.875  17.498  1.00  0.00    -0.289 OA
HETATM    2  C   LIG     1      23.946  20.453  18.618  1.00  0.00     0.172 C 
HETATM    3  C   LIG     1      23.185  19.848  19.707  1.00  0.00     0.052 C 
HETATM    4  C   LIG     1      23.058  20.480  20.875  1.00  0.00    -0.006 C 
HETATM    5  C   LIG     1      23.591  21.894  21.135  1.00  0.00     0.036 C 
HETATM    6  C   LIG     1      22.339  22.807  21.065  1.00  0.00     0.028 C 
HETATM    7  C   LIG     1      24.546  22.367  20.017  1.00  0.00    -0.061 C 
HETATM    8  C   LIG     1      25.434  23.574  20.274  1.00  0.00     0.036 C 
HETATM    9  C   LIG     1      26.208  23.474  21.614  1.00  0.00     0.013 C 
HETATM   10  C   LIG     1      25.871  22.184  22.397  1.00  0.00     0.035 C 
HETATM   11  C   LIG     1      24.320  22.036  22.564  1.00  0.00     0.147 C 
HETATM   12  F   LIG     1      23.843  23.208  23.132  1.00  0.00    -0.238 F 
HETATM   13  C   LIG     1      24.011  20.903  23.606  1.00  0.00     0.160 C 
HETATM   14  C   LIG     1      24.661  21.118  25.018  1.00  0.00     0.048 C 
HETATM   15  C   LIG     1      25.913  22.073  25.050  1.00  0.00     0.003 C 
HETATM   16  C   LIG     1      25.434  23.557  25.310  1.00  0.00     0.019 C 
HETATM   17  C   LIG     1      26.678  21.957  23.722  1.00  0.00     0.007 C 
HETATM   18  C   LIG     1      27.993  22.701  23.960  1.00  0.00     0.041 C 
HETATM   19  C   LIG     1      28.311  22.485  25.458  1.00  0.00     0.161 C 
HETATM   20  C   LIG     1      27.073  21.726  26.084  1.00  0.00     0.153 C 
HETATM   21  C   LIG     1      24.654  21.715  18.845  1.00  0.00     0.058 C 
ENDROOT
BRANCH  20  22
HETATM   22  C   LIG     1      27.350  20.208  26.273  1.00  0.00     0.187 C 
HETATM   23  O   LIG     1      27.156  19.714  27.379  1.00  0.00    -0.292 OA
BRANCH  22  24
HETATM   24  C   LIG     1      27.975  19.290  25.236  1.00  0.00     0.245 C 
BRANCH  24  25
HETATM   25  O   LIG     1      26.994  18.594  24.517  1.00  0.00    -0.393 OA
HETATM   26  H   LIG     1      27.199  17.623  24.594  1.00  0.00     0.209 HD
ENDBRANCH  24  25
ENDBRANCH  22  24
ENDBRANCH  20  22
BRANCH  20  27
HETATM   27  O   LIG     1      26.790  22.249  27.366  1.00  0.00    -0.378 OA
HETATM   28  H   LIG     1      26.765  23.240  27.290  1.00  0.00     0.211 HD
ENDBRANCH  20  27
BRANCH  19  29
HETATM   29  O   LIG     1      28.510  23.737  26.073  1.00  0.00    -0.392 OA
HETATM   30  H   LIG     1      29.065  24.278  25.448  1.00  0.00     0.210 HD
ENDBRANCH  19  29
BRANCH  13  31
HETATM   31  O   LIG     1      24.353  19.626  23.111  1.00  0.00    -0.392 OA
HETATM   32  H   LIG     1      24.494  19.015  23.873  1.00  0.00     0.210 HD
ENDBRANCH  13  31
TORSDOF 6
ENDMDL
MODEL 5
REMARK VINA RESULT:      -4.4     11.207     13.334
REMARK  6 active torsions:
REMARK  status: ('A' for Active; 'I' for Inactive)
REMARK    1  A    between atoms: C_13  and  O_14 
REMARK    2  A    between atoms: C_20  and  O_21 
REMARK    3  A    between atoms: C_22  and  C_24 
REMARK    4  A    between atoms: C_22  and  O_23 
REMARK    5  A    between atoms: C_24  and  C_25 
REMARK    6  A    between atoms: C_25  and  O_26 
ROOT
HETATM    1  O   LIG     1      25.332  23.026  27.331  1.00  0.00    -0.289 OA
HETATM    2  C   LIG     1      26.207  23.633  28.007  1.00  0.00     0.172 C 
HETATM    3  C   LIG     1      26.512  25.032  27.722  1.00  0.00     0.052 C 
HETATM    4  C   LIG     1      27.476  25.664  28.394  1.00  0.00    -0.006 C 
HETATM    5  C   LIG     1      28.390  24.974  29.414  1.00  0.00     0.036 C 
HETATM    6  C   LIG     1      29.730  24.761  28.663  1.00  0.00     0.028 C 
HETATM    7  C   LIG     1      27.871  23.570  29.798  1.00  0.00    -0.061 C 
HETATM    8  C   LIG     1      28.437  22.895  31.038  1.00  0.00     0.036 C 
HETATM    9  C   LIG     1      28.420  23.816  32.284  1.00  0.00     0.013 C 
HETATM   10  C   LIG     1      27.863  25.225  31.970  1.00  0.00     0.035 C 
HETATM   11  C   LIG     1      28.616  25.850  30.746  1.00  0.00     0.147 C 
HETATM   12  F   LIG     1      29.975  25.804  31.018  1.00  0.00    -0.238 F 
HETATM   13  C   LIG     1      28.256  27.374  30.633  1.00  0.00     0.160 C 
HETATM   14  C   LIG     1      28.575  28.218  31.916  1.00  0.00     0.048 C 
HETATM   15  C   LIG     1      28.677  27.400  33.259  1.00  0.00     0.003 C 
HETATM   16  C   LIG     1      30.173  26.941  33.482  1.00  0.00     0.019 C 
HETATM   17  C   LIG     1      27.725  26.194  33.195  1.00  0.00     0.007 C 
HETATM   18  C   LIG     1      27.702  25.637  34.619  1.00  0.00     0.041 C 
HETATM   19  C   LIG     1      27.887  26.870  35.535  1.00  0.00     0.161 C 
HETATM   20  C   LIG     1      28.159  28.107  34.588  1.00  0.00     0.153 C 
HETATM   21  C   LIG     1      26.900  22.951  29.103  1.00  0.00     0.058 C 
ENDROOT
BRANCH  20  22
HETATM   22  C   LIG     1      26.898  28.997  34.410  1.00  0.00     0.187 C 
HETATM   23  O   LIG     1      25.894  28.493  33.915  1.00  0.00    -0.292 OA
BRANCH  22  24
HETATM   24  C   LIG     1      26.830  30.492  34.671  1.00  0.00     0.245 C 
BRANCH  24  25
HETATM   25  O   LIG     1      27.713  31.193  33.838  1.00  0.00    -0.393 OA
HETATM   26  H   LIG     1      28.483  30.591  33.644  1.00  0.00     0.209 HD
ENDBRANCH  24  25
ENDBRANCH  22  24
ENDBRANCH  20  22
BRANCH  20  27
HETATM   27  O   LIG     1      29.160  28.930  35.153  1.00  0.00    -0.378 OA
HETATM   28  H   LIG     1      29.460  29.567  34.451  1.00  0.00     0.211 HD
ENDBRANCH  20  27
BRANCH  19  29
HETATM   29  O   LIG     1      28.972  26.639  36.404  1.00  0.00    -0.392 OA
HETATM   30  H   LIG     1      29.127  27.489  36.900  1.00  0.00     0.210 HD
ENDBRANCH  19  29
BRANCH  13  31
HETATM   31  O   LIG     1      26.911  27.570  30.253  1.00  0.00    -0.392 OA
HETATM   32  H   LIG     1      26.326  27.092  30.889  1.00  0.00     0.210 HD
ENDBRANCH  13  31
TORSDOF 6
ENDMDL
MODEL 6
REMARK VINA RESULT:      -4.4      3.542      5.479
REMARK  6 active torsions:
REMARK  status: ('A' for Active; 'I' for Inactive)
REMARK    1  A    between atoms: C_13  and  O_14 
REMARK    2  A    between atoms: C_20  and  O_21 
REMARK    3  A    between atoms: C_22  and  C_24 
REMARK    4  A    between atoms: C_22  and  O_23 
REMARK    5  A    between atoms: C_24  and  C_25 
REMARK    6  A    between atoms: C_25  and  O_26 
ROOT
HETATM    1  O   LIG     1      23.331  18.872  16.467  1.00  0.00    -0.289 OA
HETATM    2  C   LIG     1      23.740  19.720  17.307  1.00  0.00     0.172 C 
HETATM    3  C   LIG     1      22.810  20.687  17.883  1.00  0.00     0.052 C 
HETATM    4  C   LIG     1      23.245  21.623  18.729  1.00  0.00    -0.006 C 
HETATM    5  C   LIG     1      24.724  21.826  19.078  1.00  0.00     0.036 C 
HETATM    6  C   LIG     1      25.157  23.068  18.255  1.00  0.00     0.028 C 
HETATM    7  C   LIG     1      25.600  20.649  18.595  1.00  0.00    -0.061 C 
HETATM    8  C   LIG     1      27.007  20.506  19.153  1.00  0.00     0.036 C 
HETATM    9  C   LIG     1      27.050  20.587  20.700  1.00  0.00     0.013 C 
HETATM   10  C   LIG     1      25.653  20.831  21.318  1.00  0.00     0.035 C 
HETATM   11  C   LIG     1      24.969  22.072  20.650  1.00  0.00     0.147 C 
HETATM   12  F   LIG     1      25.847  23.141  20.747  1.00  0.00    -0.238 F 
HETATM   13  C   LIG     1      23.704  22.485  21.484  1.00  0.00     0.160 C 
HETATM   14  C   LIG     1      23.993  22.808  22.992  1.00  0.00     0.048 C 
HETATM   15  C   LIG     1      25.311  22.177  23.582  1.00  0.00     0.003 C 
HETATM   16  C   LIG     1      26.509  23.188  23.385  1.00  0.00     0.019 C 
HETATM   17  C   LIG     1      25.590  20.836  22.885  1.00  0.00     0.007 C 
HETATM   18  C   LIG     1      26.713  20.195  23.703  1.00  0.00     0.041 C 
HETATM   19  C   LIG     1      26.476  20.676  25.154  1.00  0.00     0.161 C 
HETATM   20  C   LIG     1      25.283  21.712  25.104  1.00  0.00     0.153 C 
HETATM   21  C   LIG     1      25.140  19.719  17.738  1.00  0.00     0.058 C 
ENDROOT
BRANCH  20  22
HETATM   22  C   LIG     1      23.940  21.085  25.575  1.00  0.00     0.187 C 
HETATM   23  O   LIG     1      23.298  21.668  26.443  1.00  0.00    -0.292 OA
BRANCH  22  24
HETATM   24  C   LIG     1      23.405  19.729  25.150  1.00  0.00     0.245 C 
BRANCH  24  25
HETATM   25  O   LIG     1      22.517  19.848  24.072  1.00  0.00    -0.393 OA
HETATM   26  H   LIG     1      21.618  19.563  24.393  1.00  0.00     0.209 HD
ENDBRANCH  24  25
ENDBRANCH  22  24
ENDBRANCH  20  22
BRANCH  20  27
HETATM   27  O   LIG     1      25.552  22.793  25.974  1.00  0.00    -0.378 OA
HETATM   28  H   LIG     1      25.098  22.606  26.839  1.00  0.00     0.211 HD
ENDBRANCH  20  27
BRANCH  19  29
HETATM   29  O   LIG     1      27.655  21.273  25.641  1.00  0.00    -0.392 OA
HETATM   30  H   LIG     1      28.027  20.654  26.327  1.00  0.00     0.210 HD
ENDBRANCH  19  29
BRANCH  13  31
HETATM   31  O   LIG     1      22.675  21.524  21.388  1.00  0.00    -0.392 OA
HETATM   32  H   LIG     1      21.846  21.971  21.094  1.00  0.00     0.210 HD
ENDBRANCH  13  31
TORSDOF 6
ENDMDL
MODEL 7
REMARK VINA RESULT:      -4.2      2.124      6.350
REMARK  6 active torsions:
REMARK  status: ('A' for Active; 'I' for Inactive)
REMARK    1  A    between atoms: C_13  and  O_14 
REMARK    2  A    between atoms: C_20  and  O_21 
REMARK    3  A    between atoms: C_22  and  C_24 
REMARK    4  A    between atoms: C_22  and  O_23 
REMARK    5  A    between atoms: C_24  and  C_25 
REMARK    6  A    between atoms: C_25  and  O_26 
ROOT
HETATM    1  O   LIG     1      28.821  26.540  23.003  1.00  0.00    -0.289 OA
HETATM    2  C   LIG     1      28.639  25.599  22.183  1.00  0.00     0.172 C 
HETATM    3  C   LIG     1      29.100  24.250  22.502  1.00  0.00     0.052 C 
HETATM    4  C   LIG     1      28.962  23.262  21.616  1.00  0.00    -0.006 C 
HETATM    5  C   LIG     1      28.423  23.467  20.196  1.00  0.00     0.036 C 
HETATM    6  C   LIG     1      29.681  23.442  19.289  1.00  0.00     0.028 C 
HETATM    7  C   LIG     1      27.777  24.859  20.017  1.00  0.00    -0.061 C 
HETATM    8  C   LIG     1      26.888  25.103  18.808  1.00  0.00     0.036 C 
HETATM    9  C   LIG     1      25.814  24.002  18.621  1.00  0.00     0.013 C 
HETATM   10  C   LIG     1      25.917  22.887  19.688  1.00  0.00     0.035 C 
HETATM   11  C   LIG     1      27.378  22.325  19.752  1.00  0.00     0.147 C 
HETATM   12  F   LIG     1      27.739  21.943  18.469  1.00  0.00    -0.238 F 
HETATM   13  C   LIG     1      27.396  21.009  20.608  1.00  0.00     0.160 C 
HETATM   14  C   LIG     1      26.434  19.881  20.094  1.00  0.00     0.048 C 
HETATM   15  C   LIG     1      25.239  20.368  19.191  1.00  0.00     0.003 C 
HETATM   16  C   LIG     1      25.684  20.347  17.674  1.00  0.00     0.019 C 
HETATM   17  C   LIG     1      24.810  21.778  19.629  1.00  0.00     0.007 C 
HETATM   18  C   LIG     1      23.499  22.038  18.886  1.00  0.00     0.041 C 
HETATM   19  C   LIG     1      22.826  20.650  18.763  1.00  0.00     0.161 C 
HETATM   20  C   LIG     1      23.856  19.591  19.325  1.00  0.00     0.153 C 
HETATM   21  C   LIG     1      27.934  25.842  20.922  1.00  0.00     0.058 C 
ENDROOT
BRANCH  20  22
HETATM   22  C   LIG     1      23.498  19.132  20.767  1.00  0.00     0.187 C 
HETATM   23  O   LIG     1      23.345  17.933  20.975  1.00  0.00    -0.292 OA
BRANCH  22  24
HETATM   24  C   LIG     1      23.183  20.054  21.932  1.00  0.00     0.245 C 
BRANCH  24  25
HETATM   25  O   LIG     1      24.296  20.209  22.772  1.00  0.00    -0.393 OA
HETATM   26  H   LIG     1      24.958  19.508  22.522  1.00  0.00     0.209 HD
ENDBRANCH  24  25
ENDBRANCH  22  24
ENDBRANCH  20  22
BRANCH  20  27
HETATM   27  O   LIG     1      23.839  18.432  18.516  1.00  0.00    -0.378 OA
HETATM   28  H   LIG     1      22.889  18.171  18.380  1.00  0.00     0.211 HD
ENDBRANCH  20  27
BRANCH  19  29
HETATM   29  O   LIG     1      22.522  20.404  17.410  1.00  0.00    -0.392 OA
HETATM   30  H   LIG     1      21.801  21.043  17.157  1.00  0.00     0.210 HD
ENDBRANCH  19  29
BRANCH  13  31
HETATM   31  O   LIG     1      27.146  21.266  21.973  1.00  0.00    -0.392 OA
HETATM   32  H   LIG     1      27.372  22.207  22.167  1.00  0.00     0.210 HD
ENDBRANCH  13  31
TORSDOF 6
ENDMDL
MODEL 8
REMARK VINA RESULT:      -4.2      3.453      5.484
REMARK  6 active torsions:
REMARK  status: ('A' for Active; 'I' for Inactive)
REMARK    1  A    between atoms: C_13  and  O_14 
REMARK    2  A    between atoms: C_20  and  O_21 
REMARK    3  A    between atoms: C_22  and  C_24 
REMARK    4  A    between atoms: C_22  and  O_23 
REMARK    5  A    between atoms: C_24  and  C_25 
REMARK    6  A    between atoms: C_25  and  O_26 
ROOT
HETATM    1  O   LIG     1      23.529  22.253  17.879  1.00  0.00    -0.289 OA
HETATM    2  C   LIG     1      24.024  21.809  18.951  1.00  0.00     0.172 C 
HETATM    3  C   LIG     1      25.446  21.482  19.022  1.00  0.00     0.052 C 
HETATM    4  C   LIG     1      25.964  20.958  20.134  1.00  0.00    -0.006 C 
HETATM    5  C   LIG     1      25.126  20.567  21.356  1.00  0.00     0.036 C 
HETATM    6  C   LIG     1      25.003  19.022  21.274  1.00  0.00     0.028 C 
HETATM    7  C   LIG     1      23.689  21.129  21.276  1.00  0.00    -0.061 C 
HETATM    8  C   LIG     1      22.839  21.147  22.537  1.00  0.00     0.036 C 
HETATM    9  C   LIG     1      23.576  21.771  23.749  1.00  0.00     0.013 C 
HETATM   10  C   LIG     1      25.022  22.200  23.405  1.00  0.00     0.035 C 
HETATM   11  C   LIG     1      25.803  21.011  22.748  1.00  0.00     0.147 C 
HETATM   12  F   LIG     1      25.702  19.919  23.598  1.00  0.00    -0.238 F 
HETATM   13  C   LIG     1      27.333  21.360  22.686  1.00  0.00     0.160 C 
HETATM   14  C   LIG     1      27.983  21.697  24.072  1.00  0.00     0.048 C 
HETATM   15  C   LIG     1      26.984  22.168  25.195  1.00  0.00     0.003 C 
HETATM   16  C   LIG     1      26.478  20.911  26.009  1.00  0.00     0.019 C 
HETATM   17  C   LIG     1      25.811  22.925  24.550  1.00  0.00     0.007 C 
HETATM   18  C   LIG     1      25.060  23.558  25.722  1.00  0.00     0.041 C 
HETATM   19  C   LIG     1      26.149  23.869  26.775  1.00  0.00     0.161 C 
HETATM   20  C   LIG     1      27.503  23.265  26.225  1.00  0.00     0.153 C 
HETATM   21  C   LIG     1      23.186  21.649  20.142  1.00  0.00     0.058 C 
ENDROOT
BRANCH  20  22
HETATM   22  C   LIG     1      28.426  24.356  25.614  1.00  0.00     0.187 C 
HETATM   23  O   LIG     1      29.580  24.439  26.024  1.00  0.00    -0.292 OA
BRANCH  22  24
HETATM   24  C   LIG     1      27.989  25.432  24.635  1.00  0.00     0.245 C 
BRANCH  24  25
HETATM   25  O   LIG     1      28.252  25.052  23.312  1.00  0.00    -0.393 OA
HETATM   26  H   LIG     1      27.375  24.924  22.858  1.00  0.00     0.209 HD
ENDBRANCH  24  25
ENDBRANCH  22  24
ENDBRANCH  20  22
BRANCH  20  27
HETATM   27  O   LIG     1      28.225  22.670  27.285  1.00  0.00    -0.378 OA
HETATM   28  H   LIG     1      28.462  21.745  27.009  1.00  0.00     0.211 HD
ENDBRANCH  20  27
BRANCH  19  29
HETATM   29  O   LIG     1      25.785  23.281  28.003  1.00  0.00    -0.392 OA
HETATM   30  H   LIG     1      24.815  23.467  28.133  1.00  0.00     0.210 HD
ENDBRANCH  19  29
BRANCH  13  31
HETATM   31  O   LIG     1      27.597  22.398  21.767  1.00  0.00    -0.392 OA
HETATM   32  H   LIG     1      26.806  22.986  21.712  1.00  0.00     0.210 HD
ENDBRANCH  13  31
TORSDOF 6
ENDMDL
MODEL 9
REMARK VINA RESULT:      -4.2      4.795      7.058
REMARK  6 active torsions:
REMARK  status: ('A' for Active; 'I' for Inactive)
REMARK    1  A    between atoms: C_13  and  O_14 
REMARK    2  A    between atoms: C_20  and  O_21 
REMARK    3  A    between atoms: C_22  and  C_24 
REMARK    4  A    between atoms: C_22  and  O_23 
REMARK    5  A    between atoms: C_24  and  C_25 
REMARK    6  A    between atoms: C_25  and  O_26 
ROOT
HETATM    1  O   LIG     1      21.804  23.011  20.803  1.00  0.00    -0.289 OA
HETATM    2  C   LIG     1      22.736  22.457  21.448  1.00  0.00     0.172 C 
HETATM    3  C   LIG     1      24.120  22.872  21.238  1.00  0.00     0.052 C 
HETATM    4  C   LIG     1      25.116  22.251  21.873  1.00  0.00    -0.006 C 
HETATM    5  C   LIG     1      24.914  21.021  22.766  1.00  0.00     0.036 C 
HETATM    6  C   LIG     1      25.377  19.822  21.898  1.00  0.00     0.028 C 
HETATM    7  C   LIG     1      23.423  20.782  23.092  1.00  0.00    -0.061 C 
HETATM    8  C   LIG     1      23.065  19.842  24.232  1.00  0.00     0.036 C 
HETATM    9  C   LIG     1      23.840  20.159  25.537  1.00  0.00     0.013 C 
HETATM   10  C   LIG     1      24.826  21.338  25.367  1.00  0.00     0.035 C 
HETATM   11  C   LIG     1      25.761  21.095  24.134  1.00  0.00     0.147 C 
HETATM   12  F   LIG     1      26.355  19.852  24.292  1.00  0.00    -0.238 F 
HETATM   13  C   LIG     1      26.938  22.134  24.156  1.00  0.00     0.160 C 
HETATM   14  C   LIG     1      27.802  22.116  25.465  1.00  0.00     0.048 C 
HETATM   15  C   LIG     1      27.097  21.507  26.735  1.00  0.00     0.003 C 
HETATM   16  C   LIG     1      27.392  19.955  26.806  1.00  0.00     0.019 C 
HETATM   17  C   LIG     1      25.586  21.786  26.663  1.00  0.00     0.007 C 
HETATM   18  C   LIG     1      25.050  21.400  28.043  1.00  0.00     0.041 C 
HETATM   19  C   LIG     1      26.203  21.718  29.025  1.00  0.00     0.161 C 
HETATM   20  C   LIG     1      27.444  22.154  28.147  1.00  0.00     0.153 C 
HETATM   21  C   LIG     1      22.436  21.417  22.435  1.00  0.00     0.058 C 
ENDROOT
BRANCH  20  22
HETATM   22  C   LIG     1      27.638  23.697  28.132  1.00  0.00     0.187 C 
HETATM   23  O   LIG     1      28.774  24.139  27.994  1.00  0.00    -0.292 OA
BRANCH  22  24
HETATM   24  C   LIG     1      26.555  24.724  28.411  1.00  0.00     0.245 C 
BRANCH  24  25
HETATM   25  O   LIG     1      25.879  25.080  27.235  1.00  0.00    -0.393 OA
HETATM   26  H   LIG     1      24.973  24.666  27.275  1.00  0.00     0.209 HD
ENDBRANCH  24  25
ENDBRANCH  22  24
ENDBRANCH  20  22
BRANCH  20  27
HETATM   27  O   LIG     1      28.628  21.602  28.687  1.00  0.00    -0.378 OA
HETATM   28  H   LIG     1      29.049  21.041  27.982  1.00  0.00     0.211 HD
ENDBRANCH  20  27
BRANCH  19  29
HETATM   29  O   LIG     1      26.490  20.568  29.786  1.00  0.00    -0.392 OA
HETATM   30  H   LIG     1      25.665  20.351  30.300  1.00  0.00     0.210 HD
ENDBRANCH  19  29
BRANCH  13  31
HETATM   31  O   LIG     1      26.485  23.446  23.899  1.00  0.00    -0.392 OA
HETATM   32  H   LIG     1      25.721  23.643  24.492  1.00  0.00     0.210 HD
ENDBRANCH  13  31
TORSDOF 6
ENDMDL
MODEL 10
REMARK VINA RESULT:      -4.1      1.716      2.513
REMARK  6 active torsions:
REMARK  status: ('A' for Active; 'I' for Inactive)
REMARK    1  A    between atoms: C_13  and  O_14 
REMARK    2  A    between atoms: C_20  and  O_21 
REMARK    3  A    between atoms: C_22  and  C_24 
REMARK    4  A    between atoms: C_22  and  O_23 
REMARK    5  A    between atoms: C_24  and  C_25 
REMARK    6  A    between atoms: C_25  and  O_26 
ROOT
HETATM    1  O   LIG     1      22.827  18.317  20.620  1.00  0.00    -0.289 OA
HETATM    2  C   LIG     1      23.640  19.212  20.978  1.00  0.00     0.172 C 
HETATM    3  C   LIG     1      25.051  18.887  21.171  1.00  0.00     0.052 C 
HETATM    4  C   LIG     1      25.905  19.815  21.605  1.00  0.00    -0.006 C 
HETATM    5  C   LIG     1      25.480  21.227  22.025  1.00  0.00     0.036 C 
HETATM    6  C   LIG     1      25.491  21.198  23.576  1.00  0.00     0.028 C 
HETATM    7  C   LIG     1      24.030  21.546  21.599  1.00  0.00    -0.061 C 
HETATM    8  C   LIG     1      23.564  22.993  21.612  1.00  0.00     0.036 C 
HETATM    9  C   LIG     1      24.544  23.945  20.879  1.00  0.00     0.013 C 
HETATM   10  C   LIG     1      25.788  23.207  20.334  1.00  0.00     0.035 C 
HETATM   11  C   LIG     1      26.470  22.370  21.470  1.00  0.00     0.147 C 
HETATM   12  F   LIG     1      26.715  23.225  22.534  1.00  0.00    -0.238 F 
HETATM   13  C   LIG     1      27.880  21.880  20.986  1.00  0.00     0.160 C 
HETATM   14  C   LIG     1      28.853  23.027  20.540  1.00  0.00     0.048 C 
HETATM   15  C   LIG     1      28.162  24.379  20.120  1.00  0.00     0.003 C 
HETATM   16  C   LIG     1      28.027  25.314  21.388  1.00  0.00     0.019 C 
HETATM   17  C   LIG     1      26.789  24.078  19.498  1.00  0.00     0.007 C 
HETATM   18  C   LIG     1      26.333  25.407  18.893  1.00  0.00     0.041 C 
HETATM   19  C   LIG     1      27.636  26.111  18.446  1.00  0.00     0.161 C 
HETATM   20  C   LIG     1      28.837  25.212  18.944  1.00  0.00     0.153 C 
HETATM   21  C   LIG     1      23.184  20.591  21.169  1.00  0.00     0.058 C 
ENDROOT
BRANCH  20  22
HETATM   22  C   LIG     1      29.444  24.356  17.797  1.00  0.00     0.187 C 
HETATM   23  O   LIG     1      30.660  24.377  17.636  1.00  0.00    -0.292 OA
BRANCH  22  24
HETATM   24  C   LIG     1      28.648  23.587  16.756  1.00  0.00     0.245 C 
BRANCH  24  25
HETATM   25  O   LIG     1      28.461  22.253  17.144  1.00  0.00    -0.393 OA
HETATM   26  H   LIG     1      27.912  21.811  16.439  1.00  0.00     0.209 HD
ENDBRANCH  24  25
ENDBRANCH  22  24
ENDBRANCH  20  22
BRANCH  20  27
HETATM   27  O   LIG     1      29.879  26.034  19.431  1.00  0.00    -0.378 OA
HETATM   28  H   LIG     1      29.575  26.978  19.365  1.00  0.00     0.211 HD
ENDBRANCH  20  27
BRANCH  19  29
HETATM   29  O   LIG     1      27.684  27.398  19.019  1.00  0.00    -0.392 OA
HETATM   30  H   LIG     1      28.605  27.746  18.864  1.00  0.00     0.210 HD
ENDBRANCH  19  29
BRANCH  13  31
HETATM   31  O   LIG     1      27.778  20.913  19.963  1.00  0.00    -0.392 OA
HETATM   32  H   LIG     1      28.672  20.531  19.793  1.00  0.00     0.210 HD
ENDBRANCH  13  31
TORSDOF 6
ENDMDL
MODEL 11
REMARK VINA RESULT:      -4.1      3.695      5.908
REMARK  6 active torsions:
REMARK  status: ('A' for Active; 'I' for Inactive)
REMARK    1  A    between atoms: C_13  and  O_14 
REMARK    2  A    between atoms: C_20  and  O_21 
REMARK    3  A    between atoms: C_22  and  C_24 
REMARK    4  A    between atoms: C_22  and  O_23 
REMARK    5  A    between atoms: C_24  and  C_25 
REMARK    6  A    between atoms: C_25  and  O_26 
ROOT
HETATM    1  O   LIG     1      25.881  21.022  17.090  1.00  0.00    -0.289 OA
HETATM    2  C   LIG     1      25.369  20.703  18.198  1.00  0.00     0.172 C 
HETATM    3  C   LIG     1      25.763  19.461  18.857  1.00  0.00     0.052 C 
HETATM    4  C   LIG     1      25.184  19.089  20.000  1.00  0.00    -0.006 C 
HETATM    5  C   LIG     1      24.020  19.850  20.647  1.00  0.00     0.036 C 
HETATM    6  C   LIG     1      22.761  19.009  20.307  1.00  0.00     0.028 C 
HETATM    7  C   LIG     1      23.810  21.239  20.005  1.00  0.00    -0.061 C 
HETATM    8  C   LIG     1      22.954  22.261  20.736  1.00  0.00     0.036 C 
HETATM    9  C   LIG     1      23.358  22.429  22.223  1.00  0.00     0.013 C 
HETATM   10  C   LIG     1      24.518  21.491  22.630  1.00  0.00     0.035 C 
HETATM   11  C   LIG     1      24.186  20.010  22.241  1.00  0.00     0.147 C 
HETATM   12  F   LIG     1      22.955  19.693  22.795  1.00  0.00    -0.238 F 
HETATM   13  C   LIG     1      25.219  19.044  22.923  1.00  0.00     0.160 C 
HETATM   14  C   LIG     1      25.290  19.160  24.485  1.00  0.00     0.048 C 
HETATM   15  C   LIG     1      24.773  20.520  25.089  1.00  0.00     0.003 C 
HETATM   16  C   LIG     1      23.229  20.401  25.408  1.00  0.00     0.019 C 
HETATM   17  C   LIG     1      25.053  21.659  24.094  1.00  0.00     0.007 C 
HETATM   18  C   LIG     1      24.766  22.942  24.876  1.00  0.00     0.041 C 
HETATM   19  C   LIG     1      25.148  22.613  26.339  1.00  0.00     0.161 C 
HETATM   20  C   LIG     1      25.517  21.077  26.382  1.00  0.00     0.153 C 
HETATM   21  C   LIG     1      24.402  21.591  18.849  1.00  0.00     0.058 C 
ENDROOT
BRANCH  20  22
HETATM   22  C   LIG     1      27.053  20.843  26.408  1.00  0.00     0.187 C 
HETATM   23  O   LIG     1      27.513  20.087  27.258  1.00  0.00    -0.292 OA
BRANCH  22  24
HETATM   24  C   LIG     1      28.071  21.577  25.551  1.00  0.00     0.245 C 
BRANCH  24  25
HETATM   25  O   LIG     1      28.331  20.879  24.363  1.00  0.00    -0.393 OA
HETATM   26  H   LIG     1      27.575  20.247  24.216  1.00  0.00     0.209 HD
ENDBRANCH  24  25
ENDBRANCH  22  24
ENDBRANCH  20  22
BRANCH  20  27
HETATM   27  O   LIG     1      24.999  20.494  27.561  1.00  0.00    -0.378 OA
HETATM   28  H   LIG     1      24.283  21.092  27.905  1.00  0.00     0.211 HD
ENDBRANCH  20  27
BRANCH  19  29
HETATM   29  O   LIG     1      24.053  22.903  27.177  1.00  0.00    -0.392 OA
HETATM   30  H   LIG     1      23.389  22.173  27.043  1.00  0.00     0.210 HD
ENDBRANCH  19  29
BRANCH  13  31
HETATM   31  O   LIG     1      26.512  19.185  22.373  1.00  0.00    -0.392 OA
HETATM   32  H   LIG     1      26.481  18.945  21.416  1.00  0.00     0.210 HD
ENDBRANCH  13  31
TORSDOF 6
ENDMDL
MODEL 12
REMARK VINA RESULT:      -4.1      3.312      5.582
REMARK  6 active torsions:
REMARK  status: ('A' for Active; 'I' for Inactive)
REMARK    1  A    between atoms: C_13  and  O_14 
REMARK    2  A    between atoms: C_20  and  O_21 
REMARK    3  A    between atoms: C_22  and  C_24 
REMARK    4  A    between atoms: C_22  and  O_23 
REMARK    5  A    between atoms: C_24  and  C_25 
REMARK    6  A    between atoms: C_25  and  O_26 
ROOT
HETATM    1  O   LIG     1      24.841  18.309  15.801  1.00  0.00    -0.289 OA
HETATM    2  C   LIG     1      24.530  19.059  16.767  1.00  0.00     0.172 C 
HETATM    3  C   LIG     1      23.311  18.804  17.528  1.00  0.00     0.052 C 
HETATM    4  C   LIG     1      22.946  19.625  18.514  1.00  0.00    -0.006 C 
HETATM    5  C   LIG     1      23.690  20.922  18.856  1.00  0.00     0.036 C 
HETATM    6  C   LIG     1      22.812  22.051  18.254  1.00  0.00     0.028 C 
HETATM    7  C   LIG     1      25.062  21.004  18.150  1.00  0.00    -0.061 C 
HETATM    8  C   LIG     1      26.075  22.027  18.638  1.00  0.00     0.036 C 
HETATM    9  C   LIG     1      26.281  21.983  20.174  1.00  0.00     0.013 C 
HETATM   10  C   LIG     1      25.379  20.931  20.861  1.00  0.00     0.035 C 
HETATM   11  C   LIG     1      23.883  21.134  20.441  1.00  0.00     0.147 C 
HETATM   12  F   LIG     1      23.547  22.454  20.702  1.00  0.00    -0.238 F 
HETATM   13  C   LIG     1      22.957  20.268  21.366  1.00  0.00     0.160 C 
HETATM   14  C   LIG     1      23.104  20.566  22.899  1.00  0.00     0.048 C 
HETATM   15  C   LIG     1      24.462  21.235  23.335  1.00  0.00     0.003 C 
HETATM   16  C   LIG     1      24.310  22.808  23.289  1.00  0.00     0.019 C 
HETATM   17  C   LIG     1      25.588  20.754  22.405  1.00  0.00     0.007 C 
HETATM   18  C   LIG     1      26.878  21.240  23.068  1.00  0.00     0.041 C 
HETATM   19  C   LIG     1      26.587  21.202  24.587  1.00  0.00     0.161 C 
HETATM   20  C   LIG     1      25.060  20.823  24.751  1.00  0.00     0.153 C 
HETATM   21  C   LIG     1      25.406  20.167  17.155  1.00  0.00     0.058 C 
ENDROOT
BRANCH  20  22
HETATM   22  C   LIG     1      24.865  19.330  25.138  1.00  0.00     0.187 C 
HETATM   23  O   LIG     1      25.496  18.480  24.516  1.00  0.00    -0.292 OA
BRANCH  22  24
HETATM   24  C   LIG     1      23.851  18.805  26.139  1.00  0.00     0.245 C 
BRANCH  24  25
HETATM   25  O   LIG     1      22.684  19.583  26.135  1.00  0.00    -0.393 OA
HETATM   26  H   LIG     1      21.940  19.006  26.458  1.00  0.00     0.209 HD
ENDBRANCH  24  25
ENDBRANCH  22  24
ENDBRANCH  20  22
BRANCH  20  27
HETATM   27  O   LIG     1      24.487  21.589  25.791  1.00  0.00    -0.378 OA
HETATM   28  H   LIG     1      24.483  22.540  25.501  1.00  0.00     0.211 HD
ENDBRANCH  20  27
BRANCH  19  29
HETATM   29  O   LIG     1      26.865  22.467  25.141  1.00  0.00    -0.392 OA
HETATM   30  H   LIG     1      26.273  22.568  25.936  1.00  0.00     0.210 HD
ENDBRANCH  19  29
BRANCH  13  31
HETATM   31  O   LIG     1      23.120  18.887  21.128  1.00  0.00    -0.392 OA
HETATM   32  H   LIG     1      23.972  18.743  20.652  1.00  0.00     0.210 HD
ENDBRANCH  13  31
TORSDOF 6
ENDMDL
MODEL 13
REMARK VINA RESULT:      -4.0      3.097      5.672
REMARK  6 active torsions:
REMARK  status: ('A' for Active; 'I' for Inactive)
REMARK    1  A    between atoms: C_13  and  O_14 
REMARK    2  A    between atoms: C_20  and  O_21 
REMARK    3  A    between atoms: C_22  and  C_24 
REMARK    4  A    between atoms: C_22  and  O_23 
REMARK    5  A    between atoms: C_24  and  C_25 
REMARK    6  A    between atoms: C_25  and  O_26 
ROOT
HETATM    1  O   LIG     1      26.167  24.802  27.244  1.00  0.00    -0.289 OA
HETATM    2  C   LIG     1      26.819  24.415  26.236  1.00  0.00     0.172 C 
HETATM    3  C   LIG     1      26.912  22.991  25.927  1.00  0.00     0.052 C 
HETATM    4  C   LIG     1      27.647  22.570  24.896  1.00  0.00    -0.006 C 
HETATM    5  C   LIG     1      28.514  23.499  24.039  1.00  0.00     0.036 C 
HETATM    6  C   LIG     1      29.964  23.258  24.536  1.00  0.00     0.028 C 
HETATM    7  C   LIG     1      28.199  24.989  24.301  1.00  0.00    -0.061 C 
HETATM    8  C   LIG     1      28.694  26.027  23.307  1.00  0.00     0.036 C 
HETATM    9  C   LIG     1      28.342  25.670  21.840  1.00  0.00     0.013 C 
HETATM   10  C   LIG     1      27.598  24.319  21.723  1.00  0.00     0.035 C 
HETATM   11  C   LIG     1      28.394  23.191  22.463  1.00  0.00     0.147 C 
HETATM   12  F   LIG     1      29.689  23.192  21.965  1.00  0.00    -0.238 F 
HETATM   13  C   LIG     1      27.794  21.790  22.082  1.00  0.00     0.160 C 
HETATM   14  C   LIG     1      27.777  21.483  20.544  1.00  0.00     0.048 C 
HETATM   15  C   LIG     1      27.830  22.742  19.599  1.00  0.00     0.003 C 
HETATM   16  C   LIG     1      29.337  23.088  19.269  1.00  0.00     0.019 C 
HETATM   17  C   LIG     1      27.122  23.923  20.283  1.00  0.00     0.007 C 
HETATM   18  C   LIG     1      26.996  24.989  19.193  1.00  0.00     0.041 C 
HETATM   19  C   LIG     1      26.833  24.196  17.874  1.00  0.00     0.161 C 
HETATM   20  C   LIG     1      27.015  22.667  18.234  1.00  0.00     0.153 C 
HETATM   21  C   LIG     1      27.459  25.390  25.350  1.00  0.00     0.058 C 
ENDROOT
BRANCH  20  22
HETATM   22  C   LIG     1      25.655  21.919  18.320  1.00  0.00     0.187 C 
HETATM   23  O   LIG     1      25.575  20.799  17.824  1.00  0.00    -0.292 OA
BRANCH  22  24
HETATM   24  C   LIG     1      24.359  22.505  18.852  1.00  0.00     0.245 C 
BRANCH  24  25
HETATM   25  O   LIG     1      23.306  22.314  17.945  1.00  0.00    -0.393 OA
HETATM   26  H   LIG     1      23.691  22.357  17.028  1.00  0.00     0.209 HD
ENDBRANCH  24  25
ENDBRANCH  22  24
ENDBRANCH  20  22
BRANCH  20  27
HETATM   27  O   LIG     1      27.767  22.026  17.223  1.00  0.00    -0.378 OA
HETATM   28  H   LIG     1      27.540  21.059  17.244  1.00  0.00     0.211 HD
ENDBRANCH  20  27
BRANCH  19  29
HETATM   29  O   LIG     1      27.808  24.628  16.954  1.00  0.00    -0.392 OA
HETATM   30  H   LIG     1      28.399  23.847  16.775  1.00  0.00     0.210 HD
ENDBRANCH  19  29
BRANCH  13  31
HETATM   31  O   LIG     1      26.503  21.609  22.621  1.00  0.00    -0.392 OA
HETATM   32  H   LIG     1      26.005  20.974  22.053  1.00  0.00     0.210 HD
ENDBRANCH  13  31
TORSDOF 6
ENDMDL
MODEL 14
REMARK VINA RESULT:      -4.0      2.942      6.770
REMARK  6 active torsions:
REMARK  status: ('A' for Active; 'I' for Inactive)
REMARK    1  A    between atoms: C_13  and  O_14 
REMARK    2  A    between atoms: C_20  and  O_21 
REMARK    3  A    between atoms: C_22  and  C_24 
REMARK    4  A    between atoms: C_22  and  O_23 
REMARK    5  A    between atoms: C_24  and  C_25 
REMARK    6  A    between atoms: C_25  and  O_26 
ROOT
HETATM    1  O   LIG     1      29.657  27.965  24.752  1.00  0.00    -0.289 OA
HETATM    2  C   LIG     1      29.469  26.814  24.272  1.00  0.00     0.172 C 
HETATM    3  C   LIG     1      29.010  25.727  25.132  1.00  0.00     0.052 C 
HETATM    4  C   LIG     1      28.865  24.494  24.643  1.00  0.00    -0.006 C 
HETATM    5  C   LIG     1      29.254  24.098  23.214  1.00  0.00     0.036 C 
HETATM    6  C   LIG     1      30.603  23.348  23.366  1.00  0.00     0.028 C 
HETATM    7  C   LIG     1      29.530  25.332  22.327  1.00  0.00    -0.061 C 
HETATM    8  C   LIG     1      29.579  25.152  20.818  1.00  0.00     0.036 C 
HETATM    9  C   LIG     1      28.356  24.377  20.266  1.00  0.00     0.013 C 
HETATM   10  C   LIG     1      27.383  23.934  21.384  1.00  0.00     0.035 C 
HETATM   11  C   LIG     1      28.156  23.157  22.504  1.00  0.00     0.147 C 
HETATM   12  F   LIG     1      28.859  22.127  21.896  1.00  0.00    -0.238 F 
HETATM   13  C   LIG     1      27.127  22.460  23.464  1.00  0.00     0.160 C 
HETATM   14  C   LIG     1      26.132  21.478  22.753  1.00  0.00     0.048 C 
HETATM   15  C   LIG     1      25.923  21.722  21.210  1.00  0.00     0.003 C 
HETATM   16  C   LIG     1      26.972  20.864  20.397  1.00  0.00     0.019 C 
HETATM   17  C   LIG     1      26.070  23.222  20.907  1.00  0.00     0.007 C 
HETATM   18  C   LIG     1      25.591  23.378  19.462  1.00  0.00     0.041 C 
HETATM   19  C   LIG     1      24.494  22.302  19.285  1.00  0.00     0.161 C 
HETATM   20  C   LIG     1      24.472  21.447  20.615  1.00  0.00     0.153 C 
HETATM   21  C   LIG     1      29.677  26.566  22.843  1.00  0.00     0.058 C 
ENDROOT
BRANCH  20  22
HETATM   22  C   LIG     1      23.294  21.844  21.548  1.00  0.00     0.187 C 
HETATM   23  O   LIG     1      22.745  20.961  22.200  1.00  0.00    -0.292 OA
BRANCH  22  24
HETATM   24  C   LIG     1      22.660  23.222  21.630  1.00  0.00     0.245 C 
BRANCH  24  25
HETATM   25  O   LIG     1      21.309  23.183  21.254  1.00  0.00    -0.393 OA
HETATM   26  H   LIG     1      21.070  24.085  20.907  1.00  0.00     0.209 HD
ENDBRANCH  24  25
ENDBRANCH  22  24
ENDBRANCH  20  22
BRANCH  20  27
HETATM   27  O   LIG     1      24.298  20.080  20.301  1.00  0.00    -0.378 OA
HETATM   28  H   LIG     1      24.770  19.903  19.445  1.00  0.00     0.211 HD
ENDBRANCH  20  27
BRANCH  19  29
HETATM   29  O   LIG     1      24.807  21.505  18.167  1.00  0.00    -0.392 OA
HETATM   30  H   LIG     1      24.278  20.666  18.256  1.00  0.00     0.210 HD
ENDBRANCH  19  29
BRANCH  13  31
HETATM   31  O   LIG     1      26.407  23.399  24.233  1.00  0.00    -0.392 OA
HETATM   32  H   LIG     1      25.550  23.592  23.781  1.00  0.00     0.210 HD
ENDBRANCH  13  31
TORSDOF 6
ENDMDL
MODEL 15
REMARK VINA RESULT:      -3.9      7.727      9.627
REMARK  6 active torsions:
REMARK  status: ('A' for Active; 'I' for Inactive)
REMARK    1  A    between atoms: C_13  and  O_14 
REMARK    2  A    between atoms: C_20  and  O_21 
REMARK    3  A    between atoms: C_22  and  C_24 
REMARK    4  A    between atoms: C_22  and  O_23 
REMARK    5  A    between atoms: C_24  and  C_25 
REMARK    6  A    between atoms: C_25  and  O_26 
ROOT
HETATM    1  O   LIG     1      22.163  20.973  27.247  1.00  0.00    -0.289 OA
HETATM    2  C   LIG     1      23.378  21.309  27.262  1.00  0.00     0.172 C 
HETATM    3  C   LIG     1      23.874  22.304  26.315  1.00  0.00     0.052 C 
HETATM    4  C   LIG     1      25.169  22.623  26.286  1.00  0.00    -0.006 C 
HETATM    5  C   LIG     1      26.233  21.923  27.140  1.00  0.00     0.036 C 
HETATM    6  C   LIG     1      26.954  20.959  26.161  1.00  0.00     0.028 C 
HETATM    7  C   LIG     1      25.603  21.044  28.243  1.00  0.00    -0.061 C 
HETATM    8  C   LIG     1      26.481  20.566  29.388  1.00  0.00     0.036 C 
HETATM    9  C   LIG     1      27.296  21.712  30.038  1.00  0.00     0.013 C 
HETATM   10  C   LIG     1      27.055  23.075  29.347  1.00  0.00     0.035 C 
HETATM   11  C   LIG     1      27.281  22.951  27.801  1.00  0.00     0.147 C 
HETATM   12  F   LIG     1      28.541  22.407  27.601  1.00  0.00    -0.238 F 
HETATM   13  C   LIG     1      27.331  24.385  27.163  1.00  0.00     0.160 C 
HETATM   14  C   LIG     1      28.426  25.331  27.767  1.00  0.00     0.048 C 
HETATM   15  C   LIG     1      28.924  24.958  29.214  1.00  0.00     0.003 C 
HETATM   16  C   LIG     1      30.166  23.986  29.108  1.00  0.00     0.019 C 
HETATM   17  C   LIG     1      27.771  24.308  29.998  1.00  0.00     0.007 C 
HETATM   18  C   LIG     1      28.271  24.235  31.442  1.00  0.00     0.041 C 
HETATM   19  C   LIG     1      29.185  25.472  31.613  1.00  0.00     0.161 C 
HETATM   20  C   LIG     1      29.299  26.156  30.192  1.00  0.00     0.153 C 
HETATM   21  C   LIG     1      24.294  20.732  28.249  1.00  0.00     0.058 C 
ENDROOT
BRANCH  20  22
HETATM   22  C   LIG     1      28.390  27.412  30.071  1.00  0.00     0.187 C 
HETATM   23  O   LIG     1      27.197  27.295  30.336  1.00  0.00    -0.292 OA
BRANCH  22  24
HETATM   24  C   LIG     1      28.819  28.760  29.520  1.00  0.00     0.245 C 
BRANCH  24  25
HETATM   25  O   LIG     1      29.561  28.613  28.339  1.00  0.00    -0.393 OA
HETATM   26  H   LIG     1      28.912  28.511  27.590  1.00  0.00     0.209 HD
ENDBRANCH  24  25
ENDBRANCH  22  24
ENDBRANCH  20  22
BRANCH  20  27
HETATM   27  O   LIG     1      30.626  26.595  29.979  1.00  0.00    -0.378 OA
HETATM   28  H   LIG     1      30.847  27.251  30.693  1.00  0.00     0.211 HD
ENDBRANCH  20  27
BRANCH  19  29
HETATM   29  O   LIG     1      30.444  25.052  32.084  1.00  0.00    -0.392 OA
HETATM   30  H   LIG     1      31.061  25.828  31.984  1.00  0.00     0.210 HD
ENDBRANCH  19  29
BRANCH  13  31
HETATM   31  O   LIG     1      26.072  25.021  27.202  1.00  0.00    -0.392 OA
HETATM   32  H   LIG     1      25.732  24.999  28.128  1.00  0.00     0.210 HD
ENDBRANCH  13  31
TORSDOF 6
ENDMDL
MODEL 16
REMARK VINA RESULT:      -3.9      3.192      5.148
REMARK  6 active torsions:
REMARK  status: ('A' for Active; 'I' for Inactive)
REMARK    1  A    between atoms: C_13  and  O_14 
REMARK    2  A    between atoms: C_20  and  O_21 
REMARK    3  A    between atoms: C_22  and  C_24 
REMARK    4  A    between atoms: C_22  and  O_23 
REMARK    5  A    between atoms: C_24  and  C_25 
REMARK    6  A    between atoms: C_25  and  O_26 
ROOT
HETATM    1  O   LIG     1      22.519  21.682  27.255  1.00  0.00    -0.289 OA
HETATM    2  C   LIG     1      23.444  21.469  26.424  1.00  0.00     0.172 C 
HETATM    3  C   LIG     1      23.539  20.178  25.749  1.00  0.00     0.052 C 
HETATM    4  C   LIG     1      24.548  19.925  24.913  1.00  0.00    -0.006 C 
HETATM    5  C   LIG     1      25.713  20.893  24.674  1.00  0.00     0.036 C 
HETATM    6  C   LIG     1      26.891  20.302  25.491  1.00  0.00     0.028 C 
HETATM    7  C   LIG     1      25.429  22.295  25.259  1.00  0.00    -0.061 C 
HETATM    8  C   LIG     1      26.298  23.462  24.816  1.00  0.00     0.036 C 
HETATM    9  C   LIG     1      26.435  23.557  23.275  1.00  0.00     0.013 C 
HETATM   10  C   LIG     1      25.684  22.420  22.544  1.00  0.00     0.035 C 
HETATM   11  C   LIG     1      26.108  21.026  23.119  1.00  0.00     0.147 C 
HETATM   12  F   LIG     1      27.491  20.948  23.059  1.00  0.00    -0.238 F 
HETATM   13  C   LIG     1      25.578  19.887  22.177  1.00  0.00     0.160 C 
HETATM   14  C   LIG     1      26.057  19.994  20.687  1.00  0.00     0.048 C 
HETATM   15  C   LIG     1      26.509  21.430  20.221  1.00  0.00     0.003 C 
HETATM   16  C   LIG     1      28.058  21.602  20.480  1.00  0.00     0.019 C 
HETATM   17  C   LIG     1      25.694  22.492  20.977  1.00  0.00     0.007 C 
HETATM   18  C   LIG     1      26.013  23.809  20.268  1.00  0.00     0.041 C 
HETATM   19  C   LIG     1      26.249  23.421  18.789  1.00  0.00     0.161 C 
HETATM   20  C   LIG     1      26.196  21.843  18.716  1.00  0.00     0.153 C 
HETATM   21  C   LIG     1      24.408  22.525  26.104  1.00  0.00     0.058 C 
ENDROOT
BRANCH  20  22
HETATM   22  C   LIG     1      24.840  21.326  18.161  1.00  0.00     0.187 C 
HETATM   23  O   LIG     1      24.838  20.297  17.493  1.00  0.00    -0.292 OA
BRANCH  22  24
HETATM   24  C   LIG     1      23.512  22.058  18.257  1.00  0.00     0.245 C 
BRANCH  24  25
HETATM   25  O   LIG     1      22.809  21.685  19.412  1.00  0.00    -0.393 OA
HETATM   26  H   LIG     1      21.977  22.231  19.444  1.00  0.00     0.209 HD
ENDBRANCH  24  25
ENDBRANCH  22  24
ENDBRANCH  20  22
BRANCH  20  27
HETATM   27  O   LIG     1      27.199  21.372  17.837  1.00  0.00    -0.378 OA
HETATM   28  H   LIG     1      26.881  21.520  16.907  1.00  0.00     0.211 HD
ENDBRANCH  20  27
BRANCH  19  29
HETATM   29  O   LIG     1      27.503  23.914  18.378  1.00  0.00    -0.392 OA
HETATM   30  H   LIG     1      27.917  24.345  19.175  1.00  0.00     0.210 HD
ENDBRANCH  19  29
BRANCH  13  31
HETATM   31  O   LIG     1      24.171  19.782  22.221  1.00  0.00    -0.392 OA
HETATM   32  H   LIG     1      23.916  19.228  22.997  1.00  0.00     0.210 HD
ENDBRANCH  13  31
TORSDOF 6
ENDMDL
MODEL 17
REMARK VINA RESULT:      -3.8      4.158      6.646
REMARK  6 active torsions:
REMARK  status: ('A' for Active; 'I' for Inactive)
REMARK    1  A    between atoms: C_13  and  O_14 
REMARK    2  A    between atoms: C_20  and  O_21 
REMARK    3  A    between atoms: C_22  and  C_24 
REMARK    4  A    between atoms: C_22  and  O_23 
REMARK    5  A    between atoms: C_24  and  C_25 
REMARK    6  A    between atoms: C_25  and  O_26 
ROOT
HETATM    1  O   LIG     1      18.856  20.040  27.949  1.00  0.00    -0.289 OA
HETATM    2  C   LIG     1      19.988  19.806  27.442  1.00  0.00     0.172 C 
HETATM    3  C   LIG     1      20.148  18.723  26.476  1.00  0.00     0.052 C 
HETATM    4  C   LIG     1      21.352  18.433  25.980  1.00  0.00    -0.006 C 
HETATM    5  C   LIG     1      22.645  19.116  26.442  1.00  0.00     0.036 C 
HETATM    6  C   LIG     1      23.325  18.082  27.377  1.00  0.00     0.028 C 
HETATM    7  C   LIG     1      22.363  20.370  27.298  1.00  0.00    -0.061 C 
HETATM    8  C   LIG     1      23.492  21.359  27.541  1.00  0.00     0.036 C 
HETATM    9  C   LIG     1      24.219  21.772  26.236  1.00  0.00     0.013 C 
HETATM   10  C   LIG     1      23.650  21.054  24.990  1.00  0.00     0.035 C 
HETATM   11  C   LIG     1      23.619  19.504  25.219  1.00  0.00     0.147 C 
HETATM   12  F   LIG     1      24.894  19.107  25.593  1.00  0.00    -0.238 F 
HETATM   13  C   LIG     1      23.331  18.779  23.856  1.00  0.00     0.160 C 
HETATM   14  C   LIG     1      24.353  19.107  22.712  1.00  0.00     0.048 C 
HETATM   15  C   LIG     1      25.148  20.457  22.879  1.00  0.00     0.003 C 
HETATM   16  C   LIG     1      26.489  20.182  23.670  1.00  0.00     0.019 C 
HETATM   17  C   LIG     1      24.267  21.481  23.613  1.00  0.00     0.007 C 
HETATM   18  C   LIG     1      25.016  22.808  23.483  1.00  0.00     0.041 C 
HETATM   19  C   LIG     1      25.741  22.728  22.119  1.00  0.00     0.161 C 
HETATM   20  C   LIG     1      25.496  21.270  21.556  1.00  0.00     0.153 C 
HETATM   21  C   LIG     1      21.141  20.639  27.792  1.00  0.00     0.058 C 
ENDROOT
BRANCH  20  22
HETATM   22  C   LIG     1      24.395  21.243  20.459  1.00  0.00     0.187 C 
HETATM   23  O   LIG     1      24.329  20.261  19.726  1.00  0.00    -0.292 OA
BRANCH  22  24
HETATM   24  C   LIG     1      23.463  22.392  20.117  1.00  0.00     0.245 C 
BRANCH  24  25
HETATM   25  O   LIG     1      22.366  22.432  20.989  1.00  0.00    -0.393 OA
HETATM   26  H   LIG     1      22.713  22.295  21.912  1.00  0.00     0.209 HD
ENDBRANCH  24  25
ENDBRANCH  22  24
ENDBRANCH  20  22
BRANCH  20  27
HETATM   27  O   LIG     1      26.680  20.786  20.954  1.00  0.00    -0.378 OA
HETATM   28  H   LIG     1      27.262  20.428  21.676  1.00  0.00     0.211 HD
ENDBRANCH  20  27
BRANCH  19  29
HETATM   29  O   LIG     1      27.114  22.981  22.310  1.00  0.00    -0.392 OA
HETATM   30  H   LIG     1      27.185  23.600  23.087  1.00  0.00     0.210 HD
ENDBRANCH  19  29
BRANCH  13  31
HETATM   31  O   LIG     1      22.015  19.012  23.405  1.00  0.00    -0.392 OA
HETATM   32  H   LIG     1      21.967  19.917  23.012  1.00  0.00     0.210 HD
ENDBRANCH  13  31
TORSDOF 6
ENDMDL
MODEL 18
REMARK VINA RESULT:      -3.7      3.165      5.054
REMARK  6 active torsions:
REMARK  status: ('A' for Active; 'I' for Inactive)
REMARK    1  A    between atoms: C_13  and  O_14 
REMARK    2  A    between atoms: C_20  and  O_21 
REMARK    3  A    between atoms: C_22  and  C_24 
REMARK    4  A    between atoms: C_22  and  O_23 
REMARK    5  A    between atoms: C_24  and  C_25 
REMARK    6  A    between atoms: C_25  and  O_26 
ROOT
HETATM    1  O   LIG     1      22.806  22.048  27.252  1.00  0.00    -0.289 OA
HETATM    2  C   LIG     1      23.827  21.890  26.527  1.00  0.00     0.172 C 
HETATM    3  C   LIG     1      23.752  21.062  25.327  1.00  0.00     0.052 C 
HETATM    4  C   LIG     1      24.841  20.844  24.588  1.00  0.00    -0.006 C 
HETATM    5  C   LIG     1      26.240  21.338  24.975  1.00  0.00     0.036 C 
HETATM    6  C   LIG     1      26.964  20.081  25.527  1.00  0.00     0.028 C 
HETATM    7  C   LIG     1      26.193  22.363  26.130  1.00  0.00    -0.061 C 
HETATM    8  C   LIG     1      27.423  23.214  26.404  1.00  0.00     0.036 C 
HETATM    9  C   LIG     1      27.980  23.893  25.127  1.00  0.00     0.013 C 
HETATM   10  C   LIG     1      27.176  23.518  23.860  1.00  0.00     0.035 C 
HETATM   11  C   LIG     1      27.051  21.962  23.731  1.00  0.00     0.147 C 
HETATM   12  F   LIG     1      28.330  21.429  23.792  1.00  0.00    -0.238 F 
HETATM   13  C   LIG     1      26.506  21.596  22.305  1.00  0.00     0.160 C 
HETATM   14  C   LIG     1      27.370  22.141  21.115  1.00  0.00     0.048 C 
HETATM   15  C   LIG     1      28.290  23.374  21.453  1.00  0.00     0.003 C 
HETATM   16  C   LIG     1      29.706  22.858  21.930  1.00  0.00     0.019 C 
HETATM   17  C   LIG     1      27.615  24.233  22.535  1.00  0.00     0.007 C 
HETATM   18  C   LIG     1      28.444  25.517  22.591  1.00  0.00     0.041 C 
HETATM   19  C   LIG     1      28.949  25.731  21.144  1.00  0.00     0.161 C 
HETATM   20  C   LIG     1      28.504  24.463  20.312  1.00  0.00     0.153 C 
HETATM   21  C   LIG     1      25.084  22.563  26.864  1.00  0.00     0.058 C 
ENDROOT
BRANCH  20  22
HETATM   22  C   LIG     1      27.254  24.747  19.433  1.00  0.00     0.187 C 
HETATM   23  O   LIG     1      26.353  25.432  19.906  1.00  0.00    -0.292 OA
BRANCH  22  24
HETATM   24  C   LIG     1      26.979  24.137  18.069  1.00  0.00     0.245 C 
BRANCH  24  25
HETATM   25  O   LIG     1      27.829  24.674  17.092  1.00  0.00    -0.393 OA
HETATM   26  H   LIG     1      27.295  25.319  16.552  1.00  0.00     0.209 HD
ENDBRANCH  24  25
ENDBRANCH  22  24
ENDBRANCH  20  22
BRANCH  20  27
HETATM   27  O   LIG     1      29.542  24.083  19.430  1.00  0.00    -0.378 OA
HETATM   28  H   LIG     1      30.201  24.827  19.398  1.00  0.00     0.211 HD
ENDBRANCH  20  27
BRANCH  19  29
HETATM   29  O   LIG     1      30.351  25.869  21.162  1.00  0.00    -0.392 OA
HETATM   30  H   LIG     1      30.696  25.395  20.357  1.00  0.00     0.210 HD
ENDBRANCH  19  29
BRANCH  13  31
HETATM   31  O   LIG     1      25.161  21.990  22.140  1.00  0.00    -0.392 OA
HETATM   32  H   LIG     1      24.811  21.593  21.306  1.00  0.00     0.210 HD
ENDBRANCH  13  31
TORSDOF 6
ENDMDL
MODEL 19
REMARK VINA RESULT:      -3.7      3.235      6.018
REMARK  6 active torsions:
REMARK  status: ('A' for Active; 'I' for Inactive)
REMARK    1  A    between atoms: C_13  and  O_14 
REMARK    2  A    between atoms: C_20  and  O_21 
REMARK    3  A    between atoms: C_22  and  C_24 
REMARK    4  A    between atoms: C_22  and  O_23 
REMARK    5  A    between atoms: C_24  and  C_25 
REMARK    6  A    between atoms: C_25  and  O_26 
ROOT
HETATM    1  O   LIG     1      26.214  25.406  27.858  1.00  0.00    -0.289 OA
HETATM    2  C   LIG     1      26.546  24.629  26.921  1.00  0.00     0.172 C 
HETATM    3  C   LIG     1      26.000  23.276  26.863  1.00  0.00     0.052 C 
HETATM    4  C   LIG     1      26.392  22.430  25.909  1.00  0.00    -0.006 C 
HETATM    5  C   LIG     1      27.489  22.754  24.888  1.00  0.00     0.036 C 
HETATM    6  C   LIG     1      28.739  21.987  25.394  1.00  0.00     0.028 C 
HETATM    7  C   LIG     1      27.858  24.254  24.892  1.00  0.00    -0.061 C 
HETATM    8  C   LIG     1      28.653  24.815  23.723  1.00  0.00     0.036 C 
HETATM    9  C   LIG     1      28.052  24.430  22.348  1.00  0.00     0.013 C 
HETATM   10  C   LIG     1      26.799  23.532  22.481  1.00  0.00     0.035 C 
HETATM   11  C   LIG     1      27.107  22.295  23.392  1.00  0.00     0.147 C 
HETATM   12  F   LIG     1      28.229  21.662  22.879  1.00  0.00    -0.238 F 
HETATM   13  C   LIG     1      25.939  21.252  23.271  1.00  0.00     0.160 C 
HETATM   14  C   LIG     1      25.654  20.756  21.811  1.00  0.00     0.048 C 
HETATM   15  C   LIG     1      26.149  21.711  20.660  1.00  0.00     0.003 C 
HETATM   16  C   LIG     1      27.623  21.318  20.249  1.00  0.00     0.019 C 
HETATM   17  C   LIG     1      26.071  23.170  21.140  1.00  0.00     0.007 C 
HETATM   18  C   LIG     1      26.309  24.009  19.884  1.00  0.00     0.041 C 
HETATM   19  C   LIG     1      25.708  23.177  18.726  1.00  0.00     0.161 C 
HETATM   20  C   LIG     1      25.259  21.793  19.343  1.00  0.00     0.153 C 
HETATM   21  C   LIG     1      27.455  25.088  25.868  1.00  0.00     0.058 C 
ENDROOT
BRANCH  20  22
HETATM   22  C   LIG     1      23.724  21.727  19.582  1.00  0.00     0.187 C 
HETATM   23  O   LIG     1      23.202  22.607  20.260  1.00  0.00    -0.292 OA
BRANCH  22  24
HETATM   24  C   LIG     1      22.814  20.586  19.161  1.00  0.00     0.245 C 
BRANCH  24  25
HETATM   25  O   LIG     1      23.420  19.343  19.392  1.00  0.00    -0.393 OA
HETATM   26  H   LIG     1      22.999  18.686  18.772  1.00  0.00     0.209 HD
ENDBRANCH  24  25
ENDBRANCH  22  24
ENDBRANCH  20  22
BRANCH  20  27
HETATM   27  O   LIG     1      25.574  20.746  18.447  1.00  0.00    -0.378 OA
HETATM   28  H   LIG     1      26.139  21.127  17.723  1.00  0.00     0.211 HD
ENDBRANCH  20  27
BRANCH  19  29
HETATM   29  O   LIG     1      26.686  23.002  17.728  1.00  0.00    -0.392 OA
HETATM   30  H   LIG     1      27.560  22.910  18.196  1.00  0.00     0.210 HD
ENDBRANCH  19  29
BRANCH  13  31
HETATM   31  O   LIG     1      24.747  21.729  23.856  1.00  0.00    -0.392 OA
HETATM   32  H   LIG     1      24.075  21.867  23.146  1.00  0.00     0.210 HD
ENDBRANCH  13  31
TORSDOF 6
ENDMDL
MODEL 20
REMARK VINA RESULT:      -3.6      1.858      2.537
REMARK  6 active torsions:
REMARK  status: ('A' for Active; 'I' for Inactive)
REMARK    1  A    between atoms: C_13  and  O_14 
REMARK    2  A    between atoms: C_20  and  O_21 
REMARK    3  A    between atoms: C_22  and  C_24 
REMARK    4  A    between atoms: C_22  and  O_23 
REMARK    5  A    between atoms: C_24  and  C_25 
REMARK    6  A    between atoms: C_25  and  O_26 
ROOT
HETATM    1  O   LIG     1      22.188  18.363  23.616  1.00  0.00    -0.289 OA
HETATM    2  C   LIG     1      23.004  19.319  23.500  1.00  0.00     0.172 C 
HETATM    3  C   LIG     1      24.370  19.180  23.996  1.00  0.00     0.052 C 
HETATM    4  C   LIG     1      25.221  20.205  23.929  1.00  0.00    -0.006 C 
HETATM    5  C   LIG     1      24.825  21.604  23.441  1.00  0.00     0.036 C 
HETATM    6  C   LIG     1      24.679  22.447  24.734  1.00  0.00     0.028 C 
HETATM    7  C   LIG     1      23.442  21.606  22.753  1.00  0.00    -0.061 C 
HETATM    8  C   LIG     1      23.048  22.805  21.904  1.00  0.00     0.036 C 
HETATM    9  C   LIG     1      24.142  23.199  20.879  1.00  0.00     0.013 C 
HETATM   10  C   LIG     1      25.397  22.302  20.979  1.00  0.00     0.035 C 
HETATM   11  C   LIG     1      25.920  22.256  22.456  1.00  0.00     0.147 C 
HETATM   12  F   LIG     1      26.098  23.563  22.881  1.00  0.00    -0.238 F 
HETATM   13  C   LIG     1      27.347  21.601  22.486  1.00  0.00     0.160 C 
HETATM   14  C   LIG     1      28.414  22.317  21.587  1.00  0.00     0.048 C 
HETATM   15  C   LIG     1      27.835  23.191  20.411  1.00  0.00     0.003 C 
HETATM   16  C   LIG     1      27.619  24.673  20.917  1.00  0.00     0.019 C 
HETATM   17  C   LIG     1      26.518  22.572  19.916  1.00  0.00     0.007 C 
HETATM   18  C   LIG     1      26.190  23.327  18.627  1.00  0.00     0.041 C 
HETATM   19  C   LIG     1      27.564  23.681  18.009  1.00  0.00     0.161 C 
HETATM   20  C   LIG     1      28.664  23.234  19.053  1.00  0.00     0.153 C 
HETATM   21  C   LIG     1      22.599  20.561  22.838  1.00  0.00     0.058 C 
ENDROOT
BRANCH  20  22
HETATM   22  C   LIG     1      29.340  21.892  18.654  1.00  0.00     0.187 C 
HETATM   23  O   LIG     1      28.710  21.110  17.949  1.00  0.00    -0.292 OA
BRANCH  22  24
HETATM   24  C   LIG     1      30.677  21.391  19.173  1.00  0.00     0.245 C 
BRANCH  24  25
HETATM   25  O   LIG     1      30.559  20.108  19.724  1.00  0.00    -0.393 OA
HETATM   26  H   LIG     1      29.637  20.026  20.094  1.00  0.00     0.209 HD
ENDBRANCH  24  25
ENDBRANCH  22  24
ENDBRANCH  20  22
BRANCH  20  27
HETATM   27  O   LIG     1      29.690  24.204  19.110  1.00  0.00    -0.378 OA
HETATM   28  H   LIG     1      30.148  24.109  19.987  1.00  0.00     0.211 HD
ENDBRANCH  20  27
BRANCH  19  29
HETATM   29  O   LIG     1      27.617  25.068  17.768  1.00  0.00    -0.392 OA
HETATM   30  H   LIG     1      28.222  25.456  18.458  1.00  0.00     0.210 HD
ENDBRANCH  19  29
BRANCH  13  31
HETATM   31  O   LIG     1      27.300  20.226  22.172  1.00  0.00    -0.392 OA
HETATM   32  H   LIG     1      26.394  20.002  21.851  1.00  0.00     0.210 HD
ENDBRANCH  13  31
TORSDOF 6
ENDMDL
