MODEL 1
REMARK VINA RESULT:      -5.8      0.000      0.000
REMARK  7 active torsions:
REMARK  status: ('A' for Active; 'I' for Inactive)
REMARK    1  A    between atoms: C_2  and  C_3 
REMARK    2  A    between atoms: C_3  and  C_4 
REMARK    3  A    between atoms: C_4  and  C_5 
REMARK    4  A    between atoms: C_5  and  C_6 
REMARK    5  A    between atoms: C_6  and  C_7 
REMARK    6  A    between atoms: C_7  and  C_8 
REMARK    7  A    between atoms: C_8  and  C_9 
ROOT
HETATM    1  C   LIG     1      16.233  37.768  23.485  1.00  0.00     0.000 C 
ENDROOT
BRANCH   1   2
HETATM    2  C   LIG     1      17.206  36.818  24.204  1.00  0.00     0.000 C 
BRANCH   2   3
HETATM    3  C   LIG     1      17.802  37.452  25.478  1.00  0.00    -0.000 C 
BRANCH   3   4
HETATM    4  C   LIG     1      18.310  36.421  26.499  1.00  0.00    -0.005 C 
HETATM    5  C   LIG     1      17.932  34.985  26.139  1.00  0.00     0.005 C 
ENDBRANCH   3   4
ENDBRANCH   2   3
ENDBRANCH   1   2
BRANCH   1   6
HETATM    6  C   LIG     1      16.955  38.885  22.715  1.00  0.00     0.000 C 
BRANCH   6   7
HETATM    7  C   LIG     1      17.779  38.348  21.533  1.00  0.00     0.007 C 
BRANCH   7   8
HETATM    8  C   LIG     1      18.738  39.406  20.971  1.00  0.00     0.069 C 
BRANCH   8   9
HETATM    9  C   LIG     1      19.766  38.792  20.066  1.00  0.00     0.231 C 
HETATM   10  O   LIG     1      20.398  39.486  19.286  1.00  0.00    -0.307 OA
ENDBRANCH   8   9
ENDBRANCH   7   8
ENDBRANCH   6   7
ENDBRANCH   1   6
TORSDOF 7
ENDMDL
MODEL 2
REMARK VINA RESULT:      -5.6      2.636      3.230
REMARK  7 active torsions:
REMARK  status: ('A' for Active; 'I' for Inactive)
REMARK    1  A    between atoms: C_2  and  C_3 
REMARK    2  A    between atoms: C_3  and  C_4 
REMARK    3  A    between atoms: C_4  and  C_5 
REMARK    4  A    between atoms: C_5  and  C_6 
REMARK    5  A    between atoms: C_6  and  C_7 
REMARK    6  A    between atoms: C_7  and  C_8 
REMARK    7  A    between atoms: C_8  and  C_9 
ROOT
HETATM    1  C   LIG     1      17.513  38.429  23.554  1.00  0.00     0.000 C 
ENDROOT
BRANCH   1   2
HETATM    2  C   LIG     1      17.174  37.620  24.817  1.00  0.00     0.000 C 
BRANCH   2   3
HETATM    3  C   LIG     1      18.437  37.222  25.609  1.00  0.00    -0.000 C 
BRANCH   3   4
HETATM    4  C   LIG     1      18.225  36.017  26.540  1.00  0.00    -0.005 C 
HETATM    5  C   LIG     1      17.482  34.864  25.868  1.00  0.00     0.005 C 
ENDBRANCH   3   4
ENDBRANCH   2   3
ENDBRANCH   1   2
BRANCH   1   6
HETATM    6  C   LIG     1      17.327  37.617  22.262  1.00  0.00     0.000 C 
BRANCH   6   7
HETATM    7  C   LIG     1      16.294  36.488  22.421  1.00  0.00     0.007 C 
BRANCH   7   8
HETATM    8  C   LIG     1      16.861  35.125  22.003  1.00  0.00     0.069 C 
BRANCH   8   9
HETATM    9  C   LIG     1      16.123  34.558  20.825  1.00  0.00     0.231 C 
HETATM   10  O   LIG     1      16.168  35.115  19.740  1.00  0.00    -0.307 OA
ENDBRANCH   8   9
ENDBRANCH   7   8
ENDBRANCH   6   7
ENDBRANCH   1   6
TORSDOF 7
ENDMDL
MODEL 3
REMARK VINA RESULT:      -5.2      2.621      5.037
REMARK  7 active torsions:
REMARK  status: ('A' for Active; 'I' for Inactive)
REMARK    1  A    between atoms: C_2  and  C_3 
REMARK    2  A    between atoms: C_3  and  C_4 
REMARK    3  A    between atoms: C_4  and  C_5 
REMARK    4  A    between atoms: C_5  and  C_6 
REMARK    5  A    between atoms: C_6  and  C_7 
REMARK    6  A    between atoms: C_7  and  C_8 
REMARK    7  A    between atoms: C_8  and  C_9 
ROOT
HETATM    1  C   LIG     1      16.712  35.565  23.388  1.00  0.00     0.000 C 
ENDROOT
BRANCH   1   2
HETATM    2  C   LIG     1      17.252  35.122  22.018  1.00  0.00     0.000 C 
BRANCH   2   3
HETATM    3  C   LIG     1      17.484  36.316  21.070  1.00  0.00    -0.000 C 
BRANCH   3   4
HETATM    4  C   LIG     1      17.335  37.684  21.756  1.00  0.00    -0.005 C 
HETATM    5  C   LIG     1      18.438  38.670  21.374  1.00  0.00     0.005 C 
ENDBRANCH   3   4
ENDBRANCH   2   3
ENDBRANCH   1   2
BRANCH   1   6
HETATM    6  C   LIG     1      17.427  34.872  24.559  1.00  0.00     0.000 C 
BRANCH   6   7
HETATM    7  C   LIG     1      17.445  35.736  25.832  1.00  0.00     0.007 C 
BRANCH   7   8
HETATM    8  C   LIG     1      18.305  36.995  25.662  1.00  0.00     0.069 C 
BRANCH   8   9
HETATM    9  C   LIG     1      17.473  38.243  25.721  1.00  0.00     0.231 C 
HETATM   10  O   LIG     1      16.551  38.410  24.938  1.00  0.00    -0.307 OA
ENDBRANCH   8   9
ENDBRANCH   7   8
ENDBRANCH   6   7
ENDBRANCH   1   6
TORSDOF 7
ENDMDL
MODEL 4
REMARK VINA RESULT:      -5.2      2.837      5.609
REMARK  7 active torsions:
REMARK  status: ('A' for Active; 'I' for Inactive)
REMARK    1  A    between atoms: C_2  and  C_3 
REMARK    2  A    between atoms: C_3  and  C_4 
REMARK    3  A    between atoms: C_4  and  C_5 
REMARK    4  A    between atoms: C_5  and  C_6 
REMARK    5  A    between atoms: C_6  and  C_7 
REMARK    6  A    between atoms: C_7  and  C_8 
REMARK    7  A    between atoms: C_8  and  C_9 
ROOT
HETATM    1  C   LIG     1      16.794  38.356  22.662  1.00  0.00     0.000 C 
ENDROOT
BRANCH   1   2
HETATM    2  C   LIG     1      18.010  38.511  21.733  1.00  0.00     0.000 C 
BRANCH   2   3
HETATM    3  C   LIG     1      18.183  37.300  20.794  1.00  0.00    -0.000 C 
BRANCH   3   4
HETATM    4  C   LIG     1      19.001  37.613  19.530  1.00  0.00    -0.005 C 
HETATM    5  C   LIG     1      20.022  38.730  19.738  1.00  0.00     0.005 C 
ENDBRANCH   3   4
ENDBRANCH   2   3
ENDBRANCH   1   2
BRANCH   1   6
HETATM    6  C   LIG     1      17.003  37.277  23.736  1.00  0.00     0.000 C 
BRANCH   6   7
HETATM    7  C   LIG     1      17.409  37.871  25.096  1.00  0.00     0.007 C 
BRANCH   7   8
HETATM    8  C   LIG     1      18.556  37.088  25.747  1.00  0.00     0.069 C 
BRANCH   8   9
HETATM    9  C   LIG     1      18.047  35.917  26.536  1.00  0.00     0.231 C 
HETATM   10  O   LIG     1      18.198  34.779  26.123  1.00  0.00    -0.307 OA
ENDBRANCH   8   9
ENDBRANCH   7   8
ENDBRANCH   6   7
ENDBRANCH   1   6
TORSDOF 7
ENDMDL
MODEL 5
REMARK VINA RESULT:      -5.2      1.907      2.870
REMARK  7 active torsions:
REMARK  status: ('A' for Active; 'I' for Inactive)
REMARK    1  A    between atoms: C_2  and  C_3 
REMARK    2  A    between atoms: C_3  and  C_4 
REMARK    3  A    between atoms: C_4  and  C_5 
REMARK    4  A    between atoms: C_5  and  C_6 
REMARK    5  A    between atoms: C_6  and  C_7 
REMARK    6  A    between atoms: C_7  and  C_8 
REMARK    7  A    between atoms: C_8  and  C_9 
ROOT
HETATM    1  C   LIG     1      16.752  37.933  22.655  1.00  0.00     0.000 C 
ENDROOT
BRANCH   1   2
HETATM    2  C   LIG     1      16.935  36.726  23.591  1.00  0.00     0.000 C 
BRANCH   2   3
HETATM    3  C   LIG     1      17.011  35.394  22.815  1.00  0.00    -0.000 C 
BRANCH   3   4
HETATM    4  C   LIG     1      16.541  35.505  21.355  1.00  0.00    -0.005 C 
HETATM    5  C   LIG     1      15.480  34.469  20.987  1.00  0.00     0.005 C 
ENDBRANCH   3   4
ENDBRANCH   2   3
ENDBRANCH   1   2
BRANCH   1   6
HETATM    6  C   LIG     1      18.035  38.764  22.504  1.00  0.00     0.000 C 
BRANCH   6   7
HETATM    7  C   LIG     1      18.316  39.152  21.041  1.00  0.00     0.007 C 
BRANCH   7   8
HETATM    8  C   LIG     1      18.871  37.974  20.230  1.00  0.00     0.069 C 
BRANCH   8   9
HETATM    9  C   LIG     1      20.054  38.383  19.402  1.00  0.00     0.231 C 
HETATM   10  O   LIG     1      20.391  39.555  19.341  1.00  0.00    -0.307 OA
ENDBRANCH   8   9
ENDBRANCH   7   8
ENDBRANCH   6   7
ENDBRANCH   1   6
TORSDOF 7
ENDMDL
MODEL 6
REMARK VINA RESULT:      -4.9      3.879      4.704
REMARK  7 active torsions:
REMARK  status: ('A' for Active; 'I' for Inactive)
REMARK    1  A    between atoms: C_2  and  C_3 
REMARK    2  A    between atoms: C_3  and  C_4 
REMARK    3  A    between atoms: C_4  and  C_5 
REMARK    4  A    between atoms: C_5  and  C_6 
REMARK    5  A    between atoms: C_6  and  C_7 
REMARK    6  A    between atoms: C_7  and  C_8 
REMARK    7  A    between atoms: C_8  and  C_9 
ROOT
HETATM    1  C   LIG     1      16.914  35.173  21.933  1.00  0.00     0.000 C 
ENDROOT
BRANCH   1   2
HETATM    2  C   LIG     1      15.544  34.675  21.444  1.00  0.00     0.000 C 
BRANCH   2   3
HETATM    3  C   LIG     1      15.615  34.075  20.024  1.00  0.00    -0.000 C 
BRANCH   3   4
HETATM    4  C   LIG     1      15.562  32.538  20.002  1.00  0.00    -0.005 C 
HETATM    5  C   LIG     1      14.785  31.982  18.811  1.00  0.00     0.005 C 
ENDBRANCH   3   4
ENDBRANCH   2   3
ENDBRANCH   1   2
BRANCH   1   6
HETATM    6  C   LIG     1      17.329  36.501  21.280  1.00  0.00     0.000 C 
BRANCH   6   7
HETATM    7  C   LIG     1      17.334  37.671  22.278  1.00  0.00     0.007 C 
BRANCH   7   8
HETATM    8  C   LIG     1      17.792  38.983  21.627  1.00  0.00     0.069 C 
BRANCH   8   9
HETATM    9  C   LIG     1      18.885  38.748  20.626  1.00  0.00     0.231 C 
HETATM   10  O   LIG     1      19.297  39.664  19.932  1.00  0.00    -0.307 OA
ENDBRANCH   8   9
ENDBRANCH   7   8
ENDBRANCH   6   7
ENDBRANCH   1   6
TORSDOF 7
ENDMDL
MODEL 7
REMARK VINA RESULT:      -4.7     10.807     11.898
REMARK  7 active torsions:
REMARK  status: ('A' for Active; 'I' for Inactive)
REMARK    1  A    between atoms: C_2  and  C_3 
REMARK    2  A    between atoms: C_3  and  C_4 
REMARK    3  A    between atoms: C_4  and  C_5 
REMARK    4  A    between atoms: C_5  and  C_6 
REMARK    5  A    between atoms: C_6  and  C_7 
REMARK    6  A    between atoms: C_7  and  C_8 
REMARK    7  A    between atoms: C_8  and  C_9 
ROOT
HETATM    1  C   LIG     1      14.260  30.718  15.043  1.00  0.00     0.000 C 
ENDROOT
BRANCH   1   2
HETATM    2  C   LIG     1      14.047  29.418  14.249  1.00  0.00     0.000 C 
BRANCH   2   3
HETATM    3  C   LIG     1      15.381  28.760  13.840  1.00  0.00    -0.000 C 
BRANCH   3   4
HETATM    4  C   LIG     1      15.221  27.329  13.300  1.00  0.00    -0.005 C 
HETATM    5  C   LIG     1      15.983  27.091  11.998  1.00  0.00     0.005 C 
ENDBRANCH   3   4
ENDBRANCH   2   3
ENDBRANCH   1   2
BRANCH   1   6
HETATM    6  C   LIG     1      13.428  30.768  16.334  1.00  0.00     0.000 C 
BRANCH   6   7
HETATM    7  C   LIG     1      13.524  32.129  17.044  1.00  0.00     0.007 C 
BRANCH   7   8
HETATM    8  C   LIG     1      14.975  32.614  17.165  1.00  0.00     0.069 C 
BRANCH   8   9
HETATM    9  C   LIG     1      15.078  34.098  16.965  1.00  0.00     0.231 C 
HETATM   10  O   LIG     1      15.957  34.567  16.260  1.00  0.00    -0.307 OA
ENDBRANCH   8   9
ENDBRANCH   7   8
ENDBRANCH   6   7
ENDBRANCH   1   6
TORSDOF 7
ENDMDL
MODEL 8
REMARK VINA RESULT:      -4.7      9.434     10.421
REMARK  7 active torsions:
REMARK  status: ('A' for Active; 'I' for Inactive)
REMARK    1  A    between atoms: C_2  and  C_3 
REMARK    2  A    between atoms: C_3  and  C_4 
REMARK    3  A    between atoms: C_4  and  C_5 
REMARK    4  A    between atoms: C_5  and  C_6 
REMARK    5  A    between atoms: C_6  and  C_7 
REMARK    6  A    between atoms: C_7  and  C_8 
REMARK    7  A    between atoms: C_8  and  C_9 
ROOT
HETATM    1  C   LIG     1      15.118  30.565  14.908  1.00  0.00     0.000 C 
ENDROOT
BRANCH   1   2
HETATM    2  C   LIG     1      13.619  30.269  15.089  1.00  0.00     0.000 C 
BRANCH   2   3
HETATM    3  C   LIG     1      13.022  31.009  16.304  1.00  0.00    -0.000 C 
BRANCH   3   4
HETATM    4  C   LIG     1      13.933  32.118  16.857  1.00  0.00    -0.005 C 
HETATM    5  C   LIG     1      14.453  31.820  18.262  1.00  0.00     0.005 C 
ENDBRANCH   3   4
ENDBRANCH   2   3
ENDBRANCH   1   2
BRANCH   1   6
HETATM    6  C   LIG     1      15.464  31.011  13.478  1.00  0.00     0.000 C 
BRANCH   6   7
HETATM    7  C   LIG     1      16.229  32.346  13.447  1.00  0.00     0.007 C 
BRANCH   7   8
HETATM    8  C   LIG     1      16.931  32.638  14.779  1.00  0.00     0.069 C 
BRANCH   8   9
HETATM    9  C   LIG     1      17.473  34.037  14.821  1.00  0.00     0.231 C 
HETATM   10  O   LIG     1      17.481  34.728  13.815  1.00  0.00    -0.307 OA
ENDBRANCH   8   9
ENDBRANCH   7   8
ENDBRANCH   6   7
ENDBRANCH   1   6
TORSDOF 7
ENDMDL
MODEL 9
REMARK VINA RESULT:      -4.7      3.245      5.671
REMARK  7 active torsions:
REMARK  status: ('A' for Active; 'I' for Inactive)
REMARK    1  A    between atoms: C_2  and  C_3 
REMARK    2  A    between atoms: C_3  and  C_4 
REMARK    3  A    between atoms: C_4  and  C_5 
REMARK    4  A    between atoms: C_5  and  C_6 
REMARK    5  A    between atoms: C_6  and  C_7 
REMARK    6  A    between atoms: C_7  and  C_8 
REMARK    7  A    between atoms: C_8  and  C_9 
ROOT
HETATM    1  C   LIG     1      16.740  36.504  23.446  1.00  0.00     0.000 C 
ENDROOT
BRANCH   1   2
HETATM    2  C   LIG     1      17.309  36.965  22.093  1.00  0.00     0.000 C 
BRANCH   2   3
HETATM    3  C   LIG     1      17.157  35.886  21.001  1.00  0.00    -0.000 C 
BRANCH   3   4
HETATM    4  C   LIG     1      15.696  35.502  20.714  1.00  0.00    -0.005 C 
HETATM    5  C   LIG     1      15.522  34.745  19.399  1.00  0.00     0.005 C 
ENDBRANCH   3   4
ENDBRANCH   2   3
ENDBRANCH   1   2
BRANCH   1   6
HETATM    6  C   LIG     1      17.290  35.138  23.886  1.00  0.00     0.000 C 
BRANCH   6   7
HETATM    7  C   LIG     1      17.003  34.837  25.367  1.00  0.00     0.007 C 
BRANCH   7   8
HETATM    8  C   LIG     1      18.272  34.904  26.226  1.00  0.00     0.069 C 
BRANCH   8   9
HETATM    9  C   LIG     1      18.455  36.264  26.833  1.00  0.00     0.231 C 
HETATM   10  O   LIG     1      18.859  37.196  26.156  1.00  0.00    -0.307 OA
ENDBRANCH   8   9
ENDBRANCH   7   8
ENDBRANCH   6   7
ENDBRANCH   1   6
TORSDOF 7
ENDMDL
MODEL 10
REMARK VINA RESULT:      -4.6      2.320      3.376
REMARK  7 active torsions:
REMARK  status: ('A' for Active; 'I' for Inactive)
REMARK    1  A    between atoms: C_2  and  C_3 
REMARK    2  A    between atoms: C_3  and  C_4 
REMARK    3  A    between atoms: C_4  and  C_5 
REMARK    4  A    between atoms: C_5  and  C_6 
REMARK    5  A    between atoms: C_6  and  C_7 
REMARK    6  A    between atoms: C_7  and  C_8 
REMARK    7  A    between atoms: C_8  and  C_9 
ROOT
HETATM    1  C   LIG     1      16.824  35.737  20.445  1.00  0.00     0.000 C 
ENDROOT
BRANCH   1   2
HETATM    2  C   LIG     1      16.056  35.768  21.777  1.00  0.00     0.000 C 
BRANCH   2   3
HETATM    3  C   LIG     1      16.813  36.556  22.866  1.00  0.00    -0.000 C 
BRANCH   3   4
HETATM    4  C   LIG     1      16.154  37.898  23.226  1.00  0.00    -0.005 C 
HETATM    5  C   LIG     1      16.853  39.098  22.592  1.00  0.00     0.005 C 
ENDBRANCH   3   4
ENDBRANCH   2   3
ENDBRANCH   1   2
BRANCH   1   6
HETATM    6  C   LIG     1      18.203  36.407  20.540  1.00  0.00     0.000 C 
BRANCH   6   7
HETATM    7  C   LIG     1      18.649  37.029  19.205  1.00  0.00     0.007 C 
BRANCH   7   8
HETATM    8  C   LIG     1      19.138  38.473  19.377  1.00  0.00     0.069 C 
BRANCH   8   9
HETATM    9  C   LIG     1      19.153  39.209  18.069  1.00  0.00     0.231 C 
HETATM   10  O   LIG     1      18.333  40.084  17.843  1.00  0.00    -0.307 OA
ENDBRANCH   8   9
ENDBRANCH   7   8
ENDBRANCH   6   7
ENDBRANCH   1   6
TORSDOF 7
ENDMDL
MODEL 11
REMARK VINA RESULT:      -4.6      5.184      6.320
REMARK  7 active torsions:
REMARK  status: ('A' for Active; 'I' for Inactive)
REMARK    1  A    between atoms: C_2  and  C_3 
REMARK    2  A    between atoms: C_3  and  C_4 
REMARK    3  A    between atoms: C_4  and  C_5 
REMARK    4  A    between atoms: C_5  and  C_6 
REMARK    5  A    between atoms: C_6  and  C_7 
REMARK    6  A    between atoms: C_7  and  C_8 
REMARK    7  A    between atoms: C_8  and  C_9 
ROOT
HETATM    1  C   LIG     1      16.626  35.162  21.697  1.00  0.00     0.000 C 
ENDROOT
BRANCH   1   2
HETATM    2  C   LIG     1      17.372  36.489  21.475  1.00  0.00     0.000 C 
BRANCH   2   3
HETATM    3  C   LIG     1      17.080  37.515  22.589  1.00  0.00    -0.000 C 
BRANCH   3   4
HETATM    4  C   LIG     1      17.277  38.975  22.149  1.00  0.00    -0.005 C 
HETATM    5  C   LIG     1      18.638  39.228  21.505  1.00  0.00     0.005 C 
ENDBRANCH   3   4
ENDBRANCH   2   3
ENDBRANCH   1   2
BRANCH   1   6
HETATM    6  C   LIG     1      15.720  34.787  20.513  1.00  0.00     0.000 C 
BRANCH   6   7
HETATM    7  C   LIG     1      15.009  33.439  20.722  1.00  0.00     0.007 C 
BRANCH   7   8
HETATM    8  C   LIG     1      15.641  32.318  19.886  1.00  0.00     0.069 C 
BRANCH   8   9
HETATM    9  C   LIG     1      14.623  31.294  19.478  1.00  0.00     0.231 C 
HETATM   10  O   LIG     1      14.049  31.386  18.404  1.00  0.00    -0.307 OA
ENDBRANCH   8   9
ENDBRANCH   7   8
ENDBRANCH   6   7
ENDBRANCH   1   6
TORSDOF 7
ENDMDL
MODEL 12
REMARK VINA RESULT:      -4.6     10.911     11.986
REMARK  7 active torsions:
REMARK  status: ('A' for Active; 'I' for Inactive)
REMARK    1  A    between atoms: C_2  and  C_3 
REMARK    2  A    between atoms: C_3  and  C_4 
REMARK    3  A    between atoms: C_4  and  C_5 
REMARK    4  A    between atoms: C_5  and  C_6 
REMARK    5  A    between atoms: C_6  and  C_7 
REMARK    6  A    between atoms: C_7  and  C_8 
REMARK    7  A    between atoms: C_8  and  C_9 
ROOT
HETATM    1  C   LIG     1      14.844  30.983  15.063  1.00  0.00     0.000 C 
ENDROOT
BRANCH   1   2
HETATM    2  C   LIG     1      14.899  30.106  13.801  1.00  0.00     0.000 C 
BRANCH   2   3
HETATM    3  C   LIG     1      15.448  28.695  14.097  1.00  0.00    -0.000 C 
BRANCH   3   4
HETATM    4  C   LIG     1      14.631  27.567  13.443  1.00  0.00    -0.005 C 
HETATM    5  C   LIG     1      13.162  27.572  13.861  1.00  0.00     0.005 C 
ENDBRANCH   3   4
ENDBRANCH   2   3
ENDBRANCH   1   2
BRANCH   1   6
HETATM    6  C   LIG     1      13.546  30.787  15.864  1.00  0.00     0.000 C 
BRANCH   6   7
HETATM    7  C   LIG     1      13.395  31.814  16.999  1.00  0.00     0.007 C 
BRANCH   7   8
HETATM    8  C   LIG     1      14.750  32.356  17.471  1.00  0.00     0.069 C 
BRANCH   8   9
HETATM    9  C   LIG     1      14.929  32.180  18.951  1.00  0.00     0.231 C 
HETATM   10  O   LIG     1      14.447  31.216  19.523  1.00  0.00    -0.307 OA
ENDBRANCH   8   9
ENDBRANCH   7   8
ENDBRANCH   6   7
ENDBRANCH   1   6
TORSDOF 7
ENDMDL
MODEL 13
REMARK VINA RESULT:      -4.6      9.949     11.592
REMARK  7 active torsions:
REMARK  status: ('A' for Active; 'I' for Inactive)
REMARK    1  A    between atoms: C_2  and  C_3 
REMARK    2  A    between atoms: C_3  and  C_4 
REMARK    3  A    between atoms: C_4  and  C_5 
REMARK    4  A    between atoms: C_5  and  C_6 
REMARK    5  A    between atoms: C_6  and  C_7 
REMARK    6  A    between atoms: C_7  and  C_8 
REMARK    7  A    between atoms: C_8  and  C_9 
ROOT
HETATM    1  C   LIG     1      15.359  30.524  13.486  1.00  0.00     0.000 C 
ENDROOT
BRANCH   1   2
HETATM    2  C   LIG     1      16.054  31.895  13.444  1.00  0.00     0.000 C 
BRANCH   2   3
HETATM    3  C   LIG     1      16.535  32.345  14.839  1.00  0.00    -0.000 C 
BRANCH   3   4
HETATM    4  C   LIG     1      17.485  33.555  14.801  1.00  0.00    -0.005 C 
HETATM    5  C   LIG     1      18.342  33.604  13.539  1.00  0.00     0.005 C 
ENDBRANCH   3   4
ENDBRANCH   2   3
ENDBRANCH   1   2
BRANCH   1   6
HETATM    6  C   LIG     1      14.851  30.159  14.890  1.00  0.00     0.000 C 
BRANCH   6   7
HETATM    7  C   LIG     1      13.324  30.294  15.017  1.00  0.00     0.007 C 
BRANCH   7   8
HETATM    8  C   LIG     1      12.890  30.602  16.456  1.00  0.00     0.069 C 
BRANCH   8   9
HETATM    9  C   LIG     1      13.810  31.593  17.108  1.00  0.00     0.231 C 
HETATM   10  O   LIG     1      14.112  31.475  18.285  1.00  0.00    -0.307 OA
ENDBRANCH   8   9
ENDBRANCH   7   8
ENDBRANCH   6   7
ENDBRANCH   1   6
TORSDOF 7
ENDMDL
MODEL 14
REMARK VINA RESULT:      -4.5      4.589      5.508
REMARK  7 active torsions:
REMARK  status: ('A' for Active; 'I' for Inactive)
REMARK    1  A    between atoms: C_2  and  C_3 
REMARK    2  A    between atoms: C_3  and  C_4 
REMARK    3  A    between atoms: C_4  and  C_5 
REMARK    4  A    between atoms: C_5  and  C_6 
REMARK    5  A    between atoms: C_6  and  C_7 
REMARK    6  A    between atoms: C_7  and  C_8 
REMARK    7  A    between atoms: C_8  and  C_9 
ROOT
HETATM    1  C   LIG     1      15.414  35.800  21.561  1.00  0.00     0.000 C 
ENDROOT
BRANCH   1   2
HETATM    2  C   LIG     1      15.252  34.977  20.272  1.00  0.00     0.000 C 
BRANCH   2   3
HETATM    3  C   LIG     1      15.857  33.563  20.404  1.00  0.00    -0.000 C 
BRANCH   3   4
HETATM    4  C   LIG     1      15.362  32.580  19.330  1.00  0.00    -0.005 C 
HETATM    5  C   LIG     1      14.775  31.298  19.917  1.00  0.00     0.005 C 
ENDBRANCH   3   4
ENDBRANCH   2   3
ENDBRANCH   1   2
BRANCH   1   6
HETATM    6  C   LIG     1      16.885  35.967  21.976  1.00  0.00     0.000 C 
BRANCH   6   7
HETATM    7  C   LIG     1      17.353  37.431  21.905  1.00  0.00     0.007 C 
BRANCH   7   8
HETATM    8  C   LIG     1      16.558  38.337  22.854  1.00  0.00     0.069 C 
BRANCH   8   9
HETATM    9  C   LIG     1      17.285  38.553  24.149  1.00  0.00     0.231 C 
HETATM   10  O   LIG     1      17.025  37.870  25.127  1.00  0.00    -0.307 OA
ENDBRANCH   8   9
ENDBRANCH   7   8
ENDBRANCH   6   7
ENDBRANCH   1   6
TORSDOF 7
ENDMDL
MODEL 15
REMARK VINA RESULT:      -4.4      2.779      4.673
REMARK  7 active torsions:
REMARK  status: ('A' for Active; 'I' for Inactive)
REMARK    1  A    between atoms: C_2  and  C_3 
REMARK    2  A    between atoms: C_3  and  C_4 
REMARK    3  A    between atoms: C_4  and  C_5 
REMARK    4  A    between atoms: C_5  and  C_6 
REMARK    5  A    between atoms: C_6  and  C_7 
REMARK    6  A    between atoms: C_7  and  C_8 
REMARK    7  A    between atoms: C_8  and  C_9 
ROOT
HETATM    1  C   LIG     1      19.857  38.423  20.243  1.00  0.00     0.000 C 
ENDROOT
BRANCH   1   2
HETATM    2  C   LIG     1      19.550  37.081  19.556  1.00  0.00     0.000 C 
BRANCH   2   3
HETATM    3  C   LIG     1      18.044  36.749  19.575  1.00  0.00    -0.000 C 
BRANCH   3   4
HETATM    4  C   LIG     1      17.603  35.957  20.817  1.00  0.00    -0.005 C 
HETATM    5  C   LIG     1      16.146  35.504  20.754  1.00  0.00     0.005 C 
ENDBRANCH   3   4
ENDBRANCH   2   3
ENDBRANCH   1   2
BRANCH   1   6
HETATM    6  C   LIG     1      18.677  39.406  20.177  1.00  0.00     0.000 C 
BRANCH   6   7
HETATM    7  C   LIG     1      17.906  39.490  21.505  1.00  0.00     0.007 C 
BRANCH   7   8
HETATM    8  C   LIG     1      18.713  38.917  22.678  1.00  0.00     0.069 C 
BRANCH   8   9
HETATM    9  C   LIG     1      17.816  38.353  23.741  1.00  0.00     0.231 C 
HETATM   10  O   LIG     1      16.609  38.531  23.690  1.00  0.00    -0.307 OA
ENDBRANCH   8   9
ENDBRANCH   7   8
ENDBRANCH   6   7
ENDBRANCH   1   6
TORSDOF 7
ENDMDL
MODEL 16
REMARK VINA RESULT:      -4.4      8.298      9.512
REMARK  7 active torsions:
REMARK  status: ('A' for Active; 'I' for Inactive)
REMARK    1  A    between atoms: C_2  and  C_3 
REMARK    2  A    between atoms: C_3  and  C_4 
REMARK    3  A    between atoms: C_4  and  C_5 
REMARK    4  A    between atoms: C_5  and  C_6 
REMARK    5  A    between atoms: C_6  and  C_7 
REMARK    6  A    between atoms: C_7  and  C_8 
REMARK    7  A    between atoms: C_8  and  C_9 
ROOT
HETATM    1  C   LIG     1      14.524  32.232  17.640  1.00  0.00     0.000 C 
ENDROOT
BRANCH   1   2
HETATM    2  C   LIG     1      13.202  31.831  16.964  1.00  0.00     0.000 C 
BRANCH   2   3
HETATM    3  C   LIG     1      13.412  30.780  15.854  1.00  0.00    -0.000 C 
BRANCH   3   4
HETATM    4  C   LIG     1      14.806  30.836  15.208  1.00  0.00    -0.005 C 
HETATM    5  C   LIG     1      14.890  30.058  13.896  1.00  0.00     0.005 C 
ENDBRANCH   3   4
ENDBRANCH   2   3
ENDBRANCH   1   2
BRANCH   1   6
HETATM    6  C   LIG     1      14.649  31.681  19.070  1.00  0.00     0.000 C 
BRANCH   6   7
HETATM    7  C   LIG     1      15.400  32.643  20.007  1.00  0.00     0.007 C 
BRANCH   7   8
HETATM    8  C   LIG     1      15.529  34.049  19.407  1.00  0.00     0.069 C 
BRANCH   8   9
HETATM    9  C   LIG     1      15.775  35.080  20.469  1.00  0.00     0.231 C 
HETATM   10  O   LIG     1      14.872  35.433  21.211  1.00  0.00    -0.307 OA
ENDBRANCH   8   9
ENDBRANCH   7   8
ENDBRANCH   6   7
ENDBRANCH   1   6
TORSDOF 7
ENDMDL
MODEL 17
REMARK VINA RESULT:      -4.4      2.955      6.440
REMARK  7 active torsions:
REMARK  status: ('A' for Active; 'I' for Inactive)
REMARK    1  A    between atoms: C_2  and  C_3 
REMARK    2  A    between atoms: C_3  and  C_4 
REMARK    3  A    between atoms: C_4  and  C_5 
REMARK    4  A    between atoms: C_5  and  C_6 
REMARK    5  A    between atoms: C_6  and  C_7 
REMARK    6  A    between atoms: C_7  and  C_8 
REMARK    7  A    between atoms: C_8  and  C_9 
ROOT
HETATM    1  C   LIG     1      19.323  38.832  20.826  1.00  0.00     0.000 C 
ENDROOT
BRANCH   1   2
HETATM    2  C   LIG     1      18.819  38.603  19.391  1.00  0.00     0.000 C 
BRANCH   2   3
HETATM    3  C   LIG     1      19.796  39.161  18.335  1.00  0.00    -0.000 C 
BRANCH   3   4
HETATM    4  C   LIG     1      19.134  39.459  16.980  1.00  0.00    -0.005 C 
HETATM    5  C   LIG     1      17.928  40.389  17.094  1.00  0.00     0.005 C 
ENDBRANCH   3   4
ENDBRANCH   2   3
ENDBRANCH   1   2
BRANCH   1   6
HETATM    6  C   LIG     1      18.268  39.496  21.725  1.00  0.00     0.000 C 
BRANCH   6   7
HETATM    7  C   LIG     1      17.415  38.469  22.490  1.00  0.00     0.007 C 
BRANCH   7   8
HETATM    8  C   LIG     1      17.866  38.318  23.949  1.00  0.00     0.069 C 
BRANCH   8   9
HETATM    9  C   LIG     1      16.990  37.359  24.700  1.00  0.00     0.231 C 
HETATM   10  O   LIG     1      17.422  36.274  25.056  1.00  0.00    -0.307 OA
ENDBRANCH   8   9
ENDBRANCH   7   8
ENDBRANCH   6   7
ENDBRANCH   1   6
TORSDOF 7
ENDMDL
MODEL 18
REMARK VINA RESULT:      -4.3     10.031     11.122
REMARK  7 active torsions:
REMARK  status: ('A' for Active; 'I' for Inactive)
REMARK    1  A    between atoms: C_2  and  C_3 
REMARK    2  A    between atoms: C_3  and  C_4 
REMARK    3  A    between atoms: C_4  and  C_5 
REMARK    4  A    between atoms: C_5  and  C_6 
REMARK    5  A    between atoms: C_6  and  C_7 
REMARK    6  A    between atoms: C_7  and  C_8 
REMARK    7  A    between atoms: C_8  and  C_9 
ROOT
HETATM    1  C   LIG     1      15.390  31.565  15.106  1.00  0.00     0.000 C 
ENDROOT
BRANCH   1   2
HETATM    2  C   LIG     1      14.043  30.857  15.328  1.00  0.00     0.000 C 
BRANCH   2   3
HETATM    3  C   LIG     1      13.939  29.540  14.532  1.00  0.00    -0.000 C 
BRANCH   3   4
HETATM    4  C   LIG     1      15.226  29.176  13.773  1.00  0.00    -0.005 C 
HETATM    5  C   LIG     1      15.405  27.671  13.585  1.00  0.00     0.005 C 
ENDBRANCH   3   4
ENDBRANCH   2   3
ENDBRANCH   1   2
BRANCH   1   6
HETATM    6  C   LIG     1      15.611  32.737  16.076  1.00  0.00     0.000 C 
BRANCH   6   7
HETATM    7  C   LIG     1      16.580  33.791  15.514  1.00  0.00     0.007 C 
BRANCH   7   8
HETATM    8  C   LIG     1      17.708  33.156  14.690  1.00  0.00     0.069 C 
BRANCH   8   9
HETATM    9  C   LIG     1      17.803  33.767  13.323  1.00  0.00     0.231 C 
HETATM   10  O   LIG     1      17.377  34.892  13.116  1.00  0.00    -0.307 OA
ENDBRANCH   8   9
ENDBRANCH   7   8
ENDBRANCH   6   7
ENDBRANCH   1   6
TORSDOF 7
ENDMDL
MODEL 19
REMARK VINA RESULT:      -4.1     10.200     11.807
REMARK  7 active torsions:
REMARK  status: ('A' for Active; 'I' for Inactive)
REMARK    1  A    between atoms: C_2  and  C_3 
REMARK    2  A    between atoms: C_3  and  C_4 
REMARK    3  A    between atoms: C_4  and  C_5 
REMARK    4  A    between atoms: C_5  and  C_6 
REMARK    5  A    between atoms: C_6  and  C_7 
REMARK    6  A    between atoms: C_7  and  C_8 
REMARK    7  A    between atoms: C_8  and  C_9 
ROOT
HETATM    1  C   LIG     1      16.977  33.210  14.930  1.00  0.00     0.000 C 
ENDROOT
BRANCH   1   2
HETATM    2  C   LIG     1      17.155  33.015  13.415  1.00  0.00     0.000 C 
BRANCH   2   3
HETATM    3  C   LIG     1      18.108  34.062  12.801  1.00  0.00    -0.000 C 
BRANCH   3   4
HETATM    4  C   LIG     1      19.597  33.732  13.003  1.00  0.00    -0.005 C 
HETATM    5  C   LIG     1      20.485  34.261  11.879  1.00  0.00     0.005 C 
ENDBRANCH   3   4
ENDBRANCH   2   3
ENDBRANCH   1   2
BRANCH   1   6
HETATM    6  C   LIG     1      15.873  32.316  15.516  1.00  0.00     0.000 C 
BRANCH   6   7
HETATM    7  C   LIG     1      15.421  31.220  14.536  1.00  0.00     0.007 C 
BRANCH   7   8
HETATM    8  C   LIG     1      14.262  30.386  15.098  1.00  0.00     0.069 C 
BRANCH   8   9
HETATM    9  C   LIG     1      13.647  31.038  16.301  1.00  0.00     0.231 C 
HETATM   10  O   LIG     1      12.558  30.673  16.714  1.00  0.00    -0.307 OA
ENDBRANCH   8   9
ENDBRANCH   7   8
ENDBRANCH   6   7
ENDBRANCH   1   6
TORSDOF 7
ENDMDL
MODEL 20
REMARK VINA RESULT:      -4.1     10.289     11.536
REMARK  7 active torsions:
REMARK  status: ('A' for Active; 'I' for Inactive)
REMARK    1  A    between atoms: C_2  and  C_3 
REMARK    2  A    between atoms: C_3  and  C_4 
REMARK    3  A    between atoms: C_4  and  C_5 
REMARK    4  A    between atoms: C_5  and  C_6 
REMARK    5  A    between atoms: C_6  and  C_7 
REMARK    6  A    between atoms: C_7  and  C_8 
REMARK    7  A    between atoms: C_8  and  C_9 
ROOT
HETATM    1  C   LIG     1      15.676  30.896  13.469  1.00  0.00     0.000 C 
ENDROOT
BRANCH   1   2
HETATM    2  C   LIG     1      16.005  32.325  13.934  1.00  0.00     0.000 C 
BRANCH   2   3
HETATM    3  C   LIG     1      16.393  32.376  15.427  1.00  0.00    -0.000 C 
BRANCH   3   4
HETATM    4  C   LIG     1      15.548  33.363  16.249  1.00  0.00    -0.005 C 
HETATM    5  C   LIG     1      15.308  32.897  17.683  1.00  0.00     0.005 C 
ENDBRANCH   3   4
ENDBRANCH   2   3
ENDBRANCH   1   2
BRANCH   1   6
HETATM    6  C   LIG     1      15.151  30.008  14.608  1.00  0.00     0.000 C 
BRANCH   6   7
HETATM    7  C   LIG     1      13.808  29.342  14.264  1.00  0.00     0.007 C 
BRANCH   7   8
HETATM    8  C   LIG     1      12.633  29.996  15.003  1.00  0.00     0.069 C 
BRANCH   8   9
HETATM    9  C   LIG     1      13.081  30.655  16.275  1.00  0.00     0.231 C 
HETATM   10  O   LIG     1      12.295  31.304  16.945  1.00  0.00    -0.307 OA
ENDBRANCH   8   9
ENDBRANCH   7   8
ENDBRANCH   6   7
ENDBRANCH   1   6
TORSDOF 7
ENDMDL
