REMARK  2 active torsions:
REMARK  status: ('A' for Active; 'I' for Inactive)
REMARK    1  A    between atoms: C_6  and  C_13 
REMARK    2  A    between atoms: C_6  and  C_7 
ROOT
HETATM    1  O   LIG     1      -0.696   1.139   2.071  1.00  0.00    -0.272 OA
HETATM    2  C   LIG     1      -1.075   0.406   1.117  1.00  0.00     0.241 C 
HETATM    3  N   LIG     1      -2.249  -0.393   1.282  1.00  0.00    -0.344 N 
HETATM    4  C   LIG     1      -2.540  -1.531   0.422  1.00  0.00     0.249 C 
HETATM    5  N   LIG     1      -2.072  -1.293  -0.936  1.00  0.00    -0.344 N 
HETATM    6  C   LIG     1      -0.290   0.414  -0.185  1.00  0.00     0.148 C 
HETATM    7  C   LIG     1      -0.904  -0.516  -1.219  1.00  0.00     0.241 C 
HETATM    8  O   LIG     1      -0.381  -0.598  -2.364  1.00  0.00    -0.272 OA
HETATM    9  H   LIG     1      -2.794  -0.299   2.169  1.00  0.00     0.164 HD
HETATM   10  H   LIG     1      -2.482  -1.872  -1.703  1.00  0.00     0.164 HD
ENDROOT
BRANCH   6  11
HETATM   11  C   LIG     1      -0.315   1.867  -0.759  1.00  0.00     0.030 C 
HETATM   12  C   LIG     1      -1.723   2.394  -1.070  1.00  0.00     0.007 C 
ENDBRANCH   6  11
BRANCH   6  13
HETATM   13  C   LIG     1       1.130  -0.095   0.119  1.00  0.00    -0.031 A 
HETATM   14  C   LIG     1       2.294   0.679  -0.101  1.00  0.00     0.009 A 
HETATM   15  C   LIG     1       3.561   0.164   0.194  1.00  0.00     0.001 A 
HETATM   16  C   LIG     1       3.694  -1.124   0.712  1.00  0.00     0.000 A 
HETATM   17  C   LIG     1       2.561  -1.903   0.937  1.00  0.00     0.001 A 
HETATM   18  C   LIG     1       1.292  -1.397   0.645  1.00  0.00     0.009 A 
ENDBRANCH   6  13
TORSDOF 2
