MODEL 1
REMARK VINA RESULT:      -8.9      0.000      0.000
REMARK  2 active torsions:
REMARK  status: ('A' for Active; 'I' for Inactive)
REMARK    1  A    between atoms: C_6  and  C_13 
REMARK    2  A    between atoms: C_6  and  C_7 
ROOT
HETATM    1  O   LIG     1      17.231  34.956  21.591  1.00  0.00    -0.272 OA
HETATM    2  C   LIG     1      17.364  36.210  21.576  1.00  0.00     0.241 C 
HETATM    3  N   LIG     1      18.137  36.812  20.535  1.00  0.00    -0.344 N 
HETATM    4  C   LIG     1      18.665  38.164  20.643  1.00  0.00     0.249 C 
HETATM    5  N   LIG     1      17.755  39.022  21.388  1.00  0.00    -0.344 N 
HETATM    6  C   LIG     1      16.678  37.045  22.646  1.00  0.00     0.148 C 
HETATM    7  C   LIG     1      16.939  38.530  22.456  1.00  0.00     0.241 C 
HETATM    8  O   LIG     1      16.413  39.356  23.251  1.00  0.00    -0.272 OA
HETATM    9  H   LIG     1      18.519  36.197  19.781  1.00  0.00     0.164 HD
HETATM   10  H   LIG     1      17.854  40.056  21.274  1.00  0.00     0.164 HD
ENDROOT
BRANCH   6  11
HETATM   11  C   LIG     1      15.139  36.802  22.540  1.00  0.00     0.030 C 
HETATM   12  C   LIG     1      14.714  36.002  21.301  1.00  0.00     0.007 C 
ENDBRANCH   6  11
BRANCH   6  13
HETATM   13  C   LIG     1      17.266  36.636  24.009  1.00  0.00    -0.031 A 
HETATM   14  C   LIG     1      18.016  37.516  24.824  1.00  0.00     0.009 A 
HETATM   15  C   LIG     1      18.527  37.089  26.055  1.00  0.00     0.001 A 
HETATM   16  C   LIG     1      18.301  35.786  26.497  1.00  0.00     0.000 A 
HETATM   17  C   LIG     1      17.564  34.903  25.710  1.00  0.00     0.001 A 
HETATM   18  C   LIG     1      17.051  35.320  24.480  1.00  0.00     0.009 A 
ENDBRANCH   6  13
TORSDOF 2
ENDMDL
MODEL 2
REMARK VINA RESULT:      -8.8      1.831      4.522
REMARK  2 active torsions:
REMARK  status: ('A' for Active; 'I' for Inactive)
REMARK    1  A    between atoms: C_6  and  C_13 
REMARK    2  A    between atoms: C_6  and  C_7 
ROOT
HETATM    1  O   LIG     1      15.769  39.166  22.709  1.00  0.00    -0.272 OA
HETATM    2  C   LIG     1      16.253  38.121  23.223  1.00  0.00     0.241 C 
HETATM    3  N   LIG     1      16.466  38.078  24.636  1.00  0.00    -0.344 N 
HETATM    4  C   LIG     1      17.354  37.107  25.258  1.00  0.00     0.249 C 
HETATM    5  N   LIG     1      17.324  35.839  24.543  1.00  0.00    -0.344 N 
HETATM    6  C   LIG     1      16.569  36.931  22.331  1.00  0.00     0.148 C 
HETATM    7  C   LIG     1      17.127  35.762  23.127  1.00  0.00     0.241 C 
HETATM    8  O   LIG     1      17.413  34.688  22.530  1.00  0.00    -0.272 OA
HETATM    9  H   LIG     1      16.156  38.895  25.210  1.00  0.00     0.164 HD
HETATM   10  H   LIG     1      17.658  34.986  25.045  1.00  0.00     0.164 HD
ENDROOT
BRANCH   6  11
HETATM   11  C   LIG     1      15.242  36.468  21.649  1.00  0.00     0.030 C 
HETATM   12  C   LIG     1      15.169  34.958  21.379  1.00  0.00     0.007 C 
ENDBRANCH   6  11
BRANCH   6  13
HETATM   13  C   LIG     1      17.648  37.370  21.325  1.00  0.00    -0.031 A 
HETATM   14  C   LIG     1      18.009  36.604  20.192  1.00  0.00     0.009 A 
HETATM   15  C   LIG     1      18.998  37.053  19.311  1.00  0.00     0.001 A 
HETATM   16  C   LIG     1      19.643  38.269  19.537  1.00  0.00     0.000 A 
HETATM   17  C   LIG     1      19.302  39.040  20.646  1.00  0.00     0.001 A 
HETATM   18  C   LIG     1      18.316  38.599  21.532  1.00  0.00     0.009 A 
ENDBRANCH   6  13
TORSDOF 2
ENDMDL
MODEL 3
REMARK VINA RESULT:      -8.7      1.345      3.126
REMARK  2 active torsions:
REMARK  status: ('A' for Active; 'I' for Inactive)
REMARK    1  A    between atoms: C_6  and  C_13 
REMARK    2  A    between atoms: C_6  and  C_7 
ROOT
HETATM    1  O   LIG     1      14.934  38.154  23.565  1.00  0.00    -0.272 OA
HETATM    2  C   LIG     1      15.383  37.335  22.718  1.00  0.00     0.241 C 
HETATM    3  N   LIG     1      14.466  36.655  21.857  1.00  0.00    -0.344 N 
HETATM    4  C   LIG     1      14.828  35.441  21.141  1.00  0.00     0.249 C 
HETATM    5  N   LIG     1      16.230  35.465  20.747  1.00  0.00    -0.344 N 
HETATM    6  C   LIG     1      16.884  37.115  22.619  1.00  0.00     0.148 C 
HETATM    7  C   LIG     1      17.236  36.108  21.535  1.00  0.00     0.241 C 
HETATM    8  O   LIG     1      18.448  35.839  21.312  1.00  0.00    -0.272 OA
HETATM    9  H   LIG     1      13.452  36.904  21.915  1.00  0.00     0.164 HD
HETATM   10  H   LIG     1      16.533  34.825  19.979  1.00  0.00     0.164 HD
ENDROOT
BRANCH   6  11
HETATM   11  C   LIG     1      17.553  38.479  22.254  1.00  0.00     0.030 C 
HETATM   12  C   LIG     1      18.066  38.559  20.809  1.00  0.00     0.007 C 
ENDBRANCH   6  11
BRANCH   6  13
HETATM   13  C   LIG     1      17.366  36.543  23.964  1.00  0.00    -0.031 A 
HETATM   14  C   LIG     1      17.159  35.198  24.352  1.00  0.00     0.009 A 
HETATM   15  C   LIG     1      17.619  34.732  25.589  1.00  0.00     0.001 A 
HETATM   16  C   LIG     1      18.290  35.591  26.458  1.00  0.00     0.000 A 
HETATM   17  C   LIG     1      18.505  36.919  26.096  1.00  0.00     0.001 A 
HETATM   18  C   LIG     1      18.049  37.393  24.863  1.00  0.00     0.009 A 
ENDBRANCH   6  13
TORSDOF 2
ENDMDL
MODEL 4
REMARK VINA RESULT:      -7.9      1.743      4.124
REMARK  2 active torsions:
REMARK  status: ('A' for Active; 'I' for Inactive)
REMARK    1  A    between atoms: C_6  and  C_13 
REMARK    2  A    between atoms: C_6  and  C_7 
ROOT
HETATM    1  O   LIG     1      17.890  34.710  22.295  1.00  0.00    -0.272 OA
HETATM    2  C   LIG     1      16.864  35.444  22.265  1.00  0.00     0.241 C 
HETATM    3  N   LIG     1      15.595  34.849  21.986  1.00  0.00    -0.344 N 
HETATM    4  C   LIG     1      14.448  35.635  21.552  1.00  0.00     0.249 C 
HETATM    5  N   LIG     1      14.453  36.952  22.172  1.00  0.00    -0.344 N 
HETATM    6  C   LIG     1      17.004  36.931  22.554  1.00  0.00     0.148 C 
HETATM    7  C   LIG     1      15.665  37.646  22.488  1.00  0.00     0.241 C 
HETATM    8  O   LIG     1      15.612  38.882  22.733  1.00  0.00    -0.272 OA
HETATM    9  H   LIG     1      15.546  33.811  21.874  1.00  0.00     0.164 HD
HETATM   10  H   LIG     1      13.555  37.485  22.197  1.00  0.00     0.164 HD
ENDROOT
BRANCH   6  11
HETATM   11  C   LIG     1      17.575  37.094  23.999  1.00  0.00     0.030 C 
HETATM   12  C   LIG     1      17.166  35.973  24.965  1.00  0.00     0.007 C 
ENDBRANCH   6  11
BRANCH   6  13
HETATM   13  C   LIG     1      17.913  37.536  21.469  1.00  0.00    -0.031 A 
HETATM   14  C   LIG     1      18.562  38.785  21.611  1.00  0.00     0.009 A 
HETATM   15  C   LIG     1      19.377  39.288  20.591  1.00  0.00     0.001 A 
HETATM   16  C   LIG     1      19.562  38.560  19.416  1.00  0.00     0.000 A 
HETATM   17  C   LIG     1      18.933  37.327  19.255  1.00  0.00     0.001 A 
HETATM   18  C   LIG     1      18.117  36.819  20.269  1.00  0.00     0.009 A 
ENDBRANCH   6  13
TORSDOF 2
ENDMDL
MODEL 5
REMARK VINA RESULT:      -6.9      1.994      4.559
REMARK  2 active torsions:
REMARK  status: ('A' for Active; 'I' for Inactive)
REMARK    1  A    between atoms: C_6  and  C_13 
REMARK    2  A    between atoms: C_6  and  C_7 
ROOT
HETATM    1  O   LIG     1      17.437  38.959  24.392  1.00  0.00    -0.272 OA
HETATM    2  C   LIG     1      17.332  37.705  24.305  1.00  0.00     0.241 C 
HETATM    3  N   LIG     1      17.711  36.899  25.423  1.00  0.00    -0.344 N 
HETATM    4  C   LIG     1      17.994  35.477  25.293  1.00  0.00     0.249 C 
HETATM    5  N   LIG     1      17.148  34.866  24.278  1.00  0.00    -0.344 N 
HETATM    6  C   LIG     1      16.782  37.092  23.027  1.00  0.00     0.148 C 
HETATM    7  C   LIG     1      16.715  35.576  23.113  1.00  0.00     0.241 C 
HETATM    8  O   LIG     1      16.252  34.921  22.139  1.00  0.00    -0.272 OA
HETATM    9  H   LIG     1      18.007  37.378  26.303  1.00  0.00     0.164 HD
HETATM   10  H   LIG     1      17.026  33.829  24.303  1.00  0.00     0.164 HD
ENDROOT
BRANCH   6  11
HETATM   11  C   LIG     1      15.332  37.633  22.812  1.00  0.00     0.030 C 
HETATM   12  C   LIG     1      15.272  39.090  22.331  1.00  0.00     0.007 C 
ENDBRANCH   6  11
BRANCH   6  13
HETATM   13  C   LIG     1      17.742  37.454  21.880  1.00  0.00    -0.031 A 
HETATM   14  C   LIG     1      17.973  36.611  20.768  1.00  0.00     0.009 A 
HETATM   15  C   LIG     1      18.858  36.992  19.753  1.00  0.00     0.001 A 
HETATM   16  C   LIG     1      19.526  38.214  19.825  1.00  0.00     0.000 A 
HETATM   17  C   LIG     1      19.313  39.060  20.911  1.00  0.00     0.001 A 
HETATM   18  C   LIG     1      18.431  38.687  21.929  1.00  0.00     0.009 A 
ENDBRANCH   6  13
TORSDOF 2
ENDMDL
