MODEL 1
REMARK VINA RESULT:      -4.7      0.000      0.000
REMARK  3 active torsions:
REMARK  status: ('A' for Active; 'I' for Inactive)
REMARK    1  A    between atoms: C_3  and  O_4 
REMARK    2  A    between atoms: C_7  and  O_8 
REMARK    3  A    between atoms: C_14  and  O_15 
ROOT
HETATM    1 CL   LIG     1      23.550  21.728  26.497  1.00  0.00    -0.078 Cl
HETATM    2  C   LIG     1      24.745  22.439  25.424  1.00  0.00     0.101 A 
HETATM    3  C   LIG     1      25.799  23.231  25.925  1.00  0.00     0.095 A 
HETATM    4  C   LIG     1      26.745  23.789  25.022  1.00  0.00     0.076 A 
HETATM    5  C   LIG     1      26.638  23.557  23.631  1.00  0.00     0.087 A 
HETATM    6  C   LIG     1      25.578  22.768  23.189  1.00  0.00     0.082 A 
HETATM    7  C   LIG     1      24.664  22.228  24.050  1.00  0.00     0.112 A 
HETATM    8  O   LIG     1      23.702  21.482  23.376  1.00  0.00    -0.322 OA
HETATM    9  C   LIG     1      23.948  21.496  21.961  1.00  0.00     0.184 A 
HETATM   10  C   LIG     1      24.256  20.089  21.492  1.00  0.00     0.092 C 
HETATM   11  C   LIG     1      23.926  19.689  20.248  1.00  0.00     0.086 C 
HETATM   12  C   LIG     1      23.218  20.578  19.310  1.00  0.00     0.152 C 
HETATM   13  O   LIG     1      22.946  20.166  18.151  1.00  0.00    -0.293 OA
HETATM   14  C   LIG     1      22.716  22.102  21.228  1.00  0.00     0.039 C 
HETATM   15  C   LIG     1      22.434  23.559  21.630  1.00  0.00     0.014 C 
HETATM   16  C   LIG     1      22.859  21.981  19.699  1.00  0.00     0.091 C 
HETATM   17  C   LIG     1      25.192  22.348  21.858  1.00  0.00     0.207 A 
HETATM   18  O   LIG     1      25.814  22.626  20.797  1.00  0.00    -0.288 OA
ENDROOT
BRANCH  10  19
HETATM   19  O   LIG     1      24.931  19.242  22.389  1.00  0.00    -0.356 OA
HETATM   20  C   LIG     1      26.315  18.911  22.320  1.00  0.00     0.209 C 
ENDBRANCH  10  19
BRANCH   5  21
HETATM   21  O   LIG     1      27.543  24.084  22.697  1.00  0.00    -0.355 OA
HETATM   22  C   LIG     1      28.417  25.177  22.956  1.00  0.00     0.210 C 
ENDBRANCH   5  21
BRANCH   3  23
HETATM   23  O   LIG     1      25.877  23.442  27.311  1.00  0.00    -0.354 OA
HETATM   24  C   LIG     1      26.559  24.532  27.923  1.00  0.00     0.210 C 
ENDBRANCH   3  23
TORSDOF 3
ENDMDL
MODEL 2
REMARK VINA RESULT:      -4.7      2.718      3.348
REMARK  3 active torsions:
REMARK  status: ('A' for Active; 'I' for Inactive)
REMARK    1  A    between atoms: C_3  and  O_4 
REMARK    2  A    between atoms: C_7  and  O_8 
REMARK    3  A    between atoms: C_14  and  O_15 
ROOT
HETATM    1 CL   LIG     1      27.618  22.372  24.034  1.00  0.00    -0.078 Cl
HETATM    2  C   LIG     1      27.494  23.453  22.656  1.00  0.00     0.101 A 
HETATM    3  C   LIG     1      28.224  24.658  22.603  1.00  0.00     0.095 A 
HETATM    4  C   LIG     1      28.094  25.507  21.470  1.00  0.00     0.076 A 
HETATM    5  C   LIG     1      27.241  25.154  20.398  1.00  0.00     0.087 A 
HETATM    6  C   LIG     1      26.543  23.952  20.500  1.00  0.00     0.082 A 
HETATM    7  C   LIG     1      26.661  23.131  21.586  1.00  0.00     0.112 A 
HETATM    8  O   LIG     1      25.868  21.994  21.460  1.00  0.00    -0.322 OA
HETATM    9  C   LIG     1      25.148  22.014  20.218  1.00  0.00     0.184 A 
HETATM   10  C   LIG     1      25.601  20.852  19.358  1.00  0.00     0.092 C 
HETATM   11  C   LIG     1      24.752  20.260  18.494  1.00  0.00     0.086 C 
HETATM   12  C   LIG     1      23.346  20.682  18.378  1.00  0.00     0.152 C 
HETATM   13  O   LIG     1      22.594  20.112  17.543  1.00  0.00    -0.293 OA
HETATM   14  C   LIG     1      23.619  21.969  20.505  1.00  0.00     0.039 C 
HETATM   15  C   LIG     1      23.123  23.182  21.308  1.00  0.00     0.014 C 
HETATM   16  C   LIG     1      22.809  21.813  19.205  1.00  0.00     0.091 C 
HETATM   17  C   LIG     1      25.609  23.313  19.597  1.00  0.00     0.207 A 
HETATM   18  O   LIG     1      25.266  23.757  18.469  1.00  0.00    -0.288 OA
ENDROOT
BRANCH  10  19
HETATM   19  O   LIG     1      26.944  20.449  19.471  1.00  0.00    -0.356 OA
HETATM   20  C   LIG     1      27.960  20.701  18.505  1.00  0.00     0.209 C 
ENDBRANCH  10  19
BRANCH   5  21
HETATM   21  O   LIG     1      27.076  25.953  19.257  1.00  0.00    -0.355 OA
HETATM   22  C   LIG     1      28.093  26.783  18.706  1.00  0.00     0.210 C 
ENDBRANCH   5  21
BRANCH   3  23
HETATM   23  O   LIG     1      29.061  24.981  23.684  1.00  0.00    -0.354 OA
HETATM   24  C   LIG     1      29.049  26.230  24.368  1.00  0.00     0.210 C 
ENDBRANCH   3  23
TORSDOF 3
ENDMDL
MODEL 3
REMARK VINA RESULT:      -4.5      3.365      5.874
REMARK  3 active torsions:
REMARK  status: ('A' for Active; 'I' for Inactive)
REMARK    1  A    between atoms: C_3  and  O_4 
REMARK    2  A    between atoms: C_7  and  O_8 
REMARK    3  A    between atoms: C_14  and  O_15 
ROOT
HETATM    1 CL   LIG     1      26.168  25.927  19.029  1.00  0.00    -0.078 Cl
HETATM    2  C   LIG     1      26.542  24.218  18.875  1.00  0.00     0.101 A 
HETATM    3  C   LIG     1      27.383  23.743  17.847  1.00  0.00     0.095 A 
HETATM    4  C   LIG     1      27.660  22.352  17.756  1.00  0.00     0.076 A 
HETATM    5  C   LIG     1      27.101  21.443  18.685  1.00  0.00     0.087 A 
HETATM    6  C   LIG     1      26.277  21.964  19.680  1.00  0.00     0.082 A 
HETATM    7  C   LIG     1      26.005  23.300  19.774  1.00  0.00     0.112 A 
HETATM    8  O   LIG     1      25.160  23.578  20.844  1.00  0.00    -0.322 OA
HETATM    9  C   LIG     1      24.814  22.373  21.544  1.00  0.00     0.184 A 
HETATM   10  C   LIG     1      25.358  22.439  22.956  1.00  0.00     0.092 C 
HETATM   11  C   LIG     1      24.720  21.824  23.972  1.00  0.00     0.086 C 
HETATM   12  C   LIG     1      23.453  21.102  23.766  1.00  0.00     0.152 C 
HETATM   13  O   LIG     1      22.902  20.525  24.742  1.00  0.00    -0.293 OA
HETATM   14  C   LIG     1      23.269  22.185  21.520  1.00  0.00     0.039 C 
HETATM   15  C   LIG     1      22.705  22.033  20.098  1.00  0.00     0.014 C 
HETATM   16  C   LIG     1      22.834  21.001  22.403  1.00  0.00     0.091 C 
HETATM   17  C   LIG     1      25.563  21.318  20.762  1.00  0.00     0.207 A 
HETATM   18  O   LIG     1      25.592  20.085  21.020  1.00  0.00    -0.288 OA
ENDROOT
BRANCH  10  19
HETATM   19  O   LIG     1      26.568  23.131  23.151  1.00  0.00    -0.356 OA
HETATM   20  C   LIG     1      27.071  23.563  24.411  1.00  0.00     0.209 C 
ENDBRANCH  10  19
BRANCH   5  21
HETATM   21  O   LIG     1      27.341  20.061  18.641  1.00  0.00    -0.355 OA
HETATM   22  C   LIG     1      26.704  19.165  17.737  1.00  0.00     0.210 C 
ENDBRANCH   5  21
BRANCH   3  23
HETATM   23  O   LIG     1      27.922  24.671  16.942  1.00  0.00    -0.354 OA
HETATM   24  C   LIG     1      29.202  25.282  17.079  1.00  0.00     0.210 C 
ENDBRANCH   3  23
TORSDOF 3
ENDMDL
MODEL 4
REMARK VINA RESULT:      -4.4      3.151      4.626
REMARK  3 active torsions:
REMARK  status: ('A' for Active; 'I' for Inactive)
REMARK    1  A    between atoms: C_3  and  O_4 
REMARK    2  A    between atoms: C_7  and  O_8 
REMARK    3  A    between atoms: C_14  and  O_15 
ROOT
HETATM    1 CL   LIG     1      26.473  25.697  19.005  1.00  0.00    -0.078 Cl
HETATM    2  C   LIG     1      26.663  24.327  20.087  1.00  0.00     0.101 A 
HETATM    3  C   LIG     1      27.421  24.430  21.272  1.00  0.00     0.095 A 
HETATM    4  C   LIG     1      27.551  23.297  22.120  1.00  0.00     0.076 A 
HETATM    5  C   LIG     1      26.929  22.071  21.788  1.00  0.00     0.087 A 
HETATM    6  C   LIG     1      26.192  22.023  20.606  1.00  0.00     0.082 A 
HETATM    7  C   LIG     1      26.062  23.107  19.784  1.00  0.00     0.112 A 
HETATM    8  O   LIG     1      25.284  22.816  18.668  1.00  0.00    -0.322 OA
HETATM    9  C   LIG     1      24.840  21.451  18.701  1.00  0.00     0.184 A 
HETATM   10  C   LIG     1      23.329  21.417  18.806  1.00  0.00     0.092 C 
HETATM   11  C   LIG     1      22.621  20.409  18.259  1.00  0.00     0.086 C 
HETATM   12  C   LIG     1      23.274  19.325  17.504  1.00  0.00     0.152 C 
HETATM   13  O   LIG     1      22.573  18.393  17.027  1.00  0.00    -0.293 OA
HETATM   14  C   LIG     1      25.356  20.707  17.435  1.00  0.00     0.039 C 
HETATM   15  C   LIG     1      26.890  20.658  17.351  1.00  0.00     0.014 C 
HETATM   16  C   LIG     1      24.764  19.290  17.337  1.00  0.00     0.091 C 
HETATM   17  C   LIG     1      25.448  20.944  19.989  1.00  0.00     0.207 A 
HETATM   18  O   LIG     1      25.308  19.787  20.470  1.00  0.00    -0.288 OA
ENDROOT
BRANCH  10  19
HETATM   19  O   LIG     1      22.707  22.454  19.526  1.00  0.00    -0.356 OA
HETATM   20  C   LIG     1      22.436  22.432  20.924  1.00  0.00     0.209 C 
ENDBRANCH  10  19
BRANCH   5  21
HETATM   21  O   LIG     1      27.025  20.923  22.588  1.00  0.00    -0.355 OA
HETATM   22  C   LIG     1      26.282  20.715  23.784  1.00  0.00     0.210 C 
ENDBRANCH   5  21
BRANCH   3  23
HETATM   23  O   LIG     1      28.026  25.661  21.574  1.00  0.00    -0.354 OA
HETATM   24  C   LIG     1      28.809  25.910  22.737  1.00  0.00     0.210 C 
ENDBRANCH   3  23
TORSDOF 3
ENDMDL
MODEL 5
REMARK VINA RESULT:      -4.3      3.894      6.885
REMARK  3 active torsions:
REMARK  status: ('A' for Active; 'I' for Inactive)
REMARK    1  A    between atoms: C_3  and  O_4 
REMARK    2  A    between atoms: C_7  and  O_8 
REMARK    3  A    between atoms: C_14  and  O_15 
ROOT
HETATM    1 CL   LIG     1      25.869  20.059  16.293  1.00  0.00    -0.078 Cl
HETATM    2  C   LIG     1      24.982  20.539  17.731  1.00  0.00     0.101 A 
HETATM    3  C   LIG     1      23.716  19.993  18.025  1.00  0.00     0.095 A 
HETATM    4  C   LIG     1      23.030  20.409  19.199  1.00  0.00     0.076 A 
HETATM    5  C   LIG     1      23.605  21.363  20.071  1.00  0.00     0.087 A 
HETATM    6  C   LIG     1      24.858  21.871  19.733  1.00  0.00     0.082 A 
HETATM    7  C   LIG     1      25.524  21.476  18.607  1.00  0.00     0.112 A 
HETATM    8  O   LIG     1      26.751  22.121  18.484  1.00  0.00    -0.322 OA
HETATM    9  C   LIG     1      26.964  23.021  19.582  1.00  0.00     0.184 A 
HETATM   10  C   LIG     1      28.161  22.556  20.387  1.00  0.00     0.092 C 
HETATM   11  C   LIG     1      28.945  23.442  21.031  1.00  0.00     0.086 C 
HETATM   12  C   LIG     1      28.704  24.893  20.949  1.00  0.00     0.152 C 
HETATM   13  O   LIG     1      29.454  25.683  21.584  1.00  0.00    -0.293 OA
HETATM   14  C   LIG     1      27.150  24.468  19.037  1.00  0.00     0.039 C 
HETATM   15  C   LIG     1      25.914  24.990  18.287  1.00  0.00     0.014 C 
HETATM   16  C   LIG     1      27.552  25.441  20.160  1.00  0.00     0.091 C 
HETATM   17  C   LIG     1      25.704  22.840  20.398  1.00  0.00     0.207 A 
HETATM   18  O   LIG     1      25.441  23.410  21.490  1.00  0.00    -0.288 OA
ENDROOT
BRANCH  10  19
HETATM   19  O   LIG     1      28.389  21.170  20.462  1.00  0.00    -0.356 OA
HETATM   20  C   LIG     1      28.242  20.379  21.637  1.00  0.00     0.209 C 
ENDBRANCH  10  19
BRANCH   5  21
HETATM   21  O   LIG     1      22.972  21.808  21.241  1.00  0.00    -0.355 OA
HETATM   22  C   LIG     1      22.006  22.853  21.282  1.00  0.00     0.210 C 
ENDBRANCH   5  21
BRANCH   3  23
HETATM   23  O   LIG     1      23.172  19.048  17.139  1.00  0.00    -0.354 OA
HETATM   24  C   LIG     1      21.846  19.099  16.621  1.00  0.00     0.210 C 
ENDBRANCH   3  23
TORSDOF 3
ENDMDL
MODEL 6
REMARK VINA RESULT:      -4.2      2.938      5.115
REMARK  3 active torsions:
REMARK  status: ('A' for Active; 'I' for Inactive)
REMARK    1  A    between atoms: C_3  and  O_4 
REMARK    2  A    between atoms: C_7  and  O_8 
REMARK    3  A    between atoms: C_14  and  O_15 
ROOT
HETATM    1 CL   LIG     1      25.818  24.638  17.961  1.00  0.00    -0.078 Cl
HETATM    2  C   LIG     1      26.619  24.672  19.524  1.00  0.00     0.101 A 
HETATM    3  C   LIG     1      27.504  25.713  19.871  1.00  0.00     0.095 A 
HETATM    4  C   LIG     1      28.133  25.702  21.146  1.00  0.00     0.076 A 
HETATM    5  C   LIG     1      27.878  24.660  22.067  1.00  0.00     0.087 A 
HETATM    6  C   LIG     1      26.995  23.656  21.675  1.00  0.00     0.082 A 
HETATM    7  C   LIG     1      26.387  23.658  20.451  1.00  0.00     0.112 A 
HETATM    8  O   LIG     1      25.553  22.555  20.290  1.00  0.00    -0.322 OA
HETATM    9  C   LIG     1      25.574  21.728  21.463  1.00  0.00     0.184 A 
HETATM   10  C   LIG     1      24.194  21.709  22.088  1.00  0.00     0.092 C 
HETATM   11  C   LIG     1      23.753  20.625  22.756  1.00  0.00     0.086 C 
HETATM   12  C   LIG     1      24.567  19.403  22.873  1.00  0.00     0.152 C 
HETATM   13  O   LIG     1      24.121  18.420  23.524  1.00  0.00    -0.293 OA
HETATM   14  C   LIG     1      26.063  20.300  21.081  1.00  0.00     0.039 C 
HETATM   15  C   LIG     1      27.494  20.286  20.520  1.00  0.00     0.014 C 
HETATM   16  C   LIG     1      25.938  19.329  22.269  1.00  0.00     0.091 C 
HETATM   17  C   LIG     1      26.529  22.472  22.367  1.00  0.00     0.207 A 
HETATM   18  O   LIG     1      26.849  22.141  23.541  1.00  0.00    -0.288 OA
ENDROOT
BRANCH  10  19
HETATM   19  O   LIG     1      23.418  22.877  21.975  1.00  0.00    -0.356 OA
HETATM   20  C   LIG     1      22.168  22.968  21.297  1.00  0.00     0.209 C 
ENDBRANCH  10  19
BRANCH   5  21
HETATM   21  O   LIG     1      28.471  24.601  23.337  1.00  0.00    -0.355 OA
HETATM   22  C   LIG     1      28.089  25.417  24.439  1.00  0.00     0.210 C 
ENDBRANCH   5  21
BRANCH   3  23
HETATM   23  O   LIG     1      27.736  26.733  18.934  1.00  0.00    -0.354 OA
HETATM   24  C   LIG     1      29.024  27.117  18.462  1.00  0.00     0.210 C 
ENDBRANCH   3  23
TORSDOF 3
ENDMDL
MODEL 7
REMARK VINA RESULT:      -4.0      3.370      4.249
REMARK  3 active torsions:
REMARK  status: ('A' for Active; 'I' for Inactive)
REMARK    1  A    between atoms: C_3  and  O_4 
REMARK    2  A    between atoms: C_7  and  O_8 
REMARK    3  A    between atoms: C_14  and  O_15 
ROOT
HETATM    1 CL   LIG     1      23.329  22.184  21.835  1.00  0.00    -0.078 Cl
HETATM    2  C   LIG     1      24.935  22.695  22.328  1.00  0.00     0.101 A 
HETATM    3  C   LIG     1      25.281  22.807  23.691  1.00  0.00     0.095 A 
HETATM    4  C   LIG     1      26.591  23.226  24.048  1.00  0.00     0.076 A 
HETATM    5  C   LIG     1      27.549  23.530  23.052  1.00  0.00     0.087 A 
HETATM    6  C   LIG     1      27.155  23.403  21.721  1.00  0.00     0.082 A 
HETATM    7  C   LIG     1      25.897  23.001  21.369  1.00  0.00     0.112 A 
HETATM    8  O   LIG     1      25.742  22.951  19.987  1.00  0.00    -0.322 OA
HETATM    9  C   LIG     1      26.955  23.340  19.325  1.00  0.00     0.184 A 
HETATM   10  C   LIG     1      27.493  22.165  18.534  1.00  0.00     0.092 C 
HETATM   11  C   LIG     1      28.189  22.360  17.395  1.00  0.00     0.086 C 
HETATM   12  C   LIG     1      28.420  23.709  16.850  1.00  0.00     0.152 C 
HETATM   13  O   LIG     1      29.092  23.844  15.793  1.00  0.00    -0.293 OA
HETATM   14  C   LIG     1      26.680  24.578  18.423  1.00  0.00     0.039 C 
HETATM   15  C   LIG     1      26.211  25.808  19.217  1.00  0.00     0.014 C 
HETATM   16  C   LIG     1      27.907  24.927  17.561  1.00  0.00     0.091 C 
HETATM   17  C   LIG     1      27.878  23.632  20.487  1.00  0.00     0.207 A 
HETATM   18  O   LIG     1      29.084  23.985  20.404  1.00  0.00    -0.288 OA
ENDROOT
BRANCH  10  19
HETATM   19  O   LIG     1      27.271  20.878  19.055  1.00  0.00    -0.356 OA
HETATM   20  C   LIG     1      28.228  20.110  19.778  1.00  0.00     0.209 C 
ENDBRANCH  10  19
BRANCH   5  21
HETATM   21  O   LIG     1      28.854  23.948  23.348  1.00  0.00    -0.355 OA
HETATM   22  C   LIG     1      29.200  25.265  23.761  1.00  0.00     0.210 C 
ENDBRANCH   5  21
BRANCH   3  23
HETATM   23  O   LIG     1      24.308  22.499  24.655  1.00  0.00    -0.354 OA
HETATM   24  C   LIG     1      24.163  21.224  25.275  1.00  0.00     0.210 C 
ENDBRANCH   3  23
TORSDOF 3
ENDMDL
MODEL 8
REMARK VINA RESULT:      -4.0      7.974      9.768
REMARK  3 active torsions:
REMARK  status: ('A' for Active; 'I' for Inactive)
REMARK    1  A    between atoms: C_3  and  O_4 
REMARK    2  A    between atoms: C_7  and  O_8 
REMARK    3  A    between atoms: C_14  and  O_15 
ROOT
HETATM    1 CL   LIG     1      19.028  23.160  32.515  1.00  0.00    -0.078 Cl
HETATM    2  C   LIG     1      20.006  21.705  32.414  1.00  0.00     0.101 A 
HETATM    3  C   LIG     1      20.949  21.387  33.413  1.00  0.00     0.095 A 
HETATM    4  C   LIG     1      21.722  20.200  33.292  1.00  0.00     0.076 A 
HETATM    5  C   LIG     1      21.553  19.338  32.184  1.00  0.00     0.087 A 
HETATM    6  C   LIG     1      20.608  19.699  31.226  1.00  0.00     0.082 A 
HETATM    7  C   LIG     1      19.861  20.839  31.333  1.00  0.00     0.112 A 
HETATM    8  O   LIG     1      18.989  20.985  30.259  1.00  0.00    -0.322 OA
HETATM    9  C   LIG     1      19.128  19.890  29.340  1.00  0.00     0.184 A 
HETATM   10  C   LIG     1      17.830  19.109  29.291  1.00  0.00     0.092 C 
HETATM   11  C   LIG     1      17.446  18.479  28.164  1.00  0.00     0.086 C 
HETATM   12  C   LIG     1      18.240  18.554  26.925  1.00  0.00     0.152 C 
HETATM   13  O   LIG     1      17.851  17.933  25.900  1.00  0.00    -0.293 OA
HETATM   14  C   LIG     1      19.536  20.436  27.941  1.00  0.00     0.039 C 
HETATM   15  C   LIG     1      20.891  21.162  27.952  1.00  0.00     0.014 C 
HETATM   16  C   LIG     1      19.529  19.320  26.880  1.00  0.00     0.091 C 
HETATM   17  C   LIG     1      20.199  19.050  29.997  1.00  0.00     0.207 A 
HETATM   18  O   LIG     1      20.646  17.952  29.570  1.00  0.00    -0.288 OA
ENDROOT
BRANCH  10  19
HETATM   19  O   LIG     1      17.073  19.039  30.475  1.00  0.00    -0.356 OA
HETATM   20  C   LIG     1      17.278  18.099  31.524  1.00  0.00     0.209 C 
ENDBRANCH  10  19
BRANCH   5  21
HETATM   21  O   LIG     1      22.289  18.155  32.015  1.00  0.00    -0.355 OA
HETATM   22  C   LIG     1      23.694  18.111  31.792  1.00  0.00     0.210 C 
ENDBRANCH   5  21
BRANCH   3  23
HETATM   23  O   LIG     1      21.093  22.263  34.501  1.00  0.00    -0.354 OA
HETATM   24  C   LIG     1      21.985  23.373  34.529  1.00  0.00     0.210 C 
ENDBRANCH   3  23
TORSDOF 3
ENDMDL
MODEL 9
REMARK VINA RESULT:      -3.8      2.425      4.037
REMARK  3 active torsions:
REMARK  status: ('A' for Active; 'I' for Inactive)
REMARK    1  A    between atoms: C_3  and  O_4 
REMARK    2  A    between atoms: C_7  and  O_8 
REMARK    3  A    between atoms: C_14  and  O_15 
ROOT
HETATM    1 CL   LIG     1      28.782  24.644  23.753  1.00  0.00    -0.078 Cl
HETATM    2  C   LIG     1      27.277  23.760  23.945  1.00  0.00     0.101 A 
HETATM    3  C   LIG     1      26.587  23.747  25.175  1.00  0.00     0.095 A 
HETATM    4  C   LIG     1      25.373  23.017  25.288  1.00  0.00     0.076 A 
HETATM    5  C   LIG     1      24.851  22.307  24.182  1.00  0.00     0.087 A 
HETATM    6  C   LIG     1      25.572  22.353  22.990  1.00  0.00     0.082 A 
HETATM    7  C   LIG     1      26.741  23.051  22.872  1.00  0.00     0.112 A 
HETATM    8  O   LIG     1      27.275  22.947  21.591  1.00  0.00    -0.322 OA
HETATM    9  C   LIG     1      26.439  22.129  20.758  1.00  0.00     0.184 A 
HETATM   10  C   LIG     1      25.886  22.969  19.624  1.00  0.00     0.092 C 
HETATM   11  C   LIG     1      25.622  22.418  18.423  1.00  0.00     0.086 C 
HETATM   12  C   LIG     1      25.895  20.997  18.145  1.00  0.00     0.152 C 
HETATM   13  O   LIG     1      25.614  20.522  17.012  1.00  0.00    -0.293 OA
HETATM   14  C   LIG     1      27.258  20.911  20.240  1.00  0.00     0.039 C 
HETATM   15  C   LIG     1      27.759  20.000  21.372  1.00  0.00     0.014 C 
HETATM   16  C   LIG     1      26.458  20.098  19.205  1.00  0.00     0.091 C 
HETATM   17  C   LIG     1      25.318  21.748  21.699  1.00  0.00     0.207 A 
HETATM   18  O   LIG     1      24.312  21.048  21.407  1.00  0.00    -0.288 OA
ENDROOT
BRANCH  10  19
HETATM   19  O   LIG     1      25.627  24.325  19.892  1.00  0.00    -0.356 OA
HETATM   20  C   LIG     1      26.250  25.424  19.233  1.00  0.00     0.209 C 
ENDBRANCH  10  19
BRANCH   5  21
HETATM   21  O   LIG     1      23.658  21.571  24.239  1.00  0.00    -0.355 OA
HETATM   22  C   LIG     1      23.508  20.340  24.938  1.00  0.00     0.210 C 
ENDBRANCH   5  21
BRANCH   3  23
HETATM   23  O   LIG     1      27.132  24.461  26.254  1.00  0.00    -0.354 OA
HETATM   24  C   LIG     1      26.395  24.872  27.402  1.00  0.00     0.210 C 
ENDBRANCH   3  23
TORSDOF 3
ENDMDL
MODEL 10
REMARK VINA RESULT:      -3.7      3.519      5.896
REMARK  3 active torsions:
REMARK  status: ('A' for Active; 'I' for Inactive)
REMARK    1  A    between atoms: C_3  and  O_4 
REMARK    2  A    between atoms: C_7  and  O_8 
REMARK    3  A    between atoms: C_14  and  O_15 
ROOT
HETATM    1 CL   LIG     1      27.752  21.195  23.167  1.00  0.00    -0.078 Cl
HETATM    2  C   LIG     1      26.410  21.487  22.072  1.00  0.00     0.101 A 
HETATM    3  C   LIG     1      25.128  20.958  22.328  1.00  0.00     0.095 A 
HETATM    4  C   LIG     1      24.069  21.217  21.416  1.00  0.00     0.076 A 
HETATM    5  C   LIG     1      24.289  21.999  20.258  1.00  0.00     0.087 A 
HETATM    6  C   LIG     1      25.574  22.498  20.053  1.00  0.00     0.082 A 
HETATM    7  C   LIG     1      26.598  22.253  20.924  1.00  0.00     0.112 A 
HETATM    8  O   LIG     1      27.782  22.854  20.507  1.00  0.00    -0.322 OA
HETATM    9  C   LIG     1      27.585  23.560  19.272  1.00  0.00     0.184 A 
HETATM   10  C   LIG     1      27.818  25.040  19.499  1.00  0.00     0.092 C 
HETATM   11  C   LIG     1      28.304  25.821  18.514  1.00  0.00     0.086 C 
HETATM   12  C   LIG     1      28.667  25.270  17.197  1.00  0.00     0.152 C 
HETATM   13  O   LIG     1      29.100  26.043  16.300  1.00  0.00    -0.293 OA
HETATM   14  C   LIG     1      28.534  22.977  18.185  1.00  0.00     0.039 C 
HETATM   15  C   LIG     1      28.260  21.496  17.880  1.00  0.00     0.014 C 
HETATM   16  C   LIG     1      28.485  23.813  16.893  1.00  0.00     0.091 C 
HETATM   17  C   LIG     1      26.120  23.316  18.990  1.00  0.00     0.207 A 
HETATM   18  O   LIG     1      25.469  23.771  18.012  1.00  0.00    -0.288 OA
ENDROOT
BRANCH  10  19
HETATM   19  O   LIG     1      27.471  25.564  20.758  1.00  0.00    -0.356 OA
HETATM   20  C   LIG     1      28.393  25.879  21.797  1.00  0.00     0.209 C 
ENDBRANCH  10  19
BRANCH   5  21
HETATM   21  O   LIG     1      23.280  22.285  19.326  1.00  0.00    -0.355 OA
HETATM   22  C   LIG     1      22.860  21.392  18.301  1.00  0.00     0.210 C 
ENDBRANCH   5  21
BRANCH   3  23
HETATM   23  O   LIG     1      24.943  20.185  23.486  1.00  0.00    -0.354 OA
HETATM   24  C   LIG     1      24.230  20.620  24.640  1.00  0.00     0.210 C 
ENDBRANCH   3  23
TORSDOF 3
ENDMDL
MODEL 11
REMARK VINA RESULT:      -3.7      2.636      5.899
REMARK  3 active torsions:
REMARK  status: ('A' for Active; 'I' for Inactive)
REMARK    1  A    between atoms: C_3  and  O_4 
REMARK    2  A    between atoms: C_7  and  O_8 
REMARK    3  A    between atoms: C_14  and  O_15 
ROOT
HETATM    1 CL   LIG     1      28.879  23.809  21.826  1.00  0.00    -0.078 Cl
HETATM    2  C   LIG     1      27.171  23.404  21.872  1.00  0.00     0.101 A 
HETATM    3  C   LIG     1      26.334  23.635  20.761  1.00  0.00     0.095 A 
HETATM    4  C   LIG     1      24.956  23.294  20.840  1.00  0.00     0.076 A 
HETATM    5  C   LIG     1      24.419  22.726  22.019  1.00  0.00     0.087 A 
HETATM    6  C   LIG     1      25.290  22.519  23.087  1.00  0.00     0.082 A 
HETATM    7  C   LIG     1      26.615  22.844  23.020  1.00  0.00     0.112 A 
HETATM    8  O   LIG     1      27.278  22.546  24.207  1.00  0.00    -0.322 OA
HETATM    9  C   LIG     1      26.372  21.981  25.166  1.00  0.00     0.184 A 
HETATM   10  C   LIG     1      26.792  20.558  25.476  1.00  0.00     0.092 C 
HETATM   11  C   LIG     1      26.569  20.021  26.691  1.00  0.00     0.086 C 
HETATM   12  C   LIG     1      25.950  20.798  27.779  1.00  0.00     0.152 C 
HETATM   13  O   LIG     1      25.743  20.248  28.894  1.00  0.00    -0.293 OA
HETATM   14  C   LIG     1      26.343  22.874  26.441  1.00  0.00     0.039 C 
HETATM   15  C   LIG     1      25.840  24.299  26.164  1.00  0.00     0.014 C 
HETATM   16  C   LIG     1      25.519  22.219  27.565  1.00  0.00     0.091 C 
HETATM   17  C   LIG     1      25.064  21.968  24.407  1.00  0.00     0.207 A 
HETATM   18  O   LIG     1      23.964  21.525  24.834  1.00  0.00    -0.288 OA
ENDROOT
BRANCH  10  19
HETATM   19  O   LIG     1      27.384  19.819  24.435  1.00  0.00    -0.356 OA
HETATM   20  C   LIG     1      26.749  18.768  23.713  1.00  0.00     0.209 C 
ENDBRANCH  10  19
BRANCH   5  21
HETATM   21  O   LIG     1      23.069  22.371  22.150  1.00  0.00    -0.355 OA
HETATM   22  C   LIG     1      22.026  22.862  21.314  1.00  0.00     0.210 C 
ENDBRANCH   5  21
BRANCH   3  23
HETATM   23  O   LIG     1      26.897  24.200  19.605  1.00  0.00    -0.354 OA
HETATM   24  C   LIG     1      26.573  25.491  19.099  1.00  0.00     0.210 C 
ENDBRANCH   3  23
TORSDOF 3
ENDMDL
MODEL 12
REMARK VINA RESULT:      -3.7      3.243      4.988
REMARK  3 active torsions:
REMARK  status: ('A' for Active; 'I' for Inactive)
REMARK    1  A    between atoms: C_3  and  O_4 
REMARK    2  A    between atoms: C_7  and  O_8 
REMARK    3  A    between atoms: C_14  and  O_15 
ROOT
HETATM    1 CL   LIG     1      25.865  25.940  19.007  1.00  0.00    -0.078 Cl
HETATM    2  C   LIG     1      26.915  24.669  19.612  1.00  0.00     0.101 A 
HETATM    3  C   LIG     1      28.288  24.900  19.838  1.00  0.00     0.095 A 
HETATM    4  C   LIG     1      29.105  23.844  20.326  1.00  0.00     0.076 A 
HETATM    5  C   LIG     1      28.553  22.568  20.588  1.00  0.00     0.087 A 
HETATM    6  C   LIG     1      27.192  22.393  20.348  1.00  0.00     0.082 A 
HETATM    7  C   LIG     1      26.400  23.403  19.878  1.00  0.00     0.112 A 
HETATM    8  O   LIG     1      25.081  22.989  19.717  1.00  0.00    -0.322 OA
HETATM    9  C   LIG     1      24.932  21.612  20.093  1.00  0.00     0.184 A 
HETATM   10  C   LIG     1      24.006  21.515  21.288  1.00  0.00     0.092 C 
HETATM   11  C   LIG     1      23.220  20.435  21.467  1.00  0.00     0.086 C 
HETATM   12  C   LIG     1      23.193  19.327  20.496  1.00  0.00     0.152 C 
HETATM   13  O   LIG     1      22.456  18.329  20.715  1.00  0.00    -0.293 OA
HETATM   14  C   LIG     1      24.405  20.797  18.876  1.00  0.00     0.039 C 
HETATM   15  C   LIG     1      25.370  20.814  17.679  1.00  0.00     0.014 C 
HETATM   16  C   LIG     1      24.065  19.349  19.276  1.00  0.00     0.091 C 
HETATM   17  C   LIG     1      26.336  21.236  20.509  1.00  0.00     0.207 A 
HETATM   18  O   LIG     1      26.702  20.115  20.953  1.00  0.00    -0.288 OA
ENDROOT
BRANCH  10  19
HETATM   19  O   LIG     1      24.032  22.574  22.214  1.00  0.00    -0.356 OA
HETATM   20  C   LIG     1      24.698  22.546  23.472  1.00  0.00     0.209 C 
ENDBRANCH  10  19
BRANCH   5  21
HETATM   21  O   LIG     1      29.313  21.491  21.071  1.00  0.00    -0.355 OA
HETATM   22  C   LIG     1      30.134  20.662  20.257  1.00  0.00     0.210 C 
ENDBRANCH   5  21
BRANCH   3  23
HETATM   23  O   LIG     1      28.805  26.178  19.567  1.00  0.00    -0.354 OA
HETATM   24  C   LIG     1      29.408  26.559  18.335  1.00  0.00     0.210 C 
ENDBRANCH   3  23
TORSDOF 3
ENDMDL
MODEL 13
REMARK VINA RESULT:      -3.7      6.765      9.353
REMARK  3 active torsions:
REMARK  status: ('A' for Active; 'I' for Inactive)
REMARK    1  A    between atoms: C_3  and  O_4 
REMARK    2  A    between atoms: C_7  and  O_8 
REMARK    3  A    between atoms: C_14  and  O_15 
ROOT
HETATM    1 CL   LIG     1      25.449  23.094  27.765  1.00  0.00    -0.078 Cl
HETATM    2  C   LIG     1      26.835  23.029  28.842  1.00  0.00     0.101 A 
HETATM    3  C   LIG     1      27.151  21.855  29.557  1.00  0.00     0.095 A 
HETATM    4  C   LIG     1      28.281  21.844  30.420  1.00  0.00     0.076 A 
HETATM    5  C   LIG     1      29.088  22.997  30.566  1.00  0.00     0.087 A 
HETATM    6  C   LIG     1      28.731  24.129  29.837  1.00  0.00     0.082 A 
HETATM    7  C   LIG     1      27.647  24.148  29.006  1.00  0.00     0.112 A 
HETATM    8  O   LIG     1      27.494  25.387  28.390  1.00  0.00    -0.322 OA
HETATM    9  C   LIG     1      28.525  26.293  28.809  1.00  0.00     0.184 A 
HETATM   10  C   LIG     1      29.379  26.668  27.615  1.00  0.00     0.092 C 
HETATM   11  C   LIG     1      29.967  27.879  27.540  1.00  0.00     0.086 C 
HETATM   12  C   LIG     1      29.775  28.899  28.584  1.00  0.00     0.152 C 
HETATM   13  O   LIG     1      30.361  30.011  28.481  1.00  0.00    -0.293 OA
HETATM   14  C   LIG     1      27.878  27.539  29.481  1.00  0.00     0.039 C 
HETATM   15  C   LIG     1      27.074  27.190  30.744  1.00  0.00     0.014 C 
HETATM   16  C   LIG     1      28.932  28.618  29.792  1.00  0.00     0.091 C 
HETATM   17  C   LIG     1      29.334  25.444  29.763  1.00  0.00     0.207 A 
HETATM   18  O   LIG     1      30.378  25.803  30.371  1.00  0.00    -0.288 OA
ENDROOT
BRANCH  10  19
HETATM   19  O   LIG     1      29.560  25.692  26.618  1.00  0.00    -0.356 OA
HETATM   20  C   LIG     1      29.359  25.898  25.223  1.00  0.00     0.209 C 
ENDBRANCH  10  19
BRANCH   5  21
HETATM   21  O   LIG     1      30.213  23.041  31.404  1.00  0.00    -0.355 OA
HETATM   22  C   LIG     1      30.154  23.178  32.819  1.00  0.00     0.210 C 
ENDBRANCH   5  21
BRANCH   3  23
HETATM   23  O   LIG     1      26.330  20.728  29.390  1.00  0.00    -0.354 OA
HETATM   24  C   LIG     1      25.393  20.263  30.357  1.00  0.00     0.210 C 
ENDBRANCH   3  23
TORSDOF 3
ENDMDL
MODEL 14
REMARK VINA RESULT:      -3.6      4.346      8.398
REMARK  3 active torsions:
REMARK  status: ('A' for Active; 'I' for Inactive)
REMARK    1  A    between atoms: C_3  and  O_4 
REMARK    2  A    between atoms: C_7  and  O_8 
REMARK    3  A    between atoms: C_14  and  O_15 
ROOT
HETATM    1 CL   LIG     1      27.447  20.984  31.145  1.00  0.00    -0.078 Cl
HETATM    2  C   LIG     1      26.597  21.563  29.722  1.00  0.00     0.101 A 
HETATM    3  C   LIG     1      25.539  20.826  29.151  1.00  0.00     0.095 A 
HETATM    4  C   LIG     1      24.878  21.329  27.997  1.00  0.00     0.076 A 
HETATM    5  C   LIG     1      25.270  22.559  27.419  1.00  0.00     0.087 A 
HETATM    6  C   LIG     1      26.321  23.247  28.023  1.00  0.00     0.082 A 
HETATM    7  C   LIG     1      26.963  22.771  29.131  1.00  0.00     0.112 A 
HETATM    8  O   LIG     1      27.974  23.630  29.549  1.00  0.00    -0.322 OA
HETATM    9  C   LIG     1      28.054  24.776  28.687  1.00  0.00     0.184 A 
HETATM   10  C   LIG     1      27.724  26.024  29.481  1.00  0.00     0.092 C 
HETATM   11  C   LIG     1      28.284  27.209  29.169  1.00  0.00     0.086 C 
HETATM   12  C   LIG     1      29.267  27.338  28.078  1.00  0.00     0.152 C 
HETATM   13  O   LIG     1      29.749  28.471  27.810  1.00  0.00    -0.293 OA
HETATM   14  C   LIG     1      29.472  24.846  28.048  1.00  0.00     0.039 C 
HETATM   15  C   LIG     1      29.795  23.627  27.170  1.00  0.00     0.014 C 
HETATM   16  C   LIG     1      29.663  26.151  27.253  1.00  0.00     0.091 C 
HETATM   17  C   LIG     1      26.953  24.507  27.688  1.00  0.00     0.207 A 
HETATM   18  O   LIG     1      26.614  25.262  26.737  1.00  0.00    -0.288 OA
ENDROOT
BRANCH  10  19
HETATM   19  O   LIG     1      26.787  25.898  30.523  1.00  0.00    -0.356 OA
HETATM   20  C   LIG     1      26.840  26.599  31.762  1.00  0.00     0.209 C 
ENDBRANCH  10  19
BRANCH   5  21
HETATM   21  O   LIG     1      24.653  23.101  26.282  1.00  0.00    -0.355 OA
HETATM   22  C   LIG     1      24.972  22.733  24.945  1.00  0.00     0.210 C 
ENDBRANCH   5  21
BRANCH   3  23
HETATM   23  O   LIG     1      25.174  19.608  29.748  1.00  0.00    -0.354 OA
HETATM   24  C   LIG     1      23.858  19.291  30.191  1.00  0.00     0.210 C 
ENDBRANCH   3  23
TORSDOF 3
ENDMDL
MODEL 15
REMARK VINA RESULT:      -3.4      3.521      6.129
REMARK  3 active torsions:
REMARK  status: ('A' for Active; 'I' for Inactive)
REMARK    1  A    between atoms: C_3  and  O_4 
REMARK    2  A    between atoms: C_7  and  O_8 
REMARK    3  A    between atoms: C_14  and  O_15 
ROOT
HETATM    1 CL   LIG     1      28.644  20.767  30.379  1.00  0.00    -0.078 Cl
HETATM    2  C   LIG     1      28.137  22.427  30.112  1.00  0.00     0.101 A 
HETATM    3  C   LIG     1      28.272  23.404  31.120  1.00  0.00     0.095 A 
HETATM    4  C   LIG     1      27.847  24.737  30.865  1.00  0.00     0.076 A 
HETATM    5  C   LIG     1      27.294  25.090  29.612  1.00  0.00     0.087 A 
HETATM    6  C   LIG     1      27.183  24.086  28.652  1.00  0.00     0.082 A 
HETATM    7  C   LIG     1      27.588  22.803  28.889  1.00  0.00     0.112 A 
HETATM    8  O   LIG     1      27.376  21.985  27.783  1.00  0.00    -0.322 OA
HETATM    9  C   LIG     1      26.788  22.729  26.706  1.00  0.00     0.184 A 
HETATM   10  C   LIG     1      27.748  22.758  25.534  1.00  0.00     0.092 C 
HETATM   11  C   LIG     1      27.290  22.809  24.267  1.00  0.00     0.086 C 
HETATM   12  C   LIG     1      25.848  22.797  23.964  1.00  0.00     0.152 C 
HETATM   13  O   LIG     1      25.466  22.866  22.765  1.00  0.00    -0.293 OA
HETATM   14  C   LIG     1      25.418  22.097  26.326  1.00  0.00     0.039 C 
HETATM   15  C   LIG     1      24.400  22.132  27.478  1.00  0.00     0.014 C 
HETATM   16  C   LIG     1      24.829  22.753  25.064  1.00  0.00     0.091 C 
HETATM   17  C   LIG     1      26.671  24.116  27.297  1.00  0.00     0.207 A 
HETATM   18  O   LIG     1      26.231  25.138  26.706  1.00  0.00    -0.288 OA
ENDROOT
BRANCH  10  19
HETATM   19  O   LIG     1      29.124  22.768  25.825  1.00  0.00    -0.356 OA
HETATM   20  C   LIG     1      29.957  23.923  25.807  1.00  0.00     0.209 C 
ENDBRANCH  10  19
BRANCH   5  21
HETATM   21  O   LIG     1      26.859  26.388  29.308  1.00  0.00    -0.355 OA
HETATM   22  C   LIG     1      27.637  27.563  29.512  1.00  0.00     0.210 C 
ENDBRANCH   5  21
BRANCH   3  23
HETATM   23  O   LIG     1      28.825  23.021  32.353  1.00  0.00    -0.354 OA
HETATM   24  C   LIG     1      28.321  23.423  33.623  1.00  0.00     0.210 C 
ENDBRANCH   3  23
TORSDOF 3
ENDMDL
MODEL 16
REMARK VINA RESULT:      -3.4     11.542     13.704
REMARK  3 active torsions:
REMARK  status: ('A' for Active; 'I' for Inactive)
REMARK    1  A    between atoms: C_3  and  O_4 
REMARK    2  A    between atoms: C_7  and  O_8 
REMARK    3  A    between atoms: C_14  and  O_15 
ROOT
HETATM    1 CL   LIG     1      25.182  23.579  38.110  1.00  0.00    -0.078 Cl
HETATM    2  C   LIG     1      25.151  22.537  36.696  1.00  0.00     0.101 A 
HETATM    3  C   LIG     1      26.311  22.313  35.927  1.00  0.00     0.095 A 
HETATM    4  C   LIG     1      26.242  21.463  34.789  1.00  0.00     0.076 A 
HETATM    5  C   LIG     1      25.025  20.843  34.424  1.00  0.00     0.087 A 
HETATM    6  C   LIG     1      23.909  21.098  35.218  1.00  0.00     0.082 A 
HETATM    7  C   LIG     1      23.966  21.914  36.313  1.00  0.00     0.112 A 
HETATM    8  O   LIG     1      22.729  22.016  36.943  1.00  0.00    -0.322 OA
HETATM    9  C   LIG     1      21.743  21.230  36.255  1.00  0.00     0.184 A 
HETATM   10  C   LIG     1      21.254  20.126  37.170  1.00  0.00     0.092 C 
HETATM   11  C   LIG     1      19.992  19.661  37.077  1.00  0.00     0.086 C 
HETATM   12  C   LIG     1      19.026  20.228  36.120  1.00  0.00     0.152 C 
HETATM   13  O   LIG     1      17.862  19.748  36.056  1.00  0.00    -0.293 OA
HETATM   14  C   LIG     1      20.584  22.154  35.779  1.00  0.00     0.039 C 
HETATM   15  C   LIG     1      21.045  23.232  34.785  1.00  0.00     0.014 C 
HETATM   16  C   LIG     1      19.421  21.335  35.189  1.00  0.00     0.091 C 
HETATM   17  C   LIG     1      22.542  20.630  35.120  1.00  0.00     0.207 A 
HETATM   18  O   LIG     1      22.106  19.830  34.250  1.00  0.00    -0.288 OA
ENDROOT
BRANCH  10  19
HETATM   19  O   LIG     1      22.177  19.587  38.084  1.00  0.00    -0.356 OA
HETATM   20  C   LIG     1      22.793  18.308  37.968  1.00  0.00     0.209 C 
ENDBRANCH  10  19
BRANCH   5  21
HETATM   21  O   LIG     1      24.902  19.996  33.312  1.00  0.00    -0.355 OA
HETATM   22  C   LIG     1      25.386  18.658  33.265  1.00  0.00     0.210 C 
ENDBRANCH   5  21
BRANCH   3  23
HETATM   23  O   LIG     1      27.504  22.944  36.316  1.00  0.00    -0.354 OA
HETATM   24  C   LIG     1      28.555  22.307  37.036  1.00  0.00     0.210 C 
ENDBRANCH   3  23
TORSDOF 3
ENDMDL
MODEL 17
REMARK VINA RESULT:      -3.3      3.028      5.550
REMARK  3 active torsions:
REMARK  status: ('A' for Active; 'I' for Inactive)
REMARK    1  A    between atoms: C_3  and  O_4 
REMARK    2  A    between atoms: C_7  and  O_8 
REMARK    3  A    between atoms: C_14  and  O_15 
ROOT
HETATM    1 CL   LIG     1      29.236  25.448  21.987  1.00  0.00    -0.078 Cl
HETATM    2  C   LIG     1      27.804  24.702  21.296  1.00  0.00     0.101 A 
HETATM    3  C   LIG     1      27.176  25.241  20.154  1.00  0.00     0.095 A 
HETATM    4  C   LIG     1      26.018  24.607  19.627  1.00  0.00     0.076 A 
HETATM    5  C   LIG     1      25.492  23.443  20.236  1.00  0.00     0.087 A 
HETATM    6  C   LIG     1      26.151  22.952  21.361  1.00  0.00     0.082 A 
HETATM    7  C   LIG     1      27.264  23.556  21.875  1.00  0.00     0.112 A 
HETATM    8  O   LIG     1      27.740  22.884  22.997  1.00  0.00    -0.322 OA
HETATM    9  C   LIG     1      26.919  21.745  23.294  1.00  0.00     0.184 A 
HETATM   10  C   LIG     1      27.740  20.481  23.143  1.00  0.00     0.092 C 
HETATM   11  C   LIG     1      27.483  19.396  23.899  1.00  0.00     0.086 C 
HETATM   12  C   LIG     1      26.429  19.402  24.929  1.00  0.00     0.152 C 
HETATM   13  O   LIG     1      26.212  18.357  25.600  1.00  0.00    -0.293 OA
HETATM   14  C   LIG     1      26.328  21.892  24.727  1.00  0.00     0.039 C 
HETATM   15  C   LIG     1      25.424  23.125  24.880  1.00  0.00     0.014 C 
HETATM   16  C   LIG     1      25.580  20.617  25.158  1.00  0.00     0.091 C 
HETATM   17  C   LIG     1      25.876  21.805  22.201  1.00  0.00     0.207 A 
HETATM   18  O   LIG     1      24.939  20.980  22.026  1.00  0.00    -0.288 OA
ENDROOT
BRANCH  10  19
HETATM   19  O   LIG     1      28.746  20.478  22.159  1.00  0.00    -0.356 OA
HETATM   20  C   LIG     1      30.136  20.299  22.410  1.00  0.00     0.209 C 
ENDBRANCH  10  19
BRANCH   5  21
HETATM   21  O   LIG     1      24.353  22.779  19.757  1.00  0.00    -0.355 OA
HETATM   22  C   LIG     1      24.299  22.065  18.526  1.00  0.00     0.210 C 
ENDBRANCH   5  21
BRANCH   3  23
HETATM   23  O   LIG     1      27.723  26.397  19.574  1.00  0.00    -0.354 OA
HETATM   24  C   LIG     1      28.587  26.399  18.442  1.00  0.00     0.210 C 
ENDBRANCH   3  23
TORSDOF 3
ENDMDL
MODEL 18
REMARK VINA RESULT:      -3.3      6.036     11.099
REMARK  3 active torsions:
REMARK  status: ('A' for Active; 'I' for Inactive)
REMARK    1  A    between atoms: C_3  and  O_4 
REMARK    2  A    between atoms: C_7  and  O_8 
REMARK    3  A    between atoms: C_14  and  O_15 
ROOT
HETATM    1 CL   LIG     1      26.185  25.055  27.659  1.00  0.00    -0.078 Cl
HETATM    2  C   LIG     1      27.141  24.379  28.968  1.00  0.00     0.101 A 
HETATM    3  C   LIG     1      27.363  22.990  29.070  1.00  0.00     0.095 A 
HETATM    4  C   LIG     1      28.141  22.483  30.146  1.00  0.00     0.076 A 
HETATM    5  C   LIG     1      28.694  23.357  31.111  1.00  0.00     0.087 A 
HETATM    6  C   LIG     1      28.444  24.720  30.964  1.00  0.00     0.082 A 
HETATM    7  C   LIG     1      27.696  25.215  29.933  1.00  0.00     0.112 A 
HETATM    8  O   LIG     1      27.586  26.601  29.998  1.00  0.00    -0.322 OA
HETATM    9  C   LIG     1      28.293  27.113  31.138  1.00  0.00     0.184 A 
HETATM   10  C   LIG     1      29.430  27.998  30.667  1.00  0.00     0.092 C 
HETATM   11  C   LIG     1      29.842  29.046  31.408  1.00  0.00     0.086 C 
HETATM   12  C   LIG     1      29.185  29.403  32.677  1.00  0.00     0.152 C 
HETATM   13  O   LIG     1      29.617  30.380  33.345  1.00  0.00    -0.293 OA
HETATM   14  C   LIG     1      27.301  27.877  32.063  1.00  0.00     0.039 C 
HETATM   15  C   LIG     1      26.185  26.978  32.618  1.00  0.00     0.014 C 
HETATM   16  C   LIG     1      28.041  28.591  33.209  1.00  0.00     0.091 C 
HETATM   17  C   LIG     1      28.856  25.856  31.761  1.00  0.00     0.207 A 
HETATM   18  O   LIG     1      29.587  25.801  32.786  1.00  0.00    -0.288 OA
ENDROOT
BRANCH  10  19
HETATM   19  O   LIG     1      30.055  27.656  29.454  1.00  0.00    -0.356 OA
HETATM   20  C   LIG     1      30.006  28.430  28.260  1.00  0.00     0.209 C 
ENDBRANCH  10  19
BRANCH   5  21
HETATM   21  O   LIG     1      29.469  22.910  32.192  1.00  0.00    -0.355 OA
HETATM   22  C   LIG     1      28.931  22.412  33.412  1.00  0.00     0.210 C 
ENDBRANCH   5  21
BRANCH   3  23
HETATM   23  O   LIG     1      26.800  22.149  28.096  1.00  0.00    -0.354 OA
HETATM   24  C   LIG     1      27.473  21.718  26.917  1.00  0.00     0.210 C 
ENDBRANCH   3  23
TORSDOF 3
ENDMDL
MODEL 19
REMARK VINA RESULT:      -3.2      4.375      7.481
REMARK  3 active torsions:
REMARK  status: ('A' for Active; 'I' for Inactive)
REMARK    1  A    between atoms: C_3  and  O_4 
REMARK    2  A    between atoms: C_7  and  O_8 
REMARK    3  A    between atoms: C_14  and  O_15 
ROOT
HETATM    1 CL   LIG     1      27.849  25.465  21.400  1.00  0.00    -0.078 Cl
HETATM    2  C   LIG     1      28.354  24.035  22.285  1.00  0.00     0.101 A 
HETATM    3  C   LIG     1      28.898  22.916  21.620  1.00  0.00     0.095 A 
HETATM    4  C   LIG     1      29.293  21.777  22.374  1.00  0.00     0.076 A 
HETATM    5  C   LIG     1      29.147  21.757  23.780  1.00  0.00     0.087 A 
HETATM    6  C   LIG     1      28.604  22.887  24.388  1.00  0.00     0.082 A 
HETATM    7  C   LIG     1      28.221  23.986  23.671  1.00  0.00     0.112 A 
HETATM    8  O   LIG     1      27.709  24.984  24.495  1.00  0.00    -0.322 OA
HETATM    9  C   LIG     1      27.729  24.568  25.869  1.00  0.00     0.184 A 
HETATM   10  C   LIG     1      28.661  25.471  26.652  1.00  0.00     0.092 C 
HETATM   11  C   LIG     1      28.431  25.737  27.953  1.00  0.00     0.086 C 
HETATM   12  C   LIG     1      27.252  25.202  28.657  1.00  0.00     0.152 C 
HETATM   13  O   LIG     1      27.089  25.463  29.879  1.00  0.00    -0.293 OA
HETATM   14  C   LIG     1      26.280  24.586  26.437  1.00  0.00     0.039 C 
HETATM   15  C   LIG     1      25.338  23.614  25.708  1.00  0.00     0.014 C 
HETATM   16  C   LIG     1      26.270  24.314  27.953  1.00  0.00     0.091 C 
HETATM   17  C   LIG     1      28.326  23.182  25.778  1.00  0.00     0.207 A 
HETATM   18  O   LIG     1      28.573  22.417  26.749  1.00  0.00    -0.288 OA
ENDROOT
BRANCH  10  19
HETATM   19  O   LIG     1      29.785  25.981  25.978  1.00  0.00    -0.356 OA
HETATM   20  C   LIG     1      30.112  27.362  25.859  1.00  0.00     0.209 C 
ENDBRANCH  10  19
BRANCH   5  21
HETATM   21  O   LIG     1      29.520  20.660  24.572  1.00  0.00    -0.355 OA
HETATM   22  C   LIG     1      28.922  19.371  24.487  1.00  0.00     0.210 C 
ENDBRANCH   5  21
BRANCH   3  23
HETATM   23  O   LIG     1      29.031  22.968  20.223  1.00  0.00    -0.354 OA
HETATM   24  C   LIG     1      29.904  22.137  19.464  1.00  0.00     0.210 C 
ENDBRANCH   3  23
TORSDOF 3
ENDMDL
MODEL 20
REMARK VINA RESULT:      -3.2      8.081     13.228
REMARK  3 active torsions:
REMARK  status: ('A' for Active; 'I' for Inactive)
REMARK    1  A    between atoms: C_3  and  O_4 
REMARK    2  A    between atoms: C_7  and  O_8 
REMARK    3  A    between atoms: C_14  and  O_15 
ROOT
HETATM    1 CL   LIG     1      26.939  26.748  29.344  1.00  0.00    -0.078 Cl
HETATM    2  C   LIG     1      27.692  25.995  30.740  1.00  0.00     0.101 A 
HETATM    3  C   LIG     1      27.904  24.601  30.795  1.00  0.00     0.095 A 
HETATM    4  C   LIG     1      28.516  24.031  31.944  1.00  0.00     0.076 A 
HETATM    5  C   LIG     1      28.914  24.846  33.029  1.00  0.00     0.087 A 
HETATM    6  C   LIG     1      28.682  26.216  32.924  1.00  0.00     0.082 A 
HETATM    7  C   LIG     1      28.094  26.773  31.823  1.00  0.00     0.112 A 
HETATM    8  O   LIG     1      27.968  28.153  31.950  1.00  0.00    -0.322 OA
HETATM    9  C   LIG     1      28.495  28.597  33.210  1.00  0.00     0.184 A 
HETATM   10  C   LIG     1      29.685  29.503  32.965  1.00  0.00     0.092 C 
HETATM   11  C   LIG     1      29.976  30.505  33.817  1.00  0.00     0.086 C 
HETATM   12  C   LIG     1      29.135  30.791  34.993  1.00  0.00     0.152 C 
HETATM   13  O   LIG     1      29.458  31.727  35.773  1.00  0.00    -0.293 OA
HETATM   14  C   LIG     1      27.372  29.310  34.019  1.00  0.00     0.039 C 
HETATM   15  C   LIG     1      26.190  28.384  34.349  1.00  0.00     0.014 C 
HETATM   16  C   LIG     1      27.929  29.955  35.301  1.00  0.00     0.091 C 
HETATM   17  C   LIG     1      28.964  27.304  33.838  1.00  0.00     0.207 A 
HETATM   18  O   LIG     1      29.535  27.188  34.955  1.00  0.00    -0.288 OA
ENDROOT
BRANCH  10  19
HETATM   19  O   LIG     1      30.486  29.228  31.841  1.00  0.00    -0.356 OA
HETATM   20  C   LIG     1      30.659  30.098  30.727  1.00  0.00     0.209 C 
ENDBRANCH  10  19
BRANCH   5  21
HETATM   21  O   LIG     1      29.522  24.336  34.186  1.00  0.00    -0.355 OA
HETATM   22  C   LIG     1      28.827  23.638  35.215  1.00  0.00     0.210 C 
ENDBRANCH   5  21
BRANCH   3  23
HETATM   23  O   LIG     1      27.497  23.820  29.701  1.00  0.00    -0.354 OA
HETATM   24  C   LIG     1      28.049  22.550  29.368  1.00  0.00     0.210 C 
ENDBRANCH   3  23
TORSDOF 3
ENDMDL
