REMARK  3 active torsions:
REMARK  status: ('A' for Active; 'I' for Inactive)
REMARK    1  A    between atoms: C_3  and  O_4 
REMARK    2  A    between atoms: C_7  and  O_8 
REMARK    3  A    between atoms: C_14  and  O_15 
ROOT
HETATM    1 CL   LIG     1       1.839   2.824  -2.177  1.00  0.00    -0.078 Cl
HETATM    2  C   LIG     1       1.867   1.369  -1.194  1.00  0.00     0.101 A 
HETATM    3  C   LIG     1       3.084   0.784  -0.787  1.00  0.00     0.095 A 
HETATM    4  C   LIG     1       3.063  -0.395   0.007  1.00  0.00     0.076 A 
HETATM    5  C   LIG     1       1.836  -0.984   0.392  1.00  0.00     0.087 A 
HETATM    6  C   LIG     1       0.663  -0.366  -0.037  1.00  0.00     0.082 A 
HETATM    7  C   LIG     1       0.674   0.767  -0.801  1.00  0.00     0.112 A 
HETATM    8  O   LIG     1      -0.615   1.195  -1.104  1.00  0.00    -0.322 OA
HETATM    9  C   LIG     1      -1.591   0.316  -0.524  1.00  0.00     0.184 A 
HETATM   10  C   LIG     1      -2.408   1.079   0.499  1.00  0.00     0.092 C 
HETATM   11  C   LIG     1      -3.697   0.760   0.730  1.00  0.00     0.086 C 
HETATM   12  C   LIG     1      -4.378  -0.307  -0.024  1.00  0.00     0.152 C 
HETATM   13  O   LIG     1      -5.579  -0.583   0.240  1.00  0.00    -0.293 OA
HETATM   14  C   LIG     1      -2.479  -0.288  -1.651  1.00  0.00     0.039 C 
HETATM   15  C   LIG     1      -1.681  -1.135  -2.655  1.00  0.00     0.014 C 
HETATM   16  C   LIG     1      -3.649  -1.101  -1.067  1.00  0.00     0.091 C 
HETATM   17  C   LIG     1      -0.728  -0.707   0.179  1.00  0.00     0.207 A 
HETATM   18  O   LIG     1      -1.142  -1.679   0.866  1.00  0.00    -0.288 OA
ENDROOT
BRANCH  10  19
HETATM   19  O   LIG     1      -1.756   2.098   1.217  1.00  0.00    -0.356 OA
HETATM   20  C   LIG     1      -2.358   2.904   2.225  1.00  0.00     0.209 C 
ENDBRANCH  10  19
BRANCH   5  21
HETATM   21  O   LIG     1       1.758  -2.146   1.174  1.00  0.00    -0.355 OA
HETATM   22  C   LIG     1       2.888  -2.859   1.665  1.00  0.00     0.210 C 
ENDBRANCH   5  21
BRANCH   3  23
HETATM   23  O   LIG     1       4.285   1.393  -1.186  1.00  0.00    -0.354 OA
HETATM   24  C   LIG     1       5.583   0.913  -0.849  1.00  0.00     0.210 C 
ENDBRANCH   3  23
TORSDOF 3
