REMARK  7 active torsions:
REMARK  status: ('A' for Active; 'I' for Inactive)
REMARK    1  A    between atoms: C_4  and  O_5 
REMARK    2  A    between atoms: C_11  and  O_12 
REMARK    3  A    between atoms: C_15  and  O_16 
REMARK    4  A    between atoms: C_17  and  O_30 
REMARK    5  A    between atoms: C_19  and  C_20 
REMARK       I    between atoms: C_20  and  N_21 
REMARK    6  A    between atoms: C_23  and  O_24 
REMARK    7  A    between atoms: C_25  and  N_26 
ROOT
HETATM    1  O   LIG     1       3.345   0.772   2.514  1.00  0.00    -0.287 OA
HETATM    2  C   LIG     1       2.997   0.565   1.321  1.00  0.00     0.194 C 
HETATM    3  C   LIG     1       4.031   0.395   0.255  1.00  0.00     0.058 A 
HETATM    4  C   LIG     1       5.384   0.791   0.436  1.00  0.00     0.080 A 
HETATM    5  C   LIG     1       6.347   0.420  -0.504  1.00  0.00     0.039 A 
HETATM    6  C   LIG     1       5.992  -0.289  -1.646  1.00  0.00     0.027 A 
HETATM    7  C   LIG     1       4.658  -0.616  -1.887  1.00  0.00     0.044 A 
HETATM    8 CL   LIG     1       4.284  -1.512  -3.357  1.00  0.00    -0.084 Cl
HETATM    9  C   LIG     1       3.659  -0.250  -0.958  1.00  0.00     0.010 A 
HETATM   10  C   LIG     1       2.198  -0.584  -1.236  1.00  0.00     0.162 C 
HETATM   11  C   LIG     1       1.249   0.395  -0.503  1.00  0.00     0.059 C 
HETATM   12  C   LIG     1       1.558   0.386   0.979  1.00  0.00     0.032 C 
HETATM   13  C   LIG     1       0.614   0.149   1.924  1.00  0.00     0.097 C 
HETATM   14  C   LIG     1      -0.846  -0.122   1.566  1.00  0.00     0.177 C 
HETATM   15  C   LIG     1      -1.662   1.158   1.597  1.00  0.00     0.208 C 
HETATM   16  C   LIG     1      -3.019   1.167   1.004  1.00  0.00     0.112 C 
HETATM   17  C   LIG     1      -3.416   0.155   0.201  1.00  0.00     0.096 C 
HETATM   18  C   LIG     1      -2.467  -0.979  -0.220  1.00  0.00     0.286 C 
HETATM   19  O   LIG     1      -1.190   2.207   2.116  1.00  0.00    -0.288 OA
HETATM   20  C   LIG     1      -0.968  -0.725   0.150  1.00  0.00     0.075 C 
HETATM   21  C   LIG     1      -0.234   0.170  -0.870  1.00  0.00     0.023 C 
ENDROOT
BRANCH  16  22
HETATM   22  C   LIG     1      -3.949   2.273   1.340  1.00  0.00     0.255 C 
HETATM   23  N   LIG     1      -3.986   2.824   2.658  1.00  0.00    -0.366 N 
HETATM   24  H   LIG     1      -4.607   3.638   2.868  1.00  0.00     0.159 HD
HETATM   25  H   LIG     1      -3.442   2.396   3.438  1.00  0.00     0.159 HD
HETATM   26  O   LIG     1      -4.720   2.739   0.458  1.00  0.00    -0.268 OA
ENDBRANCH  16  22
BRANCH  17  27
HETATM   27  O   LIG     1      -4.764   0.084  -0.158  1.00  0.00    -0.362 OA
HETATM   28  H   LIG     1      -5.163  -0.730  -0.606  1.00  0.00     0.217 HD
ENDBRANCH  17  27
BRANCH  14  29
HETATM   29  O   LIG     1      -1.376  -1.067   2.473  1.00  0.00    -0.374 OA
HETATM   30  H   LIG     1      -1.709  -0.596   3.281  1.00  0.00     0.211 HD
ENDBRANCH  14  29
BRANCH  18  31
HETATM   31  N   LIG     1      -2.562  -1.377  -1.657  1.00  0.00     0.091 N 
HETATM   32  C   LIG     1      -3.031  -0.345  -2.601  1.00  0.00     0.310 C 
HETATM   33  C   LIG     1      -3.252  -2.658  -1.867  1.00  0.00     0.310 C 
ENDBRANCH  18  31
BRANCH  13  34
HETATM   34  O   LIG     1       0.974   0.186   3.274  1.00  0.00    -0.361 OA
HETATM   35  H   LIG     1       0.305   0.081   4.025  1.00  0.00     0.217 HD
ENDBRANCH  13  34
BRANCH  10  36
HETATM   36  O   LIG     1       1.923  -1.924  -0.911  1.00  0.00    -0.390 OA
HETATM   37  H   LIG     1       2.173  -2.065   0.039  1.00  0.00     0.210 HD
ENDBRANCH  10  36
BRANCH   4  38
HETATM   38  O   LIG     1       5.811   1.576   1.510  1.00  0.00    -0.360 OA
HETATM   39  H   LIG     1       5.188   2.122   2.089  1.00  0.00     0.217 HD
ENDBRANCH   4  38
TORSDOF 7
