MODEL 1
REMARK VINA RESULT:      -4.1      0.000      0.000
REMARK  1 active torsions:
REMARK  status: ('A' for Active; 'I' for Inactive)
REMARK       I    between atoms: N_1  and  C_2 
REMARK       I    between atoms: C_2  and  N_3 
REMARK    1  A    between atoms: N_3  and  O_4 
ROOT
HETATM    1  N   LIG     1      11.951  32.981  27.300  1.00  0.00    -0.350 N 
HETATM    2  C   LIG     1      12.710  31.773  27.274  1.00  0.00     0.337 C 
HETATM    3  N   LIG     1      13.593  31.457  28.354  1.00  0.00    -0.219 N 
HETATM    4  O   LIG     1      12.600  30.985  26.297  1.00  0.00    -0.245 OA
HETATM    5  H   LIG     1      12.032  33.642  28.102  1.00  0.00     0.160 HD
HETATM    6  H   LIG     1      11.305  33.214  26.513  1.00  0.00     0.160 HD
HETATM    7  H   LIG     1      13.674  32.104  29.169  1.00  0.00     0.199 HD
ENDROOT
BRANCH   3   8
HETATM    8  O   LIG     1      14.309  30.307  28.345  1.00  0.00    -0.286 OA
HETATM    9  H   LIG     1      13.641  29.591  28.494  1.00  0.00     0.244 HD
ENDBRANCH   3   8
TORSDOF 1
ENDMDL
MODEL 2
REMARK VINA RESULT:      -3.8      2.000      2.785
REMARK  1 active torsions:
REMARK  status: ('A' for Active; 'I' for Inactive)
REMARK       I    between atoms: N_1  and  C_2 
REMARK       I    between atoms: C_2  and  N_3 
REMARK    1  A    between atoms: N_3  and  O_4 
ROOT
HETATM    1  N   LIG     1      13.381  30.348  28.234  1.00  0.00    -0.350 N 
HETATM    2  C   LIG     1      12.970  31.173  27.145  1.00  0.00     0.337 C 
HETATM    3  N   LIG     1      12.672  30.589  25.874  1.00  0.00    -0.219 N 
HETATM    4  O   LIG     1      12.869  32.418  27.306  1.00  0.00    -0.245 OA
HETATM    5  H   LIG     1      13.468  29.315  28.114  1.00  0.00     0.160 HD
HETATM    6  H   LIG     1      13.599  30.771  29.163  1.00  0.00     0.160 HD
HETATM    7  H   LIG     1      12.743  29.555  25.744  1.00  0.00     0.199 HD
ENDROOT
BRANCH   3   8
HETATM    8  O   LIG     1      12.269  31.362  24.837  1.00  0.00    -0.286 OA
HETATM    9  H   LIG     1      12.748  31.001  24.049  1.00  0.00     0.244 HD
ENDBRANCH   3   8
TORSDOF 1
ENDMDL
MODEL 3
REMARK VINA RESULT:      -3.7      7.689      8.034
REMARK  1 active torsions:
REMARK  status: ('A' for Active; 'I' for Inactive)
REMARK       I    between atoms: N_1  and  C_2 
REMARK       I    between atoms: C_2  and  N_3 
REMARK    1  A    between atoms: N_3  and  O_4 
ROOT
HETATM    1  N   LIG     1      18.802  37.321  26.125  1.00  0.00    -0.350 N 
HETATM    2  C   LIG     1      17.655  37.125  25.299  1.00  0.00     0.337 C 
HETATM    3  N   LIG     1      16.875  38.245  24.874  1.00  0.00    -0.219 N 
HETATM    4  O   LIG     1      17.332  35.960  24.944  1.00  0.00    -0.245 OA
HETATM    5  H   LIG     1      19.080  38.280  26.426  1.00  0.00     0.160 HD
HETATM    6  H   LIG     1      19.373  36.505  26.436  1.00  0.00     0.160 HD
HETATM    7  H   LIG     1      17.151  39.211  25.158  1.00  0.00     0.199 HD
ENDROOT
BRANCH   3   8
HETATM    8  O   LIG     1      15.792  38.071  24.079  1.00  0.00    -0.286 OA
HETATM    9  H   LIG     1      15.851  37.131  23.773  1.00  0.00     0.244 HD
ENDBRANCH   3   8
TORSDOF 1
ENDMDL
MODEL 4
REMARK VINA RESULT:      -3.6      7.952      8.091
REMARK  1 active torsions:
REMARK  status: ('A' for Active; 'I' for Inactive)
REMARK       I    between atoms: N_1  and  C_2 
REMARK       I    between atoms: C_2  and  N_3 
REMARK    1  A    between atoms: N_3  and  O_4 
ROOT
HETATM    1  N   LIG     1      15.326  38.132  23.178  1.00  0.00    -0.350 N 
HETATM    2  C   LIG     1      16.485  37.669  23.870  1.00  0.00     0.337 C 
HETATM    3  N   LIG     1      17.031  38.434  24.946  1.00  0.00    -0.219 N 
HETATM    4  O   LIG     1      17.025  36.583  23.529  1.00  0.00    -0.245 OA
HETATM    5  H   LIG     1      14.868  39.029  23.450  1.00  0.00     0.160 HD
HETATM    6  H   LIG     1      14.924  37.575  22.391  1.00  0.00     0.160 HD
HETATM    7  H   LIG     1      16.576  39.328  25.237  1.00  0.00     0.199 HD
ENDROOT
BRANCH   3   8
HETATM    8  O   LIG     1      18.124  37.998  25.618  1.00  0.00    -0.286 OA
HETATM    9  H   LIG     1      18.807  38.701  25.478  1.00  0.00     0.244 HD
ENDBRANCH   3   8
TORSDOF 1
ENDMDL
MODEL 5
REMARK VINA RESULT:      -3.5      9.559      9.802
REMARK  1 active torsions:
REMARK  status: ('A' for Active; 'I' for Inactive)
REMARK       I    between atoms: N_1  and  C_2 
REMARK       I    between atoms: C_2  and  N_3 
REMARK    1  A    between atoms: N_3  and  O_4 
ROOT
HETATM    1  N   LIG     1      15.397  33.784  19.100  1.00  0.00    -0.350 N 
HETATM    2  C   LIG     1      15.093  32.731  18.185  1.00  0.00     0.337 C 
HETATM    3  N   LIG     1      14.007  31.840  18.451  1.00  0.00    -0.219 N 
HETATM    4  O   LIG     1      15.784  32.590  17.141  1.00  0.00    -0.245 OA
HETATM    5  H   LIG     1      14.832  33.911  19.968  1.00  0.00     0.160 HD
HETATM    6  H   LIG     1      16.189  34.436  18.908  1.00  0.00     0.160 HD
HETATM    7  H   LIG     1      13.426  31.965  19.310  1.00  0.00     0.199 HD
ENDROOT
BRANCH   3   8
HETATM    8  O   LIG     1      13.702  30.846  17.583  1.00  0.00    -0.286 OA
HETATM    9  H   LIG     1      12.828  31.106  17.195  1.00  0.00     0.244 HD
ENDBRANCH   3   8
TORSDOF 1
ENDMDL
MODEL 6
REMARK VINA RESULT:      -3.5      7.487      7.646
REMARK  1 active torsions:
REMARK  status: ('A' for Active; 'I' for Inactive)
REMARK       I    between atoms: N_1  and  C_2 
REMARK       I    between atoms: C_2  and  N_3 
REMARK    1  A    between atoms: N_3  and  O_4 
ROOT
HETATM    1  N   LIG     1      17.312  38.647  25.710  1.00  0.00    -0.350 N 
HETATM    2  C   LIG     1      16.860  37.657  24.787  1.00  0.00     0.337 C 
HETATM    3  N   LIG     1      17.516  36.388  24.716  1.00  0.00    -0.219 N 
HETATM    4  O   LIG     1      15.879  37.903  24.035  1.00  0.00    -0.245 OA
HETATM    5  H   LIG     1      18.122  38.456  26.338  1.00  0.00     0.160 HD
HETATM    6  H   LIG     1      16.835  39.574  25.764  1.00  0.00     0.160 HD
HETATM    7  H   LIG     1      18.320  36.180  25.348  1.00  0.00     0.199 HD
ENDROOT
BRANCH   3   8
HETATM    8  O   LIG     1      17.086  35.437  23.853  1.00  0.00    -0.286 OA
HETATM    9  H   LIG     1      17.636  35.565  23.039  1.00  0.00     0.244 HD
ENDBRANCH   3   8
TORSDOF 1
ENDMDL
MODEL 7
REMARK VINA RESULT:      -3.4     10.276     10.686
REMARK  1 active torsions:
REMARK  status: ('A' for Active; 'I' for Inactive)
REMARK       I    between atoms: N_1  and  C_2 
REMARK       I    between atoms: C_2  and  N_3 
REMARK    1  A    between atoms: N_3  and  O_4 
ROOT
HETATM    1  N   LIG     1      14.155  31.959  18.613  1.00  0.00    -0.350 N 
HETATM    2  C   LIG     1      14.717  32.621  17.481  1.00  0.00     0.337 C 
HETATM    3  N   LIG     1      15.176  33.970  17.593  1.00  0.00    -0.219 N 
HETATM    4  O   LIG     1      14.810  32.012  16.382  1.00  0.00    -0.245 OA
HETATM    5  H   LIG     1      14.073  32.451  19.529  1.00  0.00     0.160 HD
HETATM    6  H   LIG     1      13.819  30.973  18.535  1.00  0.00     0.160 HD
HETATM    7  H   LIG     1      15.111  34.470  18.507  1.00  0.00     0.199 HD
ENDROOT
BRANCH   3   8
HETATM    8  O   LIG     1      15.724  34.603  16.528  1.00  0.00    -0.286 OA
HETATM    9  H   LIG     1      16.609  34.914  16.845  1.00  0.00     0.244 HD
ENDBRANCH   3   8
TORSDOF 1
ENDMDL
MODEL 8
REMARK VINA RESULT:      -3.4      7.517      8.008
REMARK  1 active torsions:
REMARK  status: ('A' for Active; 'I' for Inactive)
REMARK       I    between atoms: N_1  and  C_2 
REMARK       I    between atoms: C_2  and  N_3 
REMARK    1  A    between atoms: N_3  and  O_4 
ROOT
HETATM    1  N   LIG     1      15.690  32.451  18.458  1.00  0.00    -0.350 N 
HETATM    2  C   LIG     1      14.960  32.350  19.680  1.00  0.00     0.337 C 
HETATM    3  N   LIG     1      14.731  33.514  20.479  1.00  0.00    -0.219 N 
HETATM    4  O   LIG     1      14.517  31.231  20.054  1.00  0.00    -0.245 OA
HETATM    5  H   LIG     1      16.062  33.371  18.138  1.00  0.00     0.160 HD
HETATM    6  H   LIG     1      15.858  31.603  17.873  1.00  0.00     0.160 HD
HETATM    7  H   LIG     1      15.088  34.443  20.163  1.00  0.00     0.199 HD
ENDROOT
BRANCH   3   8
HETATM    8  O   LIG     1      14.029  33.430  21.634  1.00  0.00    -0.286 OA
HETATM    9  H   LIG     1      13.618  32.529  21.617  1.00  0.00     0.244 HD
ENDBRANCH   3   8
TORSDOF 1
ENDMDL
MODEL 9
REMARK VINA RESULT:      -3.3      8.718      9.386
REMARK  1 active torsions:
REMARK  status: ('A' for Active; 'I' for Inactive)
REMARK       I    between atoms: N_1  and  C_2 
REMARK       I    between atoms: C_2  and  N_3 
REMARK    1  A    between atoms: N_3  and  O_4 
ROOT
HETATM    1  N   LIG     1      14.750  31.005  20.108  1.00  0.00    -0.350 N 
HETATM    2  C   LIG     1      14.761  31.994  19.080  1.00  0.00     0.337 C 
HETATM    3  N   LIG     1      13.777  31.964  18.043  1.00  0.00    -0.219 N 
HETATM    4  O   LIG     1      15.641  32.896  19.089  1.00  0.00    -0.245 OA
HETATM    5  H   LIG     1      14.027  30.253  20.113  1.00  0.00     0.160 HD
HETATM    6  H   LIG     1      15.467  31.025  20.867  1.00  0.00     0.160 HD
HETATM    7  H   LIG     1      13.041  31.224  18.043  1.00  0.00     0.199 HD
ENDROOT
BRANCH   3   8
HETATM    8  O   LIG     1      13.771  32.906  17.070  1.00  0.00    -0.286 OA
HETATM    9  H   LIG     1      14.547  32.683  16.495  1.00  0.00     0.244 HD
ENDBRANCH   3   8
TORSDOF 1
ENDMDL
MODEL 10
REMARK VINA RESULT:      -3.3      7.221      7.359
REMARK  1 active torsions:
REMARK  status: ('A' for Active; 'I' for Inactive)
REMARK       I    between atoms: N_1  and  C_2 
REMARK       I    between atoms: C_2  and  N_3 
REMARK    1  A    between atoms: N_3  and  O_4 
ROOT
HETATM    1  N   LIG     1      18.300  38.005  25.058  1.00  0.00    -0.350 N 
HETATM    2  C   LIG     1      18.125  36.848  25.875  1.00  0.00     0.337 C 
HETATM    3  N   LIG     1      17.157  35.857  25.520  1.00  0.00    -0.219 N 
HETATM    4  O   LIG     1      18.828  36.702  26.911  1.00  0.00    -0.245 OA
HETATM    5  H   LIG     1      17.725  38.138  24.198  1.00  0.00     0.160 HD
HETATM    6  H   LIG     1      19.005  38.730  25.314  1.00  0.00     0.160 HD
HETATM    7  H   LIG     1      16.585  35.972  24.655  1.00  0.00     0.199 HD
ENDROOT
BRANCH   3   8
HETATM    8  O   LIG     1      16.993  34.749  26.282  1.00  0.00    -0.286 OA
HETATM    9  H   LIG     1      16.054  34.792  26.593  1.00  0.00     0.244 HD
ENDBRANCH   3   8
TORSDOF 1
ENDMDL
MODEL 11
REMARK VINA RESULT:      -3.3      7.309      7.590
REMARK  1 active torsions:
REMARK  status: ('A' for Active; 'I' for Inactive)
REMARK       I    between atoms: N_1  and  C_2 
REMARK       I    between atoms: C_2  and  N_3 
REMARK    1  A    between atoms: N_3  and  O_4 
ROOT
HETATM    1  N   LIG     1      17.452  34.841  25.694  1.00  0.00    -0.350 N 
HETATM    2  C   LIG     1      17.779  36.176  26.077  1.00  0.00     0.337 C 
HETATM    3  N   LIG     1      17.140  37.284  25.439  1.00  0.00    -0.219 N 
HETATM    4  O   LIG     1      18.634  36.376  26.982  1.00  0.00    -0.245 OA
HETATM    5  H   LIG     1      16.747  34.661  24.947  1.00  0.00     0.160 HD
HETATM    6  H   LIG     1      17.917  34.030  26.159  1.00  0.00     0.160 HD
HETATM    7  H   LIG     1      16.423  37.117  24.698  1.00  0.00     0.199 HD
ENDROOT
BRANCH   3   8
HETATM    8  O   LIG     1      17.434  38.554  25.804  1.00  0.00    -0.286 OA
HETATM    9  H   LIG     1      16.767  38.779  26.501  1.00  0.00     0.244 HD
ENDBRANCH   3   8
TORSDOF 1
ENDMDL
MODEL 12
REMARK VINA RESULT:      -3.3      9.514      9.937
REMARK  1 active torsions:
REMARK  status: ('A' for Active; 'I' for Inactive)
REMARK       I    between atoms: N_1  and  C_2 
REMARK       I    between atoms: C_2  and  N_3 
REMARK    1  A    between atoms: N_3  and  O_4 
ROOT
HETATM    1  N   LIG     1      18.664  39.499  21.937  1.00  0.00    -0.350 N 
HETATM    2  C   LIG     1      17.509  38.676  22.095  1.00  0.00     0.337 C 
HETATM    3  N   LIG     1      16.412  39.124  22.894  1.00  0.00    -0.219 N 
HETATM    4  O   LIG     1      17.459  37.552  21.527  1.00  0.00    -0.245 OA
HETATM    5  H   LIG     1      18.719  40.431  22.402  1.00  0.00     0.160 HD
HETATM    6  H   LIG     1      19.467  39.174  21.354  1.00  0.00     0.160 HD
HETATM    7  H   LIG     1      16.448  40.060  23.354  1.00  0.00     0.199 HD
ENDROOT
BRANCH   3   8
HETATM    8  O   LIG     1      15.305  38.356  23.040  1.00  0.00    -0.286 OA
HETATM    9  H   LIG     1      14.983  38.546  23.957  1.00  0.00     0.244 HD
ENDBRANCH   3   8
TORSDOF 1
ENDMDL
MODEL 13
REMARK VINA RESULT:      -3.3      8.749      8.875
REMARK  1 active torsions:
REMARK  status: ('A' for Active; 'I' for Inactive)
REMARK       I    between atoms: N_1  and  C_2 
REMARK       I    between atoms: C_2  and  N_3 
REMARK    1  A    between atoms: N_3  and  O_4 
ROOT
HETATM    1  N   LIG     1      14.438  31.474  19.748  1.00  0.00    -0.350 N 
HETATM    2  C   LIG     1      15.153  32.598  19.237  1.00  0.00     0.337 C 
HETATM    3  N   LIG     1      15.318  33.769  20.041  1.00  0.00    -0.219 N 
HETATM    4  O   LIG     1      15.639  32.556  18.076  1.00  0.00    -0.245 OA
HETATM    5  H   LIG     1      14.031  31.495  20.707  1.00  0.00     0.160 HD
HETATM    6  H   LIG     1      14.316  30.617  19.163  1.00  0.00     0.160 HD
HETATM    7  H   LIG     1      14.927  33.799  21.008  1.00  0.00     0.199 HD
ENDROOT
BRANCH   3   8
HETATM    8  O   LIG     1      16.006  34.837  19.571  1.00  0.00    -0.286 OA
HETATM    9  H   LIG     1      15.473  35.625  19.847  1.00  0.00     0.244 HD
ENDBRANCH   3   8
TORSDOF 1
ENDMDL
MODEL 14
REMARK VINA RESULT:      -3.2      7.496      7.990
REMARK  1 active torsions:
REMARK  status: ('A' for Active; 'I' for Inactive)
REMARK       I    between atoms: N_1  and  C_2 
REMARK       I    between atoms: C_2  and  N_3 
REMARK    1  A    between atoms: N_3  and  O_4 
ROOT
HETATM    1  N   LIG     1      17.051  35.469  20.536  1.00  0.00    -0.350 N 
HETATM    2  C   LIG     1      15.917  34.604  20.520  1.00  0.00     0.337 C 
HETATM    3  N   LIG     1      15.051  34.534  21.655  1.00  0.00    -0.219 N 
HETATM    4  O   LIG     1      15.680  33.901  19.501  1.00  0.00    -0.245 OA
HETATM    5  H   LIG     1      17.259  36.056  21.373  1.00  0.00     0.160 HD
HETATM    6  H   LIG     1      17.685  35.523  19.708  1.00  0.00     0.160 HD
HETATM    7  H   LIG     1      15.240  35.125  22.494  1.00  0.00     0.199 HD
ENDROOT
BRANCH   3   8
HETATM    8  O   LIG     1      13.964  33.725  21.645  1.00  0.00    -0.286 OA
HETATM    9  H   LIG     1      13.723  33.611  22.599  1.00  0.00     0.244 HD
ENDBRANCH   3   8
TORSDOF 1
ENDMDL
MODEL 15
REMARK VINA RESULT:      -3.2      8.993      9.438
REMARK  1 active torsions:
REMARK  status: ('A' for Active; 'I' for Inactive)
REMARK       I    between atoms: N_1  and  C_2 
REMARK       I    between atoms: C_2  and  N_3 
REMARK    1  A    between atoms: N_3  and  O_4 
ROOT
HETATM    1  N   LIG     1      14.947  32.547  16.660  1.00  0.00    -0.350 N 
HETATM    2  C   LIG     1      14.930  32.641  18.083  1.00  0.00     0.337 C 
HETATM    3  N   LIG     1      14.165  31.713  18.856  1.00  0.00    -0.219 N 
HETATM    4  O   LIG     1      15.594  33.545  18.658  1.00  0.00    -0.245 OA
HETATM    5  H   LIG     1      14.402  31.803  16.171  1.00  0.00     0.160 HD
HETATM    6  H   LIG     1      15.505  33.223  16.093  1.00  0.00     0.160 HD
HETATM    7  H   LIG     1      13.626  30.957  18.380  1.00  0.00     0.199 HD
ENDROOT
BRANCH   3   8
HETATM    8  O   LIG     1      14.153  31.786  20.208  1.00  0.00    -0.286 OA
HETATM    9  H   LIG     1      14.770  31.070  20.507  1.00  0.00     0.244 HD
ENDBRANCH   3   8
TORSDOF 1
ENDMDL
MODEL 16
REMARK VINA RESULT:      -3.2      9.996     10.491
REMARK  1 active torsions:
REMARK  status: ('A' for Active; 'I' for Inactive)
REMARK       I    between atoms: N_1  and  C_2 
REMARK       I    between atoms: C_2  and  N_3 
REMARK    1  A    between atoms: N_3  and  O_4 
ROOT
HETATM    1  N   LIG     1      12.609  30.445  16.554  1.00  0.00    -0.350 N 
HETATM    2  C   LIG     1      13.684  31.331  16.863  1.00  0.00     0.337 C 
HETATM    3  N   LIG     1      13.773  31.927  18.160  1.00  0.00    -0.219 N 
HETATM    4  O   LIG     1      14.555  31.587  15.990  1.00  0.00    -0.245 OA
HETATM    5  H   LIG     1      11.881  30.225  17.267  1.00  0.00     0.160 HD
HETATM    6  H   LIG     1      12.541  30.008  15.608  1.00  0.00     0.160 HD
HETATM    7  H   LIG     1      13.058  31.706  18.887  1.00  0.00     0.199 HD
ENDROOT
BRANCH   3   8
HETATM    8  O   LIG     1      14.796  32.760  18.467  1.00  0.00    -0.286 OA
HETATM    9  H   LIG     1      15.449  32.642  17.732  1.00  0.00     0.244 HD
ENDBRANCH   3   8
TORSDOF 1
ENDMDL
MODEL 17
REMARK VINA RESULT:      -3.2     11.702     11.994
REMARK  1 active torsions:
REMARK  status: ('A' for Active; 'I' for Inactive)
REMARK       I    between atoms: N_1  and  C_2 
REMARK       I    between atoms: C_2  and  N_3 
REMARK    1  A    between atoms: N_3  and  O_4 
ROOT
HETATM    1  N   LIG     1      18.867  39.765  21.460  1.00  0.00    -0.350 N 
HETATM    2  C   LIG     1      19.315  38.907  20.412  1.00  0.00     0.337 C 
HETATM    3  N   LIG     1      18.745  37.605  20.256  1.00  0.00    -0.219 N 
HETATM    4  O   LIG     1      20.214  39.301  19.622  1.00  0.00    -0.245 OA
HETATM    5  H   LIG     1      18.123  39.452  22.120  1.00  0.00     0.160 HD
HETATM    6  H   LIG     1      19.280  40.717  21.576  1.00  0.00     0.160 HD
HETATM    7  H   LIG     1      17.991  37.284  20.903  1.00  0.00     0.199 HD
ENDROOT
BRANCH   3   8
HETATM    8  O   LIG     1      19.155  36.788  19.256  1.00  0.00    -0.286 OA
HETATM    9  H   LIG     1      18.415  36.803  18.597  1.00  0.00     0.244 HD
ENDBRANCH   3   8
TORSDOF 1
ENDMDL
MODEL 18
REMARK VINA RESULT:      -3.2     10.315     10.776
REMARK  1 active torsions:
REMARK  status: ('A' for Active; 'I' for Inactive)
REMARK       I    between atoms: N_1  and  C_2 
REMARK       I    between atoms: C_2  and  N_3 
REMARK    1  A    between atoms: N_3  and  O_4 
ROOT
HETATM    1  N   LIG     1      14.849  32.413  16.327  1.00  0.00    -0.350 N 
HETATM    2  C   LIG     1      15.179  33.634  16.988  1.00  0.00     0.337 C 
HETATM    3  N   LIG     1      15.230  33.687  18.416  1.00  0.00    -0.219 N 
HETATM    4  O   LIG     1      15.426  34.666  16.308  1.00  0.00    -0.245 OA
HETATM    5  H   LIG     1      14.642  31.552  16.878  1.00  0.00     0.160 HD
HETATM    6  H   LIG     1      14.811  32.371  15.285  1.00  0.00     0.160 HD
HETATM    7  H   LIG     1      15.038  32.829  18.978  1.00  0.00     0.199 HD
ENDROOT
BRANCH   3   8
HETATM    8  O   LIG     1      15.555  34.839  19.052  1.00  0.00    -0.286 OA
HETATM    9  H   LIG     1      16.502  34.723  19.318  1.00  0.00     0.244 HD
ENDBRANCH   3   8
TORSDOF 1
ENDMDL
MODEL 19
REMARK VINA RESULT:      -3.2      7.685      7.903
REMARK  1 active torsions:
REMARK  status: ('A' for Active; 'I' for Inactive)
REMARK       I    between atoms: N_1  and  C_2 
REMARK       I    between atoms: C_2  and  N_3 
REMARK    1  A    between atoms: N_3  and  O_4 
ROOT
HETATM    1  N   LIG     1      16.141  34.894  20.004  1.00  0.00    -0.350 N 
HETATM    2  C   LIG     1      15.245  33.908  20.514  1.00  0.00     0.337 C 
HETATM    3  N   LIG     1      14.963  32.731  19.754  1.00  0.00    -0.219 N 
HETATM    4  O   LIG     1      14.702  34.078  21.639  1.00  0.00    -0.245 OA
HETATM    5  H   LIG     1      16.597  34.766  19.075  1.00  0.00     0.160 HD
HETATM    6  H   LIG     1      16.348  35.755  20.557  1.00  0.00     0.160 HD
HETATM    7  H   LIG     1      15.423  32.584  18.828  1.00  0.00     0.199 HD
ENDROOT
BRANCH   3   8
HETATM    8  O   LIG     1      14.124  31.782  20.235  1.00  0.00    -0.286 OA
HETATM    9  H   LIG     1      13.302  31.870  19.690  1.00  0.00     0.244 HD
ENDBRANCH   3   8
TORSDOF 1
ENDMDL
MODEL 20
REMARK VINA RESULT:      -3.1     10.438     10.746
REMARK  1 active torsions:
REMARK  status: ('A' for Active; 'I' for Inactive)
REMARK       I    between atoms: N_1  and  C_2 
REMARK       I    between atoms: C_2  and  N_3 
REMARK    1  A    between atoms: N_3  and  O_4 
ROOT
HETATM    1  N   LIG     1      16.700  39.204  23.027  1.00  0.00    -0.350 N 
HETATM    2  C   LIG     1      17.672  38.805  22.061  1.00  0.00     0.337 C 
HETATM    3  N   LIG     1      18.772  39.664  21.751  1.00  0.00    -0.219 N 
HETATM    4  O   LIG     1      17.558  37.691  21.482  1.00  0.00    -0.245 OA
HETATM    5  H   LIG     1      16.783  40.123  23.513  1.00  0.00     0.160 HD
HETATM    6  H   LIG     1      15.896  38.579  23.255  1.00  0.00     0.160 HD
HETATM    7  H   LIG     1      18.873  40.581  22.240  1.00  0.00     0.199 HD
ENDROOT
BRANCH   3   8
HETATM    8  O   LIG     1      19.707  39.289  20.845  1.00  0.00    -0.286 OA
HETATM    9  H   LIG     1      20.575  39.469  21.287  1.00  0.00     0.244 HD
ENDBRANCH   3   8
TORSDOF 1
ENDMDL
