REMARK  5 active torsions:
REMARK  status: ('A' for Active; 'I' for Inactive)
REMARK    1  A    between atoms: C_13  and  O_14 
REMARK    2  A    between atoms: C_21  and  C_23 
REMARK    3  A    between atoms: C_21  and  O_22 
REMARK    4  A    between atoms: C_23  and  C_24 
REMARK    5  A    between atoms: C_24  and  O_25 
ROOT
HETATM    1  O   LIG     1       5.439  -2.698  -1.102  1.00  0.00    -0.293 OA
HETATM    2  C   LIG     1       4.523  -1.863  -0.882  1.00  0.00     0.149 C 
HETATM    3  C   LIG     1       4.069  -0.958  -1.988  1.00  0.00     0.084 C 
HETATM    4  C   LIG     1       2.679  -0.370  -1.700  1.00  0.00     0.025 C 
HETATM    5  C   LIG     1       2.537   0.197  -0.252  1.00  0.00     0.019 C 
HETATM    6  C   LIG     1       3.478   1.422  -0.102  1.00  0.00     0.023 C 
HETATM    7  C   LIG     1       2.985  -0.874   0.764  1.00  0.00    -0.065 C 
HETATM    8  C   LIG     1       2.264  -0.970   2.102  1.00  0.00     0.036 C 
HETATM    9  C   LIG     1       0.732  -1.142   1.932  1.00  0.00     0.013 C 
HETATM   10  C   LIG     1       0.245  -0.661   0.546  1.00  0.00     0.034 C 
HETATM   11  C   LIG     1       1.039   0.613   0.089  1.00  0.00     0.144 C 
HETATM   12  F   LIG     1       1.119   1.491   1.159  1.00  0.00    -0.239 F 
HETATM   13  C   LIG     1       0.248   1.394  -1.012  1.00  0.00     0.160 C 
HETATM   14  C   LIG     1      -1.134   1.897  -0.472  1.00  0.00     0.048 C 
HETATM   15  C   LIG     1      -1.873   0.897   0.501  1.00  0.00     0.001 C 
HETATM   16  C   LIG     1      -1.754   1.413   1.978  1.00  0.00     0.019 C 
HETATM   17  C   LIG     1      -1.288  -0.513   0.345  1.00  0.00     0.005 C 
HETATM   18  C   LIG     1      -2.260  -1.454   1.046  1.00  0.00     0.009 C 
HETATM   19  C   LIG     1      -3.636  -0.774   0.881  1.00  0.00     0.047 C 
HETATM   20  C   LIG     1      -3.399   0.614   0.209  1.00  0.00     0.128 C 
HETATM   21  C   LIG     1       3.927  -1.782   0.460  1.00  0.00     0.053 C 
ENDROOT
BRANCH  20  22
HETATM   22  C   LIG     1      -3.769   0.588  -1.291  1.00  0.00     0.184 C 
HETATM   23  O   LIG     1      -4.236   1.601  -1.794  1.00  0.00    -0.292 OA
BRANCH  22  24
HETATM   24  C   LIG     1      -3.626  -0.618  -2.195  1.00  0.00     0.245 C 
BRANCH  24  25
HETATM   25  O   LIG     1      -2.715  -0.346  -3.225  1.00  0.00    -0.393 OA
HETATM   26  H   LIG     1      -3.194   0.211  -3.893  1.00  0.00     0.209 HD
ENDBRANCH  24  25
ENDBRANCH  22  24
ENDBRANCH  20  22
BRANCH  20  27
HETATM   27  O   LIG     1      -4.232   1.556   0.851  1.00  0.00    -0.381 OA
HETATM   28  H   LIG     1      -3.964   2.459   0.539  1.00  0.00     0.211 HD
ENDBRANCH  20  27
BRANCH  13  29
HETATM   29  O   LIG     1       0.040   0.591  -2.147  1.00  0.00    -0.392 OA
HETATM   30  H   LIG     1      -0.176   1.202  -2.898  1.00  0.00     0.210 HD
ENDBRANCH  13  29
TORSDOF 5
