REMARK  0 active torsions:
REMARK  status: ('A' for Active; 'I' for Inactive)
REMARK       I    between atoms: C_2  and  N_3 
ROOT
HETATM    1  C   LIG     1       1.976  -0.249  -0.517  1.00  0.00     0.117 C 
HETATM    2  C   LIG     1       0.955   0.140   0.509  1.00  0.00     0.215 C 
HETATM    3  N   LIG     1      -0.460   0.093   0.222  1.00  0.00    -0.361 N 
HETATM    4  C   LIG     1      -0.940  -0.342  -1.094  1.00  0.00     0.152 C 
HETATM    5  C   LIG     1      -1.414   0.485   1.264  1.00  0.00     0.152 C 
HETATM    6  O   LIG     1       1.353   0.516   1.646  1.00  0.00    -0.274 OA
ENDROOT
TORSDOF 0
