MODEL 1
REMARK VINA RESULT:      -5.1      0.000      0.000
REMARK  5 active torsions:
REMARK  status: ('A' for Active; 'I' for Inactive)
REMARK    1  A    between atoms: C_13  and  O_14 
REMARK    2  A    between atoms: C_21  and  C_23 
REMARK    3  A    between atoms: C_21  and  O_22 
REMARK    4  A    between atoms: C_23  and  C_24 
REMARK    5  A    between atoms: C_24  and  O_25 
ROOT
HETATM    1  O   LIG     1      22.149  18.248  14.735  1.00  0.00    -0.293 OA
HETATM    2  C   LIG     1      22.978  18.666  15.585  1.00  0.00     0.149 C 
HETATM    3  C   LIG     1      24.438  18.378  15.394  1.00  0.00     0.084 C 
HETATM    4  C   LIG     1      25.313  19.333  16.221  1.00  0.00     0.025 C 
HETATM    5  C   LIG     1      24.834  19.485  17.699  1.00  0.00     0.019 C 
HETATM    6  C   LIG     1      25.013  18.124  18.423  1.00  0.00     0.023 C 
HETATM    7  C   LIG     1      23.333  19.839  17.718  1.00  0.00    -0.065 C 
HETATM    8  C   LIG     1      22.810  20.781  18.795  1.00  0.00     0.036 C 
HETATM    9  C   LIG     1      23.578  22.128  18.820  1.00  0.00     0.013 C 
HETATM   10  C   LIG     1      24.969  22.014  18.156  1.00  0.00     0.034 C 
HETATM   11  C   LIG     1      25.626  20.626  18.476  1.00  0.00     0.144 C 
HETATM   12  F   LIG     1      25.458  20.358  19.826  1.00  0.00    -0.239 F 
HETATM   13  C   LIG     1      27.176  20.685  18.269  1.00  0.00     0.160 C 
HETATM   14  C   LIG     1      27.840  21.727  19.232  1.00  0.00     0.048 C 
HETATM   15  C   LIG     1      27.003  23.045  19.466  1.00  0.00     0.001 C 
HETATM   16  C   LIG     1      26.344  23.007  20.890  1.00  0.00     0.019 C 
HETATM   17  C   LIG     1      25.951  23.200  18.360  1.00  0.00     0.005 C 
HETATM   18  C   LIG     1      25.434  24.630  18.464  1.00  0.00     0.009 C 
HETATM   19  C   LIG     1      26.638  25.432  19.003  1.00  0.00     0.047 C 
HETATM   20  C   LIG     1      27.776  24.416  19.328  1.00  0.00     0.128 C 
HETATM   21  C   LIG     1      22.498  19.417  16.754  1.00  0.00     0.053 C 
ENDROOT
BRANCH  20  22
HETATM   22  C   LIG     1      28.872  24.425  18.238  1.00  0.00     0.184 C 
HETATM   23  O   LIG     1      30.037  24.276  18.582  1.00  0.00    -0.292 OA
BRANCH  22  24
HETATM   24  C   LIG     1      28.619  24.635  16.761  1.00  0.00     0.245 C 
BRANCH  24  25
HETATM   25  O   LIG     1      28.810  23.436  16.061  1.00  0.00    -0.393 OA
HETATM   26  H   LIG     1      28.080  22.822  16.338  1.00  0.00     0.209 HD
ENDBRANCH  24  25
ENDBRANCH  22  24
ENDBRANCH  20  22
BRANCH  20  27
HETATM   27  O   LIG     1      28.368  24.801  20.550  1.00  0.00    -0.381 OA
HETATM   28  H   LIG     1      27.643  25.108  21.154  1.00  0.00     0.211 HD
ENDBRANCH  20  27
BRANCH  13  29
HETATM   29  O   LIG     1      27.494  21.011  16.939  1.00  0.00    -0.392 OA
HETATM   30  H   LIG     1      28.418  20.689  16.776  1.00  0.00     0.210 HD
ENDBRANCH  13  29
TORSDOF 5
ENDMDL
MODEL 2
REMARK VINA RESULT:      -4.9      4.068      7.124
REMARK  5 active torsions:
REMARK  status: ('A' for Active; 'I' for Inactive)
REMARK    1  A    between atoms: C_13  and  O_14 
REMARK    2  A    between atoms: C_21  and  C_23 
REMARK    3  A    between atoms: C_21  and  O_22 
REMARK    4  A    between atoms: C_23  and  C_24 
REMARK    5  A    between atoms: C_24  and  O_25 
ROOT
HETATM    1  O   LIG     1      27.430  19.922  27.753  1.00  0.00    -0.293 OA
HETATM    2  C   LIG     1      26.942  20.550  26.778  1.00  0.00     0.149 C 
HETATM    3  C   LIG     1      27.852  21.303  25.854  1.00  0.00     0.084 C 
HETATM    4  C   LIG     1      27.174  21.592  24.506  1.00  0.00     0.025 C 
HETATM    5  C   LIG     1      25.728  22.162  24.652  1.00  0.00     0.019 C 
HETATM    6  C   LIG     1      25.808  23.562  25.316  1.00  0.00     0.023 C 
HETATM    7  C   LIG     1      24.907  21.242  25.580  1.00  0.00    -0.065 C 
HETATM    8  C   LIG     1      23.425  21.038  25.294  1.00  0.00     0.036 C 
HETATM    9  C   LIG     1      23.170  20.540  23.848  1.00  0.00     0.013 C 
HETATM   10  C   LIG     1      24.353  20.863  22.906  1.00  0.00     0.034 C 
HETATM   11  C   LIG     1      24.974  22.261  23.254  1.00  0.00     0.144 C 
HETATM   12  F   LIG     1      23.943  23.170  23.438  1.00  0.00    -0.239 F 
HETATM   13  C   LIG     1      25.791  22.822  22.043  1.00  0.00     0.160 C 
HETATM   14  C   LIG     1      24.875  23.037  20.790  1.00  0.00     0.048 C 
HETATM   15  C   LIG     1      23.765  21.934  20.578  1.00  0.00     0.001 C 
HETATM   16  C   LIG     1      22.365  22.510  20.988  1.00  0.00     0.019 C 
HETATM   17  C   LIG     1      24.118  20.676  21.383  1.00  0.00     0.005 C 
HETATM   18  C   LIG     1      23.203  19.573  20.865  1.00  0.00     0.009 C 
HETATM   19  C   LIG     1      22.961  19.940  19.385  1.00  0.00     0.047 C 
HETATM   20  C   LIG     1      23.632  21.325  19.127  1.00  0.00     0.128 C 
HETATM   21  C   LIG     1      25.485  20.546  26.572  1.00  0.00     0.053 C 
ENDROOT
BRANCH  20  22
HETATM   22  C   LIG     1      24.972  21.174  18.371  1.00  0.00     0.184 C 
HETATM   23  O   LIG     1      25.355  22.103  17.673  1.00  0.00    -0.292 OA
BRANCH  22  24
HETATM   24  C   LIG     1      25.846  19.939  18.403  1.00  0.00     0.245 C 
BRANCH  24  25
HETATM   25  O   LIG     1      26.871  20.094  19.347  1.00  0.00    -0.393 OA
HETATM   26  H   LIG     1      27.279  20.984  19.184  1.00  0.00     0.209 HD
ENDBRANCH  24  25
ENDBRANCH  22  24
ENDBRANCH  20  22
BRANCH  20  27
HETATM   27  O   LIG     1      22.758  22.089  18.323  1.00  0.00    -0.381 OA
HETATM   28  H   LIG     1      22.684  22.991  18.730  1.00  0.00     0.211 HD
ENDBRANCH  20  27
BRANCH  13  29
HETATM   29  O   LIG     1      26.847  21.957  21.705  1.00  0.00    -0.392 OA
HETATM   30  H   LIG     1      27.511  22.012  22.439  1.00  0.00     0.210 HD
ENDBRANCH  13  29
TORSDOF 5
ENDMDL
MODEL 3
REMARK VINA RESULT:      -4.8      2.714      3.648
REMARK  5 active torsions:
REMARK  status: ('A' for Active; 'I' for Inactive)
REMARK    1  A    between atoms: C_13  and  O_14 
REMARK    2  A    between atoms: C_21  and  C_23 
REMARK    3  A    between atoms: C_21  and  O_22 
REMARK    4  A    between atoms: C_23  and  C_24 
REMARK    5  A    between atoms: C_24  and  O_25 
ROOT
HETATM    1  O   LIG     1      22.642  17.933  20.179  1.00  0.00    -0.293 OA
HETATM    2  C   LIG     1      23.186  19.051  20.376  1.00  0.00     0.149 C 
HETATM    3  C   LIG     1      24.026  19.257  21.601  1.00  0.00     0.084 C 
HETATM    4  C   LIG     1      24.966  20.462  21.443  1.00  0.00     0.025 C 
HETATM    5  C   LIG     1      24.252  21.732  20.883  1.00  0.00     0.019 C 
HETATM    6  C   LIG     1      23.217  22.225  21.930  1.00  0.00     0.023 C 
HETATM    7  C   LIG     1      23.486  21.364  19.595  1.00  0.00    -0.065 C 
HETATM    8  C   LIG     1      23.405  22.384  18.467  1.00  0.00     0.036 C 
HETATM    9  C   LIG     1      24.807  22.875  18.018  1.00  0.00     0.013 C 
HETATM   10  C   LIG     1      25.878  22.647  19.109  1.00  0.00     0.034 C 
HETATM   11  C   LIG     1      25.278  22.899  20.538  1.00  0.00     0.144 C 
HETATM   12  F   LIG     1      24.533  24.068  20.504  1.00  0.00    -0.239 F 
HETATM   13  C   LIG     1      26.415  23.178  21.575  1.00  0.00     0.160 C 
HETATM   14  C   LIG     1      27.228  24.463  21.198  1.00  0.00     0.048 C 
HETATM   15  C   LIG     1      27.475  24.665  19.651  1.00  0.00     0.001 C 
HETATM   16  C   LIG     1      26.533  25.797  19.110  1.00  0.00     0.019 C 
HETATM   17  C   LIG     1      27.253  23.341  18.909  1.00  0.00     0.005 C 
HETATM   18  C   LIG     1      27.830  23.537  17.512  1.00  0.00     0.009 C 
HETATM   19  C   LIG     1      28.983  24.543  17.714  1.00  0.00     0.047 C 
HETATM   20  C   LIG     1      28.950  25.008  19.203  1.00  0.00     0.128 C 
HETATM   21  C   LIG     1      22.974  20.137  19.407  1.00  0.00     0.053 C 
ENDROOT
BRANCH  20  22
HETATM   22  C   LIG     1      30.050  24.314  20.038  1.00  0.00     0.184 C 
HETATM   23  O   LIG     1      30.591  24.951  20.932  1.00  0.00    -0.292 OA
BRANCH  22  24
HETATM   24  C   LIG     1      30.540  22.899  19.815  1.00  0.00     0.245 C 
BRANCH  24  25
HETATM   25  O   LIG     1      29.999  22.042  20.783  1.00  0.00    -0.393 OA
HETATM   26  H   LIG     1      30.698  21.369  20.994  1.00  0.00     0.209 HD
ENDBRANCH  24  25
ENDBRANCH  22  24
ENDBRANCH  20  22
BRANCH  20  27
HETATM   27  O   LIG     1      29.189  26.399  19.230  1.00  0.00    -0.381 OA
HETATM   28  H   LIG     1      28.925  26.734  20.126  1.00  0.00     0.211 HD
ENDBRANCH  20  27
BRANCH  13  29
HETATM   29  O   LIG     1      27.292  22.083  21.667  1.00  0.00    -0.392 OA
HETATM   30  H   LIG     1      27.338  21.828  22.625  1.00  0.00     0.210 HD
ENDBRANCH  13  29
TORSDOF 5
ENDMDL
MODEL 4
REMARK VINA RESULT:      -4.6      2.604      6.533
REMARK  5 active torsions:
REMARK  status: ('A' for Active; 'I' for Inactive)
REMARK    1  A    between atoms: C_13  and  O_14 
REMARK    2  A    between atoms: C_21  and  C_23 
REMARK    3  A    between atoms: C_21  and  O_22 
REMARK    4  A    between atoms: C_23  and  C_24 
REMARK    5  A    between atoms: C_24  and  O_25 
ROOT
HETATM    1  O   LIG     1      30.564  25.586  18.002  1.00  0.00    -0.293 OA
HETATM    2  C   LIG     1      29.425  25.184  18.356  1.00  0.00     0.149 C 
HETATM    3  C   LIG     1      28.407  24.839  17.310  1.00  0.00     0.084 C 
HETATM    4  C   LIG     1      27.296  23.943  17.880  1.00  0.00     0.025 C 
HETATM    5  C   LIG     1      26.729  24.454  19.242  1.00  0.00     0.019 C 
HETATM    6  C   LIG     1      26.007  25.808  19.004  1.00  0.00     0.023 C 
HETATM    7  C   LIG     1      27.894  24.702  20.221  1.00  0.00    -0.065 C 
HETATM    8  C   LIG     1      27.689  24.412  21.702  1.00  0.00     0.036 C 
HETATM    9  C   LIG     1      27.207  22.960  21.954  1.00  0.00     0.013 C 
HETATM   10  C   LIG     1      26.560  22.337  20.696  1.00  0.00     0.034 C 
HETATM   11  C   LIG     1      25.729  23.411  19.909  1.00  0.00     0.144 C 
HETATM   12  F   LIG     1      24.970  24.133  20.816  1.00  0.00    -0.239 F 
HETATM   13  C   LIG     1      24.684  22.723  18.969  1.00  0.00     0.160 C 
HETATM   14  C   LIG     1      23.655  21.872  19.787  1.00  0.00     0.048 C 
HETATM   15  C   LIG     1      24.262  21.101  21.024  1.00  0.00     0.001 C 
HETATM   16  C   LIG     1      23.850  21.828  22.353  1.00  0.00     0.019 C 
HETATM   17  C   LIG     1      25.787  21.003  20.883  1.00  0.00     0.005 C 
HETATM   18  C   LIG     1      26.242  19.976  21.912  1.00  0.00     0.009 C 
HETATM   19  C   LIG     1      25.051  19.002  22.033  1.00  0.00     0.047 C 
HETATM   20  C   LIG     1      23.884  19.575  21.170  1.00  0.00     0.128 C 
HETATM   21  C   LIG     1      29.110  25.075  19.789  1.00  0.00     0.053 C 
ENDROOT
BRANCH  20  22
HETATM   22  C   LIG     1      23.746  18.819  19.830  1.00  0.00     0.184 C 
HETATM   23  O   LIG     1      22.628  18.680  19.351  1.00  0.00    -0.292 OA
BRANCH  22  24
HETATM   24  C   LIG     1      24.896  18.202  19.064  1.00  0.00     0.245 C 
BRANCH  24  25
HETATM   25  O   LIG     1      25.264  19.027  17.993  1.00  0.00    -0.393 OA
HETATM   26  H   LIG     1      25.272  18.457  17.180  1.00  0.00     0.209 HD
ENDBRANCH  24  25
ENDBRANCH  22  24
ENDBRANCH  20  22
BRANCH  20  27
HETATM   27  O   LIG     1      22.684  19.407  21.895  1.00  0.00    -0.381 OA
HETATM   28  H   LIG     1      22.695  18.497  22.292  1.00  0.00     0.211 HD
ENDBRANCH  20  27
BRANCH  13  29
HETATM   29  O   LIG     1      25.322  21.901  18.024  1.00  0.00    -0.392 OA
HETATM   30  H   LIG     1      25.468  21.021  18.458  1.00  0.00     0.210 HD
ENDBRANCH  13  29
TORSDOF 5
ENDMDL
MODEL 5
REMARK VINA RESULT:      -4.5      3.527      7.227
REMARK  5 active torsions:
REMARK  status: ('A' for Active; 'I' for Inactive)
REMARK    1  A    between atoms: C_13  and  O_14 
REMARK    2  A    between atoms: C_21  and  C_23 
REMARK    3  A    between atoms: C_21  and  O_22 
REMARK    4  A    between atoms: C_23  and  C_24 
REMARK    5  A    between atoms: C_24  and  O_25 
ROOT
HETATM    1  O   LIG     1      26.185  25.135  27.337  1.00  0.00    -0.293 OA
HETATM    2  C   LIG     1      26.214  24.311  26.386  1.00  0.00     0.149 C 
HETATM    3  C   LIG     1      25.180  23.227  26.318  1.00  0.00     0.084 C 
HETATM    4  C   LIG     1      25.073  22.639  24.902  1.00  0.00     0.025 C 
HETATM    5  C   LIG     1      26.459  22.301  24.268  1.00  0.00     0.019 C 
HETATM    6  C   LIG     1      27.111  21.151  25.081  1.00  0.00     0.023 C 
HETATM    7  C   LIG     1      27.381  23.534  24.365  1.00  0.00    -0.065 C 
HETATM    8  C   LIG     1      28.365  23.811  23.235  1.00  0.00     0.036 C 
HETATM    9  C   LIG     1      27.663  23.896  21.854  1.00  0.00     0.013 C 
HETATM   10  C   LIG     1      26.290  23.186  21.857  1.00  0.00     0.034 C 
HETATM   11  C   LIG     1      26.338  21.887  22.736  1.00  0.00     0.144 C 
HETATM   12  F   LIG     1      27.498  21.191  22.434  1.00  0.00    -0.239 F 
HETATM   13  C   LIG     1      25.175  20.914  22.351  1.00  0.00     0.160 C 
HETATM   14  C   LIG     1      25.291  20.449  20.859  1.00  0.00     0.048 C 
HETATM   15  C   LIG     1      25.784  21.561  19.852  1.00  0.00     0.001 C 
HETATM   16  C   LIG     1      27.278  21.287  19.455  1.00  0.00     0.019 C 
HETATM   17  C   LIG     1      25.611  22.950  20.480  1.00  0.00     0.005 C 
HETATM   18  C   LIG     1      25.783  23.952  19.345  1.00  0.00     0.009 C 
HETATM   19  C   LIG     1      25.276  23.203  18.094  1.00  0.00     0.047 C 
HETATM   20  C   LIG     1      24.954  21.736  18.520  1.00  0.00     0.128 C 
HETATM   21  C   LIG     1      27.271  24.418  25.370  1.00  0.00     0.053 C 
ENDROOT
BRANCH  20  22
HETATM   22  C   LIG     1      23.434  21.513  18.680  1.00  0.00     0.184 C 
HETATM   23  O   LIG     1      22.836  22.160  19.530  1.00  0.00    -0.292 OA
BRANCH  22  24
HETATM   24  C   LIG     1      22.617  20.521  17.879  1.00  0.00     0.245 C 
BRANCH  24  25
HETATM   25  O   LIG     1      23.052  19.214  18.139  1.00  0.00    -0.393 OA
HETATM   26  H   LIG     1      22.707  18.645  17.403  1.00  0.00     0.209 HD
ENDBRANCH  24  25
ENDBRANCH  22  24
ENDBRANCH  20  22
BRANCH  20  27
HETATM   27  O   LIG     1      25.420  20.876  17.503  1.00  0.00    -0.381 OA
HETATM   28  H   LIG     1      25.711  21.439  16.739  1.00  0.00     0.211 HD
ENDBRANCH  20  27
BRANCH  13  29
HETATM   29  O   LIG     1      23.923  21.521  22.554  1.00  0.00    -0.392 OA
HETATM   30  H   LIG     1      24.097  22.455  22.838  1.00  0.00     0.210 HD
ENDBRANCH  13  29
TORSDOF 5
ENDMDL
MODEL 6
REMARK VINA RESULT:      -4.5      3.665      6.971
REMARK  5 active torsions:
REMARK  status: ('A' for Active; 'I' for Inactive)
REMARK    1  A    between atoms: C_13  and  O_14 
REMARK    2  A    between atoms: C_21  and  C_23 
REMARK    3  A    between atoms: C_21  and  O_22 
REMARK    4  A    between atoms: C_23  and  C_24 
REMARK    5  A    between atoms: C_24  and  O_25 
ROOT
HETATM    1  O   LIG     1      29.054  27.704  18.254  1.00  0.00    -0.293 OA
HETATM    2  C   LIG     1      28.784  26.595  18.786  1.00  0.00     0.149 C 
HETATM    3  C   LIG     1      29.388  26.248  20.114  1.00  0.00     0.084 C 
HETATM    4  C   LIG     1      28.606  25.124  20.812  1.00  0.00     0.025 C 
HETATM    5  C   LIG     1      28.285  23.920  19.871  1.00  0.00     0.019 C 
HETATM    6  C   LIG     1      29.616  23.230  19.473  1.00  0.00     0.023 C 
HETATM    7  C   LIG     1      27.615  24.440  18.583  1.00  0.00    -0.065 C 
HETATM    8  C   LIG     1      26.533  23.597  17.921  1.00  0.00     0.036 C 
HETATM    9  C   LIG     1      25.383  23.244  18.900  1.00  0.00     0.013 C 
HETATM   10  C   LIG     1      25.824  23.356  20.377  1.00  0.00     0.034 C 
HETATM   11  C   LIG     1      27.305  22.867  20.553  1.00  0.00     0.144 C 
HETATM   12  F   LIG     1      27.466  21.683  19.849  1.00  0.00    -0.239 F 
HETATM   13  C   LIG     1      27.591  22.489  22.044  1.00  0.00     0.160 C 
HETATM   14  C   LIG     1      26.671  21.313  22.520  1.00  0.00     0.048 C 
HETATM   15  C   LIG     1      25.194  21.356  21.964  1.00  0.00     0.001 C 
HETATM   16  C   LIG     1      25.023  20.275  20.839  1.00  0.00     0.019 C 
HETATM   17  C   LIG     1      24.869  22.764  21.449  1.00  0.00     0.005 C 
HETATM   18  C   LIG     1      23.359  22.805  21.255  1.00  0.00     0.009 C 
HETATM   19  C   LIG     1      22.809  21.834  22.322  1.00  0.00     0.047 C 
HETATM   20  C   LIG     1      24.031  21.152  23.012  1.00  0.00     0.128 C 
HETATM   21  C   LIG     1      27.893  25.657  18.087  1.00  0.00     0.053 C 
ENDROOT
BRANCH  20  22
HETATM   22  C   LIG     1      24.309  21.763  24.404  1.00  0.00     0.184 C 
HETATM   23  O   LIG     1      24.711  22.917  24.464  1.00  0.00    -0.292 OA
BRANCH  22  24
HETATM   24  C   LIG     1      24.152  21.027  25.717  1.00  0.00     0.245 C 
BRANCH  24  25
HETATM   25  O   LIG     1      22.838  20.559  25.855  1.00  0.00    -0.393 OA
HETATM   26  H   LIG     1      22.237  21.312  25.615  1.00  0.00     0.209 HD
ENDBRANCH  24  25
ENDBRANCH  22  24
ENDBRANCH  20  22
BRANCH  20  27
HETATM   27  O   LIG     1      23.724  19.785  23.186  1.00  0.00    -0.381 OA
HETATM   28  H   LIG     1      22.829  19.622  22.788  1.00  0.00     0.211 HD
ENDBRANCH  20  27
BRANCH  13  29
HETATM   29  O   LIG     1      27.405  23.597  22.888  1.00  0.00    -0.392 OA
HETATM   30  H   LIG     1      27.506  24.409  22.327  1.00  0.00     0.210 HD
ENDBRANCH  13  29
TORSDOF 5
ENDMDL
MODEL 7
REMARK VINA RESULT:      -4.3      4.418      6.274
REMARK  5 active torsions:
REMARK  status: ('A' for Active; 'I' for Inactive)
REMARK    1  A    between atoms: C_13  and  O_14 
REMARK    2  A    between atoms: C_21  and  C_23 
REMARK    3  A    between atoms: C_21  and  O_22 
REMARK    4  A    between atoms: C_23  and  C_24 
REMARK    5  A    between atoms: C_24  and  O_25 
ROOT
HETATM    1  O   LIG     1      22.059  22.431  19.799  1.00  0.00    -0.293 OA
HETATM    2  C   LIG     1      23.099  22.282  20.493  1.00  0.00     0.149 C 
HETATM    3  C   LIG     1      24.439  22.567  19.883  1.00  0.00     0.084 C 
HETATM    4  C   LIG     1      25.511  22.795  20.960  1.00  0.00     0.025 C 
HETATM    5  C   LIG     1      25.490  21.717  22.089  1.00  0.00     0.019 C 
HETATM    6  C   LIG     1      25.888  20.347  21.478  1.00  0.00     0.023 C 
HETATM    7  C   LIG     1      24.058  21.590  22.650  1.00  0.00    -0.065 C 
HETATM    8  C   LIG     1      23.869  21.307  24.134  1.00  0.00     0.036 C 
HETATM    9  C   LIG     1      24.598  22.345  25.027  1.00  0.00     0.013 C 
HETATM   10  C   LIG     1      25.731  23.070  24.266  1.00  0.00     0.034 C 
HETATM   11  C   LIG     1      26.466  22.084  23.291  1.00  0.00     0.144 C 
HETATM   12  F   LIG     1      26.708  20.896  23.965  1.00  0.00    -0.239 F 
HETATM   13  C   LIG     1      27.885  22.628  22.917  1.00  0.00     0.160 C 
HETATM   14  C   LIG     1      28.795  22.767  24.185  1.00  0.00     0.048 C 
HETATM   15  C   LIG     1      28.052  23.266  25.486  1.00  0.00     0.001 C 
HETATM   16  C   LIG     1      27.846  22.062  26.471  1.00  0.00     0.019 C 
HETATM   17  C   LIG     1      26.719  23.924  25.108  1.00  0.00     0.005 C 
HETATM   18  C   LIG     1      26.243  24.662  26.353  1.00  0.00     0.009 C 
HETATM   19  C   LIG     1      27.545  25.074  27.073  1.00  0.00     0.047 C 
HETATM   20  C   LIG     1      28.737  24.438  26.293  1.00  0.00     0.128 C 
HETATM   21  C   LIG     1      22.979  21.817  21.883  1.00  0.00     0.053 C 
ENDROOT
BRANCH  20  22
HETATM   22  C   LIG     1      29.461  25.482  25.413  1.00  0.00     0.184 C 
HETATM   23  O   LIG     1      30.678  25.573  25.499  1.00  0.00    -0.292 OA
BRANCH  22  24
HETATM   24  C   LIG     1      28.771  26.437  24.462  1.00  0.00     0.245 C 
BRANCH  24  25
HETATM   25  O   LIG     1      29.220  26.224  23.152  1.00  0.00    -0.393 OA
HETATM   26  H   LIG     1      29.033  25.273  22.935  1.00  0.00     0.209 HD
ENDBRANCH  24  25
ENDBRANCH  22  24
ENDBRANCH  20  22
BRANCH  20  27
HETATM   27  O   LIG     1      29.662  23.944  27.239  1.00  0.00    -0.381 OA
HETATM   28  H   LIG     1      29.833  22.990  27.025  1.00  0.00     0.211 HD
ENDBRANCH  20  27
BRANCH  13  29
HETATM   29  O   LIG     1      27.791  23.874  22.272  1.00  0.00    -0.392 OA
HETATM   30  H   LIG     1      27.988  24.567  22.954  1.00  0.00     0.210 HD
ENDBRANCH  13  29
TORSDOF 5
ENDMDL
MODEL 8
REMARK VINA RESULT:      -4.2      4.942      7.978
REMARK  5 active torsions:
REMARK  status: ('A' for Active; 'I' for Inactive)
REMARK    1  A    between atoms: C_13  and  O_14 
REMARK    2  A    between atoms: C_21  and  C_23 
REMARK    3  A    between atoms: C_21  and  O_22 
REMARK    4  A    between atoms: C_23  and  C_24 
REMARK    5  A    between atoms: C_24  and  O_25 
ROOT
HETATM    1  O   LIG     1      26.601  26.139  19.055  1.00  0.00    -0.293 OA
HETATM    2  C   LIG     1      26.901  25.340  19.981  1.00  0.00     0.149 C 
HETATM    3  C   LIG     1      28.123  25.598  20.811  1.00  0.00     0.084 C 
HETATM    4  C   LIG     1      28.071  24.836  22.144  1.00  0.00     0.025 C 
HETATM    5  C   LIG     1      27.659  23.339  21.982  1.00  0.00     0.019 C 
HETATM    6  C   LIG     1      28.772  22.598  21.194  1.00  0.00     0.023 C 
HETATM    7  C   LIG     1      26.356  23.251  21.161  1.00  0.00    -0.065 C 
HETATM    8  C   LIG     1      25.340  22.168  21.500  1.00  0.00     0.036 C 
HETATM    9  C   LIG     1      24.916  22.208  22.991  1.00  0.00     0.013 C 
HETATM   10  C   LIG     1      25.956  22.939  23.871  1.00  0.00     0.034 C 
HETATM   11  C   LIG     1      27.414  22.625  23.384  1.00  0.00     0.144 C 
HETATM   12  F   LIG     1      27.517  21.264  23.144  1.00  0.00    -0.239 F 
HETATM   13  C   LIG     1      28.452  22.911  24.519  1.00  0.00     0.160 C 
HETATM   14  C   LIG     1      28.192  22.004  25.770  1.00  0.00     0.048 C 
HETATM   15  C   LIG     1      26.670  21.754  26.107  1.00  0.00     0.001 C 
HETATM   16  C   LIG     1      26.267  20.299  25.681  1.00  0.00     0.019 C 
HETATM   17  C   LIG     1      25.800  22.809  25.410  1.00  0.00     0.005 C 
HETATM   18  C   LIG     1      24.419  22.706  26.047  1.00  0.00     0.009 C 
HETATM   19  C   LIG     1      24.699  22.245  27.494  1.00  0.00     0.047 C 
HETATM   20  C   LIG     1      26.229  21.958  27.610  1.00  0.00     0.128 C 
HETATM   21  C   LIG     1      26.053  24.163  20.222  1.00  0.00     0.053 C 
ENDROOT
BRANCH  20  22
HETATM   22  C   LIG     1      26.965  23.101  28.343  1.00  0.00     0.184 C 
HETATM   23  O   LIG     1      27.945  22.823  29.021  1.00  0.00    -0.292 OA
BRANCH  22  24
HETATM   24  C   LIG     1      26.548  24.556  28.314  1.00  0.00     0.245 C 
BRANCH  24  25
HETATM   25  O   LIG     1      27.342  25.270  27.406  1.00  0.00    -0.393 OA
HETATM   26  H   LIG     1      28.253  24.877  27.449  1.00  0.00     0.209 HD
ENDBRANCH  24  25
ENDBRANCH  22  24
ENDBRANCH  20  22
BRANCH  20  27
HETATM   27  O   LIG     1      26.394  20.775  28.362  1.00  0.00    -0.381 OA
HETATM   28  H   LIG     1      25.582  20.655  28.920  1.00  0.00     0.211 HD
ENDBRANCH  20  27
BRANCH  13  29
HETATM   29  O   LIG     1      28.413  24.262  24.908  1.00  0.00    -0.392 OA
HETATM   30  H   LIG     1      27.493  24.443  25.233  1.00  0.00     0.210 HD
ENDBRANCH  13  29
TORSDOF 5
ENDMDL
MODEL 9
REMARK VINA RESULT:      -4.1      3.757      7.551
REMARK  5 active torsions:
REMARK  status: ('A' for Active; 'I' for Inactive)
REMARK    1  A    between atoms: C_13  and  O_14 
REMARK    2  A    between atoms: C_21  and  C_23 
REMARK    3  A    between atoms: C_21  and  O_22 
REMARK    4  A    between atoms: C_23  and  C_24 
REMARK    5  A    between atoms: C_24  and  O_25 
ROOT
HETATM    1  O   LIG     1      29.284  23.599  26.107  1.00  0.00    -0.293 OA
HETATM    2  C   LIG     1      28.211  23.250  25.549  1.00  0.00     0.149 C 
HETATM    3  C   LIG     1      27.408  24.266  24.794  1.00  0.00     0.084 C 
HETATM    4  C   LIG     1      26.432  23.598  23.813  1.00  0.00     0.025 C 
HETATM    5  C   LIG     1      25.623  22.425  24.452  1.00  0.00     0.019 C 
HETATM    6  C   LIG     1      24.685  23.003  25.545  1.00  0.00     0.023 C 
HETATM    7  C   LIG     1      26.597  21.441  25.132  1.00  0.00    -0.065 C 
HETATM    8  C   LIG     1      26.281  19.951  25.104  1.00  0.00     0.036 C 
HETATM    9  C   LIG     1      26.064  19.424  23.662  1.00  0.00     0.013 C 
HETATM   10  C   LIG     1      25.699  20.560  22.679  1.00  0.00     0.034 C 
HETATM   11  C   LIG     1      24.774  21.620  23.372  1.00  0.00     0.144 C 
HETATM   12  F   LIG     1      23.789  20.950  24.082  1.00  0.00    -0.239 F 
HETATM   13  C   LIG     1      23.997  22.461  22.306  1.00  0.00     0.160 C 
HETATM   14  C   LIG     1      23.064  21.553  21.434  1.00  0.00     0.048 C 
HETATM   15  C   LIG     1      23.661  20.137  21.071  1.00  0.00     0.001 C 
HETATM   16  C   LIG     1      22.966  19.033  21.942  1.00  0.00     0.019 C 
HETATM   17  C   LIG     1      25.182  20.144  21.275  1.00  0.00     0.005 C 
HETATM   18  C   LIG     1      25.705  18.885  20.594  1.00  0.00     0.009 C 
HETATM   19  C   LIG     1      24.719  18.641  19.432  1.00  0.00     0.047 C 
HETATM   20  C   LIG     1      23.570  19.690  19.560  1.00  0.00     0.128 C 
HETATM   21  C   LIG     1      27.760  21.855  25.662  1.00  0.00     0.053 C 
ENDROOT
BRANCH  20  22
HETATM   22  C   LIG     1      23.737  20.840  18.541  1.00  0.00     0.184 C 
HETATM   23  O   LIG     1      22.738  21.275  17.985  1.00  0.00    -0.292 OA
BRANCH  22  24
HETATM   24  C   LIG     1      25.061  21.461  18.149  1.00  0.00     0.245 C 
BRANCH  24  25
HETATM   25  O   LIG     1      25.137  22.779  18.619  1.00  0.00    -0.393 OA
HETATM   26  H   LIG     1      24.804  23.364  17.889  1.00  0.00     0.209 HD
ENDBRANCH  24  25
ENDBRANCH  22  24
ENDBRANCH  20  22
BRANCH  20  27
HETATM   27  O   LIG     1      22.350  19.035  19.286  1.00  0.00    -0.381 OA
HETATM   28  H   LIG     1      21.637  19.724  19.256  1.00  0.00     0.211 HD
ENDBRANCH  20  27
BRANCH  13  29
HETATM   29  O   LIG     1      24.887  23.155  21.467  1.00  0.00    -0.392 OA
HETATM   30  H   LIG     1      24.350  23.815  20.958  1.00  0.00     0.210 HD
ENDBRANCH  13  29
TORSDOF 5
ENDMDL
MODEL 10
REMARK VINA RESULT:      -4.1      9.467     13.051
REMARK  5 active torsions:
REMARK  status: ('A' for Active; 'I' for Inactive)
REMARK    1  A    between atoms: C_13  and  O_14 
REMARK    2  A    between atoms: C_21  and  C_23 
REMARK    3  A    between atoms: C_21  and  O_22 
REMARK    4  A    between atoms: C_23  and  C_24 
REMARK    5  A    between atoms: C_24  and  O_25 
ROOT
HETATM    1  O   LIG     1      26.245  25.803  34.839  1.00  0.00    -0.293 OA
HETATM    2  C   LIG     1      26.940  25.641  33.802  1.00  0.00     0.149 C 
HETATM    3  C   LIG     1      27.837  24.444  33.695  1.00  0.00     0.084 C 
HETATM    4  C   LIG     1      28.222  24.158  32.235  1.00  0.00     0.025 C 
HETATM    5  C   LIG     1      28.685  25.431  31.458  1.00  0.00     0.019 C 
HETATM    6  C   LIG     1      30.012  25.939  32.081  1.00  0.00     0.023 C 
HETATM    7  C   LIG     1      27.628  26.542  31.619  1.00  0.00    -0.065 C 
HETATM    8  C   LIG     1      27.365  27.486  30.452  1.00  0.00     0.036 C 
HETATM    9  C   LIG     1      27.004  26.724  29.151  1.00  0.00     0.013 C 
HETATM   10  C   LIG     1      27.493  25.257  29.183  1.00  0.00     0.034 C 
HETATM   11  C   LIG     1      28.883  25.150  29.904  1.00  0.00     0.144 C 
HETATM   12  F   LIG     1      29.704  26.163  29.433  1.00  0.00    -0.239 F 
HETATM   13  C   LIG     1      29.613  23.825  29.506  1.00  0.00     0.160 C 
HETATM   14  C   LIG     1      29.901  23.773  27.966  1.00  0.00     0.048 C 
HETATM   15  C   LIG     1      28.761  24.375  27.055  1.00  0.00     0.001 C 
HETATM   16  C   LIG     1      29.206  25.778  26.511  1.00  0.00     0.019 C 
HETATM   17  C   LIG     1      27.450  24.466  27.848  1.00  0.00     0.005 C 
HETATM   18  C   LIG     1      26.353  24.726  26.822  1.00  0.00     0.009 C 
HETATM   19  C   LIG     1      26.856  24.029  25.540  1.00  0.00     0.047 C 
HETATM   20  C   LIG     1      28.297  23.504  25.822  1.00  0.00     0.128 C 
HETATM   21  C   LIG     1      26.869  26.637  32.723  1.00  0.00     0.053 C 
ENDROOT
BRANCH  20  22
HETATM   22  C   LIG     1      28.305  21.980  26.078  1.00  0.00     0.184 C 
HETATM   23  O   LIG     1      29.292  21.338  25.743  1.00  0.00    -0.292 OA
BRANCH  22  24
HETATM   24  C   LIG     1      27.161  21.201  26.691  1.00  0.00     0.245 C 
BRANCH  24  25
HETATM   25  O   LIG     1      27.396  20.989  28.057  1.00  0.00    -0.393 OA
HETATM   26  H   LIG     1      27.934  21.759  28.378  1.00  0.00     0.209 HD
ENDBRANCH  24  25
ENDBRANCH  22  24
ENDBRANCH  20  22
BRANCH  20  27
HETATM   27  O   LIG     1      29.086  23.762  24.680  1.00  0.00    -0.381 OA
HETATM   28  H   LIG     1      28.576  23.458  23.885  1.00  0.00     0.211 HD
ENDBRANCH  20  27
BRANCH  13  29
HETATM   29  O   LIG     1      28.853  22.701  29.875  1.00  0.00    -0.392 OA
HETATM   30  H   LIG     1      29.380  22.206  30.554  1.00  0.00     0.210 HD
ENDBRANCH  13  29
TORSDOF 5
ENDMDL
MODEL 11
REMARK VINA RESULT:      -4.0      5.842      8.785
REMARK  5 active torsions:
REMARK  status: ('A' for Active; 'I' for Inactive)
REMARK    1  A    between atoms: C_13  and  O_14 
REMARK    2  A    between atoms: C_21  and  C_23 
REMARK    3  A    between atoms: C_21  and  O_22 
REMARK    4  A    between atoms: C_23  and  C_24 
REMARK    5  A    between atoms: C_24  and  O_25 
ROOT
HETATM    1  O   LIG     1      26.245  25.296  18.981  1.00  0.00    -0.293 OA
HETATM    2  C   LIG     1      26.892  25.061  20.035  1.00  0.00     0.149 C 
HETATM    3  C   LIG     1      28.061  25.929  20.392  1.00  0.00     0.084 C 
HETATM    4  C   LIG     1      28.415  25.812  21.882  1.00  0.00     0.025 C 
HETATM    5  C   LIG     1      28.483  24.335  22.386  1.00  0.00     0.019 C 
HETATM    6  C   LIG     1      29.668  23.622  21.683  1.00  0.00     0.023 C 
HETATM    7  C   LIG     1      27.185  23.600  21.993  1.00  0.00    -0.065 C 
HETATM    8  C   LIG     1      26.614  22.552  22.939  1.00  0.00     0.036 C 
HETATM    9  C   LIG     1      26.383  23.114  24.366  1.00  0.00     0.013 C 
HETATM   10  C   LIG     1      27.237  24.374  24.638  1.00  0.00     0.034 C 
HETATM   11  C   LIG     1      28.649  24.244  23.966  1.00  0.00     0.144 C 
HETATM   12  F   LIG     1      29.147  22.977  24.227  1.00  0.00    -0.239 F 
HETATM   13  C   LIG     1      29.673  25.222  24.633  1.00  0.00     0.160 C 
HETATM   14  C   LIG     1      29.868  24.893  26.152  1.00  0.00     0.048 C 
HETATM   15  C   LIG     1      28.556  24.452  26.912  1.00  0.00     0.001 C 
HETATM   16  C   LIG     1      28.586  22.903  27.161  1.00  0.00     0.019 C 
HETATM   17  C   LIG     1      27.319  24.871  26.107  1.00  0.00     0.005 C 
HETATM   18  C   LIG     1      26.130  24.719  27.049  1.00  0.00     0.009 C 
HETATM   19  C   LIG     1      26.716  24.992  28.451  1.00  0.00     0.047 C 
HETATM   20  C   LIG     1      28.259  25.158  28.293  1.00  0.00     0.128 C 
HETATM   21  C   LIG     1      26.497  23.929  20.887  1.00  0.00     0.053 C 
ENDROOT
BRANCH  20  22
HETATM   22  C   LIG     1      28.679  26.643  28.355  1.00  0.00     0.184 C 
HETATM   23  O   LIG     1      29.550  27.036  27.590  1.00  0.00    -0.292 OA
BRANCH  22  24
HETATM   24  C   LIG     1      28.113  27.661  29.322  1.00  0.00     0.245 C 
BRANCH  24  25
HETATM   25  O   LIG     1      28.313  27.239  30.643  1.00  0.00    -0.393 OA
HETATM   26  H   LIG     1      27.517  27.526  31.162  1.00  0.00     0.209 HD
ENDBRANCH  24  25
ENDBRANCH  22  24
ENDBRANCH  20  22
BRANCH  20  27
HETATM   27  O   LIG     1      28.881  24.480  29.365  1.00  0.00    -0.381 OA
HETATM   28  H   LIG     1      28.166  24.083  29.927  1.00  0.00     0.211 HD
ENDBRANCH  20  27
BRANCH  13  29
HETATM   29  O   LIG     1      29.255  26.557  24.495  1.00  0.00    -0.392 OA
HETATM   30  H   LIG     1      30.063  27.124  24.593  1.00  0.00     0.210 HD
ENDBRANCH  13  29
TORSDOF 5
ENDMDL
MODEL 12
REMARK VINA RESULT:      -3.9      5.534      7.989
REMARK  5 active torsions:
REMARK  status: ('A' for Active; 'I' for Inactive)
REMARK    1  A    between atoms: C_13  and  O_14 
REMARK    2  A    between atoms: C_21  and  C_23 
REMARK    3  A    between atoms: C_21  and  O_22 
REMARK    4  A    between atoms: C_23  and  C_24 
REMARK    5  A    between atoms: C_24  and  O_25 
ROOT
HETATM    1  O   LIG     1      25.472  24.039  19.354  1.00  0.00    -0.293 OA
HETATM    2  C   LIG     1      25.991  23.634  20.427  1.00  0.00     0.149 C 
HETATM    3  C   LIG     1      27.483  23.659  20.580  1.00  0.00     0.084 C 
HETATM    4  C   LIG     1      27.898  23.595  22.058  1.00  0.00     0.025 C 
HETATM    5  C   LIG     1      27.148  22.487  22.862  1.00  0.00     0.019 C 
HETATM    6  C   LIG     1      27.573  21.099  22.314  1.00  0.00     0.023 C 
HETATM    7  C   LIG     1      25.628  22.638  22.647  1.00  0.00    -0.065 C 
HETATM    8  C   LIG     1      24.684  22.322  23.800  1.00  0.00     0.036 C 
HETATM    9  C   LIG     1      25.027  23.131  25.078  1.00  0.00     0.013 C 
HETATM   10  C   LIG     1      26.488  23.638  25.068  1.00  0.00     0.034 C 
HETATM   11  C   LIG     1      27.442  22.571  24.424  1.00  0.00     0.144 C 
HETATM   12  F   LIG     1      27.125  21.325  24.942  1.00  0.00    -0.239 F 
HETATM   13  C   LIG     1      28.924  22.820  24.858  1.00  0.00     0.160 C 
HETATM   14  C   LIG     1      29.093  22.693  26.410  1.00  0.00     0.048 C 
HETATM   15  C   LIG     1      27.893  23.268  27.260  1.00  0.00     0.001 C 
HETATM   16  C   LIG     1      27.035  22.084  27.831  1.00  0.00     0.019 C 
HETATM   17  C   LIG     1      27.047  24.214  26.397  1.00  0.00     0.005 C 
HETATM   18  C   LIG     1      26.140  24.969  27.362  1.00  0.00     0.009 C 
HETATM   19  C   LIG     1      26.959  25.054  28.668  1.00  0.00     0.047 C 
HETATM   20  C   LIG     1      28.262  24.222  28.463  1.00  0.00     0.128 C 
HETATM   21  C   LIG     1      25.125  23.131  21.503  1.00  0.00     0.053 C 
ENDROOT
BRANCH  20  22
HETATM   22  C   LIG     1      29.483  25.133  28.205  1.00  0.00     0.184 C 
HETATM   23  O   LIG     1      30.571  24.791  28.649  1.00  0.00    -0.292 OA
BRANCH  22  24
HETATM   24  C   LIG     1      29.434  26.451  27.461  1.00  0.00     0.245 C 
BRANCH  24  25
HETATM   25  O   LIG     1      29.985  26.305  26.180  1.00  0.00    -0.393 OA
HETATM   26  H   LIG     1      29.969  27.202  25.756  1.00  0.00     0.209 HD
ENDBRANCH  24  25
ENDBRANCH  22  24
ENDBRANCH  20  22
BRANCH  20  27
HETATM   27  O   LIG     1      28.502  23.491  29.647  1.00  0.00    -0.381 OA
HETATM   28  H   LIG     1      29.483  23.366  29.732  1.00  0.00     0.211 HD
ENDBRANCH  20  27
BRANCH  13  29
HETATM   29  O   LIG     1      29.363  24.090  24.445  1.00  0.00    -0.392 OA
HETATM   30  H   LIG     1      28.630  24.489  23.908  1.00  0.00     0.210 HD
ENDBRANCH  13  29
TORSDOF 5
ENDMDL
MODEL 13
REMARK VINA RESULT:      -3.9      4.864      6.729
REMARK  5 active torsions:
REMARK  status: ('A' for Active; 'I' for Inactive)
REMARK    1  A    between atoms: C_13  and  O_14 
REMARK    2  A    between atoms: C_21  and  C_23 
REMARK    3  A    between atoms: C_21  and  O_22 
REMARK    4  A    between atoms: C_23  and  C_24 
REMARK    5  A    between atoms: C_24  and  O_25 
ROOT
HETATM    1  O   LIG     1      22.838  22.040  18.232  1.00  0.00    -0.293 OA
HETATM    2  C   LIG     1      23.560  21.707  19.208  1.00  0.00     0.149 C 
HETATM    3  C   LIG     1      24.938  22.285  19.336  1.00  0.00     0.084 C 
HETATM    4  C   LIG     1      25.471  22.158  20.771  1.00  0.00     0.025 C 
HETATM    5  C   LIG     1      25.268  20.735  21.381  1.00  0.00     0.019 C 
HETATM    6  C   LIG     1      26.139  19.724  20.589  1.00  0.00     0.023 C 
HETATM    7  C   LIG     1      23.791  20.316  21.224  1.00  0.00    -0.065 C 
HETATM    8  C   LIG     1      23.139  19.484  22.320  1.00  0.00     0.036 C 
HETATM    9  C   LIG     1      23.257  20.153  23.714  1.00  0.00     0.013 C 
HETATM   10  C   LIG     1      24.410  21.182  23.767  1.00  0.00     0.034 C 
HETATM   11  C   LIG     1      25.639  20.683  22.928  1.00  0.00     0.144 C 
HETATM   12  F   LIG     1      25.863  19.347  23.224  1.00  0.00    -0.239 F 
HETATM   13  C   LIG     1      26.948  21.417  23.372  1.00  0.00     0.160 C 
HETATM   14  C   LIG     1      27.283  21.125  24.874  1.00  0.00     0.048 C 
HETATM   15  C   LIG     1      26.031  21.050  25.834  1.00  0.00     0.001 C 
HETATM   16  C   LIG     1      25.738  19.553  26.203  1.00  0.00     0.019 C 
HETATM   17  C   LIG     1      24.820  21.716  25.167  1.00  0.00     0.005 C 
HETATM   18  C   LIG     1      23.781  21.900  26.265  1.00  0.00     0.009 C 
HETATM   19  C   LIG     1      24.613  22.092  27.551  1.00  0.00     0.047 C 
HETATM   20  C   LIG     1      26.113  21.873  27.179  1.00  0.00     0.128 C 
HETATM   21  C   LIG     1      23.044  20.747  20.194  1.00  0.00     0.053 C 
ENDROOT
BRANCH  20  22
HETATM   22  C   LIG     1      26.870  23.215  27.063  1.00  0.00     0.184 C 
HETATM   23  O   LIG     1      28.032  23.263  27.442  1.00  0.00    -0.292 OA
BRANCH  22  24
HETATM   24  C   LIG     1      26.270  24.502  26.538  1.00  0.00     0.245 C 
BRANCH  24  25
HETATM   25  O   LIG     1      26.021  25.387  27.597  1.00  0.00    -0.393 OA
HETATM   26  H   LIG     1      26.789  26.015  27.634  1.00  0.00     0.209 HD
ENDBRANCH  24  25
ENDBRANCH  22  24
ENDBRANCH  20  22
BRANCH  20  27
HETATM   27  O   LIG     1      26.711  21.118  28.212  1.00  0.00    -0.381 OA
HETATM   28  H   LIG     1      27.267  21.736  28.754  1.00  0.00     0.211 HD
ENDBRANCH  20  27
BRANCH  13  29
HETATM   29  O   LIG     1      26.836  22.805  23.181  1.00  0.00    -0.392 OA
HETATM   30  H   LIG     1      27.755  23.154  23.048  1.00  0.00     0.210 HD
ENDBRANCH  13  29
TORSDOF 5
ENDMDL
MODEL 14
REMARK VINA RESULT:      -3.7      4.602      6.699
REMARK  5 active torsions:
REMARK  status: ('A' for Active; 'I' for Inactive)
REMARK    1  A    between atoms: C_13  and  O_14 
REMARK    2  A    between atoms: C_21  and  C_23 
REMARK    3  A    between atoms: C_21  and  O_22 
REMARK    4  A    between atoms: C_23  and  C_24 
REMARK    5  A    between atoms: C_24  and  O_25 
ROOT
HETATM    1  O   LIG     1      27.223  23.800  17.740  1.00  0.00    -0.293 OA
HETATM    2  C   LIG     1      26.812  23.040  18.656  1.00  0.00     0.149 C 
HETATM    3  C   LIG     1      27.694  21.929  19.143  1.00  0.00     0.084 C 
HETATM    4  C   LIG     1      27.258  21.430  20.528  1.00  0.00     0.025 C 
HETATM    5  C   LIG     1      25.720  21.178  20.638  1.00  0.00     0.019 C 
HETATM    6  C   LIG     1      25.340  20.001  19.701  1.00  0.00     0.023 C 
HETATM    7  C   LIG     1      24.961  22.433  20.158  1.00  0.00    -0.065 C 
HETATM    8  C   LIG     1      23.656  22.813  20.845  1.00  0.00     0.036 C 
HETATM    9  C   LIG     1      23.822  22.963  22.380  1.00  0.00     0.013 C 
HETATM   10  C   LIG     1      25.066  22.209  22.904  1.00  0.00     0.034 C 
HETATM   11  C   LIG     1      25.265  20.859  22.129  1.00  0.00     0.144 C 
HETATM   12  F   LIG     1      24.038  20.223  22.028  1.00  0.00    -0.239 F 
HETATM   13  C   LIG     1      26.161  19.875  22.952  1.00  0.00     0.160 C 
HETATM   14  C   LIG     1      25.496  19.511  24.323  1.00  0.00     0.048 C 
HETATM   15  C   LIG     1      24.736  20.700  25.032  1.00  0.00     0.001 C 
HETATM   16  C   LIG     1      23.187  20.501  24.879  1.00  0.00     0.019 C 
HETATM   17  C   LIG     1      25.196  22.040  24.442  1.00  0.00     0.005 C 
HETATM   18  C   LIG     1      24.684  23.117  25.391  1.00  0.00     0.009 C 
HETATM   19  C   LIG     1      24.672  22.432  26.775  1.00  0.00     0.047 C 
HETATM   20  C   LIG     1      25.045  20.932  26.563  1.00  0.00     0.128 C 
HETATM   21  C   LIG     1      25.469  23.247  19.218  1.00  0.00     0.053 C 
ENDROOT
BRANCH  20  22
HETATM   22  C   LIG     1      26.508  20.649  26.970  1.00  0.00     0.184 C 
HETATM   23  O   LIG     1      26.782  19.552  27.438  1.00  0.00    -0.292 OA
BRANCH  22  24
HETATM   24  C   LIG     1      27.643  21.646  26.863  1.00  0.00     0.245 C 
BRANCH  24  25
HETATM   25  O   LIG     1      28.420  21.376  25.728  1.00  0.00    -0.393 OA
HETATM   26  H   LIG     1      29.370  21.485  25.997  1.00  0.00     0.209 HD
ENDBRANCH  24  25
ENDBRANCH  22  24
ENDBRANCH  20  22
BRANCH  20  27
HETATM   27  O   LIG     1      24.201  20.154  27.385  1.00  0.00    -0.381 OA
HETATM   28  H   LIG     1      23.718  19.514  26.802  1.00  0.00     0.211 HD
ENDBRANCH  20  27
BRANCH  13  29
HETATM   29  O   LIG     1      27.433  20.426  23.184  1.00  0.00    -0.392 OA
HETATM   30  H   LIG     1      27.702  20.157  24.100  1.00  0.00     0.210 HD
ENDBRANCH  13  29
TORSDOF 5
ENDMDL
MODEL 15
REMARK VINA RESULT:      -3.7      4.373      7.281
REMARK  5 active torsions:
REMARK  status: ('A' for Active; 'I' for Inactive)
REMARK    1  A    between atoms: C_13  and  O_14 
REMARK    2  A    between atoms: C_21  and  C_23 
REMARK    3  A    between atoms: C_21  and  O_22 
REMARK    4  A    between atoms: C_23  and  C_24 
REMARK    5  A    between atoms: C_24  and  O_25 
ROOT
HETATM    1  O   LIG     1      26.680  26.299  18.682  1.00  0.00    -0.293 OA
HETATM    2  C   LIG     1      26.810  25.299  19.435  1.00  0.00     0.149 C 
HETATM    3  C   LIG     1      27.649  25.412  20.673  1.00  0.00     0.084 C 
HETATM    4  C   LIG     1      27.317  24.301  21.681  1.00  0.00     0.025 C 
HETATM    5  C   LIG     1      27.243  22.882  21.034  1.00  0.00     0.019 C 
HETATM    6  C   LIG     1      28.657  22.491  20.528  1.00  0.00     0.023 C 
HETATM    7  C   LIG     1      26.297  22.923  19.816  1.00  0.00    -0.065 C 
HETATM    8  C   LIG     1      25.431  21.707  19.513  1.00  0.00     0.036 C 
HETATM    9  C   LIG     1      24.563  21.287  20.727  1.00  0.00     0.013 C 
HETATM   10  C   LIG     1      25.134  21.822  22.061  1.00  0.00     0.034 C 
HETATM   11  C   LIG     1      26.703  21.782  22.050  1.00  0.00     0.144 C 
HETATM   12  F   LIG     1      27.110  20.558  21.542  1.00  0.00    -0.239 F 
HETATM   13  C   LIG     1      27.268  21.820  23.508  1.00  0.00     0.160 C 
HETATM   14  C   LIG     1      26.794  20.577  24.335  1.00  0.00     0.048 C 
HETATM   15  C   LIG     1      25.310  20.116  24.053  1.00  0.00     0.001 C 
HETATM   16  C   LIG     1      25.320  18.812  23.180  1.00  0.00     0.019 C 
HETATM   17  C   LIG     1      24.531  21.248  23.372  1.00  0.00     0.005 C 
HETATM   18  C   LIG     1      23.061  20.854  23.446  1.00  0.00     0.009 C 
HETATM   19  C   LIG     1      22.953  20.027  24.744  1.00  0.00     0.047 C 
HETATM   20  C   LIG     1      24.395  19.847  25.312  1.00  0.00     0.128 C 
HETATM   21  C   LIG     1      26.148  24.035  19.077  1.00  0.00     0.053 C 
ENDROOT
BRANCH  20  22
HETATM   22  C   LIG     1      24.656  20.793  26.506  1.00  0.00     0.184 C 
HETATM   23  O   LIG     1      25.499  20.471  27.332  1.00  0.00    -0.292 OA
BRANCH  22  24
HETATM   24  C   LIG     1      23.919  22.092  26.755  1.00  0.00     0.245 C 
BRANCH  24  25
HETATM   25  O   LIG     1      24.690  23.178  26.316  1.00  0.00    -0.393 OA
HETATM   26  H   LIG     1      25.639  22.947  26.494  1.00  0.00     0.209 HD
ENDBRANCH  24  25
ENDBRANCH  22  24
ENDBRANCH  20  22
BRANCH  20  27
HETATM   27  O   LIG     1      24.520  18.518  25.769  1.00  0.00    -0.381 OA
HETATM   28  H   LIG     1      23.906  17.954  25.231  1.00  0.00     0.211 HD
ENDBRANCH  20  27
BRANCH  13  29
HETATM   29  O   LIG     1      26.876  22.997  24.170  1.00  0.00    -0.392 OA
HETATM   30  H   LIG     1      25.884  23.001  24.189  1.00  0.00     0.210 HD
ENDBRANCH  13  29
TORSDOF 5
ENDMDL
MODEL 16
REMARK VINA RESULT:      -3.6      9.728     13.397
REMARK  5 active torsions:
REMARK  status: ('A' for Active; 'I' for Inactive)
REMARK    1  A    between atoms: C_13  and  O_14 
REMARK    2  A    between atoms: C_21  and  C_23 
REMARK    3  A    between atoms: C_21  and  O_22 
REMARK    4  A    between atoms: C_23  and  C_24 
REMARK    5  A    between atoms: C_24  and  O_25 
ROOT
HETATM    1  O   LIG     1      26.408  27.841  33.777  1.00  0.00    -0.293 OA
HETATM    2  C   LIG     1      26.965  27.039  32.982  1.00  0.00     0.149 C 
HETATM    3  C   LIG     1      27.678  25.837  33.527  1.00  0.00     0.084 C 
HETATM    4  C   LIG     1      27.869  24.759  32.449  1.00  0.00     0.025 C 
HETATM    5  C   LIG     1      28.416  25.325  31.100  1.00  0.00     0.019 C 
HETATM    6  C   LIG     1      29.857  25.855  31.330  1.00  0.00     0.023 C 
HETATM    7  C   LIG     1      27.539  26.511  30.649  1.00  0.00    -0.065 C 
HETATM    8  C   LIG     1      27.287  26.719  29.161  1.00  0.00     0.036 C 
HETATM    9  C   LIG     1      26.696  25.455  28.484  1.00  0.00     0.013 C 
HETATM   10  C   LIG     1      26.984  24.173  29.298  1.00  0.00     0.034 C 
HETATM   11  C   LIG     1      28.414  24.233  29.942  1.00  0.00     0.144 C 
HETATM   12  F   LIG     1      29.310  24.686  28.986  1.00  0.00    -0.239 F 
HETATM   13  C   LIG     1      28.915  22.798  30.314  1.00  0.00     0.160 C 
HETATM   14  C   LIG     1      29.034  21.889  29.044  1.00  0.00     0.048 C 
HETATM   15  C   LIG     1      27.897  22.097  27.967  1.00  0.00     0.001 C 
HETATM   16  C   LIG     1      28.468  22.898  26.745  1.00  0.00     0.019 C 
HETATM   17  C   LIG     1      26.699  22.813  28.604  1.00  0.00     0.005 C 
HETATM   18  C   LIG     1      25.547  22.669  27.616  1.00  0.00     0.009 C 
HETATM   19  C   LIG     1      25.817  21.325  26.908  1.00  0.00     0.047 C 
HETATM   20  C   LIG     1      27.197  20.796  27.409  1.00  0.00     0.128 C 
HETATM   21  C   LIG     1      26.917  27.304  31.537  1.00  0.00     0.053 C 
ENDROOT
BRANCH  20  22
HETATM   22  C   LIG     1      27.027  19.665  28.448  1.00  0.00     0.184 C 
HETATM   23  O   LIG     1      26.396  19.901  29.469  1.00  0.00    -0.292 OA
BRANCH  22  24
HETATM   24  C   LIG     1      27.614  18.276  28.316  1.00  0.00     0.245 C 
BRANCH  24  25
HETATM   25  O   LIG     1      29.010  18.347  28.212  1.00  0.00    -0.393 OA
HETATM   26  H   LIG     1      29.380  17.654  28.819  1.00  0.00     0.209 HD
ENDBRANCH  24  25
ENDBRANCH  22  24
ENDBRANCH  20  22
BRANCH  20  27
HETATM   27  O   LIG     1      27.892  20.271  26.297  1.00  0.00    -0.381 OA
HETATM   28  H   LIG     1      27.781  20.907  25.544  1.00  0.00     0.211 HD
ENDBRANCH  20  27
BRANCH  13  29
HETATM   29  O   LIG     1      28.054  22.190  31.243  1.00  0.00    -0.392 OA
HETATM   30  H   LIG     1      27.339  21.740  30.723  1.00  0.00     0.210 HD
ENDBRANCH  13  29
TORSDOF 5
ENDMDL
MODEL 17
REMARK VINA RESULT:      -3.5      4.588      8.292
REMARK  5 active torsions:
REMARK  status: ('A' for Active; 'I' for Inactive)
REMARK    1  A    between atoms: C_13  and  O_14 
REMARK    2  A    between atoms: C_21  and  C_23 
REMARK    3  A    between atoms: C_21  and  O_22 
REMARK    4  A    between atoms: C_23  and  C_24 
REMARK    5  A    between atoms: C_24  and  O_25 
ROOT
HETATM    1  O   LIG     1      30.003  22.582  28.171  1.00  0.00    -0.293 OA
HETATM    2  C   LIG     1      29.430  22.639  27.052  1.00  0.00     0.149 C 
HETATM    3  C   LIG     1      30.047  21.952  25.871  1.00  0.00     0.084 C 
HETATM    4  C   LIG     1      29.020  21.720  24.753  1.00  0.00     0.025 C 
HETATM    5  C   LIG     1      28.159  22.983  24.434  1.00  0.00     0.019 C 
HETATM    6  C   LIG     1      29.085  24.080  23.843  1.00  0.00     0.023 C 
HETATM    7  C   LIG     1      27.548  23.530  25.741  1.00  0.00    -0.065 C 
HETATM    8  C   LIG     1      26.155  24.143  25.704  1.00  0.00     0.036 C 
HETATM    9  C   LIG     1      25.103  23.176  25.101  1.00  0.00     0.013 C 
HETATM   10  C   LIG     1      25.757  22.082  24.226  1.00  0.00     0.034 C 
HETATM   11  C   LIG     1      26.972  22.666  23.423  1.00  0.00     0.144 C 
HETATM   12  F   LIG     1      26.597  23.884  22.877  1.00  0.00    -0.239 F 
HETATM   13  C   LIG     1      27.308  21.761  22.191  1.00  0.00     0.160 C 
HETATM   14  C   LIG     1      26.104  21.689  21.192  1.00  0.00     0.048 C 
HETATM   15  C   LIG     1      24.678  21.639  21.869  1.00  0.00     0.001 C 
HETATM   16  C   LIG     1      23.975  23.034  21.722  1.00  0.00     0.019 C 
HETATM   17  C   LIG     1      24.813  21.224  23.340  1.00  0.00     0.005 C 
HETATM   18  C   LIG     1      23.406  20.876  23.811  1.00  0.00     0.009 C 
HETATM   19  C   LIG     1      22.700  20.346  22.545  1.00  0.00     0.047 C 
HETATM   20  C   LIG     1      23.678  20.535  21.344  1.00  0.00     0.128 C 
HETATM   21  C   LIG     1      28.173  23.392  26.922  1.00  0.00     0.053 C 
ENDROOT
BRANCH  20  22
HETATM   22  C   LIG     1      24.349  19.202  20.944  1.00  0.00     0.184 C 
HETATM   23  O   LIG     1      24.624  19.018  19.766  1.00  0.00    -0.292 OA
BRANCH  22  24
HETATM   24  C   LIG     1      24.671  18.075  21.903  1.00  0.00     0.245 C 
BRANCH  24  25
HETATM   25  O   LIG     1      26.029  18.106  22.248  1.00  0.00    -0.393 OA
HETATM   26  H   LIG     1      26.294  19.062  22.291  1.00  0.00     0.209 HD
ENDBRANCH  24  25
ENDBRANCH  22  24
ENDBRANCH  20  22
BRANCH  20  27
HETATM   27  O   LIG     1      22.928  20.998  20.241  1.00  0.00    -0.381 OA
HETATM   28  H   LIG     1      23.077  20.369  19.489  1.00  0.00     0.211 HD
ENDBRANCH  20  27
BRANCH  13  29
HETATM   29  O   LIG     1      27.652  20.461  22.600  1.00  0.00    -0.392 OA
HETATM   30  H   LIG     1      28.050  20.006  21.814  1.00  0.00     0.210 HD
ENDBRANCH  13  29
TORSDOF 5
ENDMDL
MODEL 18
REMARK VINA RESULT:      -3.5      2.845      5.321
REMARK  5 active torsions:
REMARK  status: ('A' for Active; 'I' for Inactive)
REMARK    1  A    between atoms: C_13  and  O_14 
REMARK    2  A    between atoms: C_21  and  C_23 
REMARK    3  A    between atoms: C_21  and  O_22 
REMARK    4  A    between atoms: C_23  and  C_24 
REMARK    5  A    between atoms: C_24  and  O_25 
ROOT
HETATM    1  O   LIG     1      24.099  20.964  26.149  1.00  0.00    -0.293 OA
HETATM    2  C   LIG     1      24.239  21.279  24.938  1.00  0.00     0.149 C 
HETATM    3  C   LIG     1      24.549  22.701  24.577  1.00  0.00     0.084 C 
HETATM    4  C   LIG     1      25.142  22.806  23.164  1.00  0.00     0.025 C 
HETATM    5  C   LIG     1      24.346  21.989  22.098  1.00  0.00     0.019 C 
HETATM    6  C   LIG     1      22.936  22.619  21.939  1.00  0.00     0.023 C 
HETATM    7  C   LIG     1      24.166  20.539  22.593  1.00  0.00    -0.065 C 
HETATM    8  C   LIG     1      24.195  19.404  21.579  1.00  0.00     0.036 C 
HETATM    9  C   LIG     1      25.487  19.416  20.722  1.00  0.00     0.013 C 
HETATM   10  C   LIG     1      26.164  20.806  20.713  1.00  0.00     0.034 C 
HETATM   11  C   LIG     1      25.088  21.948  20.691  1.00  0.00     0.144 C 
HETATM   12  F   LIG     1      24.118  21.623  19.755  1.00  0.00    -0.239 F 
HETATM   13  C   LIG     1      25.711  23.287  20.174  1.00  0.00     0.160 C 
HETATM   14  C   LIG     1      26.239  23.140  18.706  1.00  0.00     0.048 C 
HETATM   15  C   LIG     1      26.915  21.752  18.377  1.00  0.00     0.001 C 
HETATM   16  C   LIG     1      25.941  20.884  17.505  1.00  0.00     0.019 C 
HETATM   17  C   LIG     1      27.300  21.035  19.678  1.00  0.00     0.005 C 
HETATM   18  C   LIG     1      28.228  19.896  19.275  1.00  0.00     0.009 C 
HETATM   19  C   LIG     1      28.950  20.419  18.015  1.00  0.00     0.047 C 
HETATM   20  C   LIG     1      28.313  21.794  17.643  1.00  0.00     0.128 C 
HETATM   21  C   LIG     1      24.080  20.248  23.901  1.00  0.00     0.053 C 
ENDROOT
BRANCH  20  22
HETATM   22  C   LIG     1      29.221  22.972  18.065  1.00  0.00     0.184 C 
HETATM   23  O   LIG     1      30.189  22.736  18.774  1.00  0.00    -0.292 OA
BRANCH  22  24
HETATM   24  C   LIG     1      28.987  24.420  17.689  1.00  0.00     0.245 C 
BRANCH  24  25
HETATM   25  O   LIG     1      28.440  24.504  16.401  1.00  0.00    -0.393 OA
HETATM   26  H   LIG     1      29.031  25.105  15.877  1.00  0.00     0.209 HD
ENDBRANCH  24  25
ENDBRANCH  22  24
ENDBRANCH  20  22
BRANCH  20  27
HETATM   27  O   LIG     1      28.160  21.838  16.240  1.00  0.00    -0.381 OA
HETATM   28  H   LIG     1      27.950  20.919  15.930  1.00  0.00     0.211 HD
ENDBRANCH  20  27
BRANCH  13  29
HETATM   29  O   LIG     1      26.763  23.707  21.007  1.00  0.00    -0.392 OA
HETATM   30  H   LIG     1      26.421  23.682  21.938  1.00  0.00     0.210 HD
ENDBRANCH  13  29
TORSDOF 5
ENDMDL
MODEL 19
REMARK VINA RESULT:      -3.4     10.860     14.572
REMARK  5 active torsions:
REMARK  status: ('A' for Active; 'I' for Inactive)
REMARK    1  A    between atoms: C_13  and  O_14 
REMARK    2  A    between atoms: C_21  and  C_23 
REMARK    3  A    between atoms: C_21  and  O_22 
REMARK    4  A    between atoms: C_23  and  C_24 
REMARK    5  A    between atoms: C_24  and  O_25 
ROOT
HETATM    1  O   LIG     1      26.550  28.638  35.276  1.00  0.00    -0.293 OA
HETATM    2  C   LIG     1      27.159  27.901  34.457  1.00  0.00     0.149 C 
HETATM    3  C   LIG     1      27.610  26.537  34.887  1.00  0.00     0.084 C 
HETATM    4  C   LIG     1      27.887  25.629  33.679  1.00  0.00     0.025 C 
HETATM    5  C   LIG     1      28.751  26.318  32.575  1.00  0.00     0.019 C 
HETATM    6  C   LIG     1      30.168  26.589  33.147  1.00  0.00     0.023 C 
HETATM    7  C   LIG     1      28.120  27.676  32.204  1.00  0.00    -0.065 C 
HETATM    8  C   LIG     1      28.192  28.153  30.759  1.00  0.00     0.036 C 
HETATM    9  C   LIG     1      27.607  27.113  29.768  1.00  0.00     0.013 C 
HETATM   10  C   LIG     1      27.582  25.689  30.369  1.00  0.00     0.034 C 
HETATM   11  C   LIG     1      28.854  25.437  31.253  1.00  0.00     0.144 C 
HETATM   12  F   LIG     1      29.967  25.901  30.569  1.00  0.00    -0.239 F 
HETATM   13  C   LIG     1      29.107  23.904  31.436  1.00  0.00     0.160 C 
HETATM   14  C   LIG     1      29.371  23.202  30.060  1.00  0.00     0.048 C 
HETATM   15  C   LIG     1      28.500  23.742  28.859  1.00  0.00     0.001 C 
HETATM   16  C   LIG     1      29.388  24.636  27.924  1.00  0.00     0.019 C 
HETATM   17  C   LIG     1      27.288  24.514  29.397  1.00  0.00     0.005 C 
HETATM   18  C   LIG     1      26.346  24.699  28.214  1.00  0.00     0.009 C 
HETATM   19  C   LIG     1      26.597  23.460  27.328  1.00  0.00     0.047 C 
HETATM   20  C   LIG     1      27.782  22.663  27.957  1.00  0.00     0.128 C 
HETATM   21  C   LIG     1      27.428  28.399  33.100  1.00  0.00     0.053 C 
ENDROOT
BRANCH  20  22
HETATM   22  C   LIG     1      27.284  21.417  28.723  1.00  0.00     0.184 C 
HETATM   23  O   LIG     1      28.065  20.493  28.904  1.00  0.00    -0.292 OA
BRANCH  22  24
HETATM   24  C   LIG     1      25.877  21.233  29.251  1.00  0.00     0.245 C 
BRANCH  24  25
HETATM   25  O   LIG     1      25.521  19.878  29.219  1.00  0.00    -0.393 OA
HETATM   26  H   LIG     1      25.694  19.556  28.296  1.00  0.00     0.209 HD
ENDBRANCH  24  25
ENDBRANCH  22  24
ENDBRANCH  20  22
BRANCH  20  27
HETATM   27  O   LIG     1      28.619  22.227  26.906  1.00  0.00    -0.381 OA
HETATM   28  H   LIG     1      29.488  22.697  26.997  1.00  0.00     0.211 HD
ENDBRANCH  20  27
BRANCH  13  29
HETATM   29  O   LIG     1      28.016  23.286  32.072  1.00  0.00    -0.392 OA
HETATM   30  H   LIG     1      27.827  22.449  31.574  1.00  0.00     0.210 HD
ENDBRANCH  13  29
TORSDOF 5
ENDMDL
