REMARK  0 active torsions:
REMARK  status: ('A' for Active; 'I' for Inactive)
ROOT
HETATM    1 CL   LIG     1       1.239   1.799   0.119  1.00  0.00    -0.068 Cl
HETATM    2  C   LIG     1       0.657   0.139   0.036  1.00  0.00     0.136 C 
HETATM    3 CL   LIG     1       1.867  -1.140   0.049  1.00  0.00    -0.068 Cl
HETATM    4  C   LIG     1      -0.657  -0.139  -0.036  1.00  0.00     0.136 C 
HETATM    5 CL   LIG     1      -1.239  -1.799  -0.119  1.00  0.00    -0.068 Cl
HETATM    6 CL   LIG     1      -1.867   1.140  -0.049  1.00  0.00    -0.068 Cl
ENDROOT
TORSDOF 0
