MODEL 1
REMARK VINA RESULT:      -3.9      0.000      0.000
REMARK  0 active torsions:
REMARK  status: ('A' for Active; 'I' for Inactive)
REMARK       I    between atoms: C_2  and  N_3 
ROOT
HETATM    1  C   LIG     1      17.935  35.023  26.127  1.00  0.00     0.117 C 
HETATM    2  C   LIG     1      17.385  35.613  24.864  1.00  0.00     0.215 C 
HETATM    3  N   LIG     1      17.146  37.032  24.735  1.00  0.00    -0.361 N 
HETATM    4  C   LIG     1      17.439  37.942  25.848  1.00  0.00     0.152 C 
HETATM    5  C   LIG     1      16.606  37.555  23.477  1.00  0.00     0.152 C 
HETATM    6  O   LIG     1      17.128  34.843  23.898  1.00  0.00    -0.274 OA
ENDROOT
TORSDOF 0
ENDMDL
MODEL 2
REMARK VINA RESULT:      -3.9      1.972      2.438
REMARK  0 active torsions:
REMARK  status: ('A' for Active; 'I' for Inactive)
REMARK       I    between atoms: C_2  and  N_3 
ROOT
HETATM    1  C   LIG     1      18.178  36.662  26.138  1.00  0.00     0.117 C 
HETATM    2  C   LIG     1      17.363  37.464  25.168  1.00  0.00     0.215 C 
HETATM    3  N   LIG     1      16.840  36.878  23.956  1.00  0.00    -0.361 N 
HETATM    4  C   LIG     1      17.095  35.468  23.639  1.00  0.00     0.152 C 
HETATM    5  C   LIG     1      16.049  37.709  23.044  1.00  0.00     0.152 C 
HETATM    6  O   LIG     1      17.135  38.677  25.428  1.00  0.00    -0.274 OA
ENDROOT
TORSDOF 0
ENDMDL
MODEL 3
REMARK VINA RESULT:      -3.9      1.902      3.199
REMARK  0 active torsions:
REMARK  status: ('A' for Active; 'I' for Inactive)
REMARK       I    between atoms: C_2  and  N_3 
ROOT
HETATM    1  C   LIG     1      16.276  37.549  23.389  1.00  0.00     0.117 C 
HETATM    2  C   LIG     1      16.990  37.550  24.707  1.00  0.00     0.215 C 
HETATM    3  N   LIG     1      17.484  36.329  25.299  1.00  0.00    -0.361 N 
HETATM    4  C   LIG     1      17.299  35.042  24.619  1.00  0.00     0.152 C 
HETATM    5  C   LIG     1      18.176  36.390  26.591  1.00  0.00     0.152 C 
HETATM    6  O   LIG     1      17.157  38.650  25.303  1.00  0.00    -0.274 OA
ENDROOT
TORSDOF 0
ENDMDL
MODEL 4
REMARK VINA RESULT:      -3.7      1.696      2.586
REMARK  0 active torsions:
REMARK  status: ('A' for Active; 'I' for Inactive)
REMARK       I    between atoms: C_2  and  N_3 
ROOT
HETATM    1  C   LIG     1      16.868  35.333  22.532  1.00  0.00     0.117 C 
HETATM    2  C   LIG     1      17.007  36.554  23.390  1.00  0.00     0.215 C 
HETATM    3  N   LIG     1      17.301  36.457  24.801  1.00  0.00    -0.361 N 
HETATM    4  C   LIG     1      17.475  35.147  25.438  1.00  0.00     0.152 C 
HETATM    5  C   LIG     1      17.426  37.685  25.591  1.00  0.00     0.152 C 
HETATM    6  O   LIG     1      16.861  37.688  22.856  1.00  0.00    -0.274 OA
ENDROOT
TORSDOF 0
ENDMDL
MODEL 5
REMARK VINA RESULT:      -3.6      4.178      5.155
REMARK  0 active torsions:
REMARK  status: ('A' for Active; 'I' for Inactive)
REMARK       I    between atoms: C_2  and  N_3 
ROOT
HETATM    1  C   LIG     1      19.998  38.687  19.459  1.00  0.00     0.117 C 
HETATM    2  C   LIG     1      19.014  37.656  19.924  1.00  0.00     0.215 C 
HETATM    3  N   LIG     1      18.151  37.892  21.058  1.00  0.00    -0.361 N 
HETATM    4  C   LIG     1      18.215  39.161  21.792  1.00  0.00     0.152 C 
HETATM    5  C   LIG     1      17.208  36.847  21.468  1.00  0.00     0.152 C 
HETATM    6  O   LIG     1      18.948  36.560  19.302  1.00  0.00    -0.274 OA
ENDROOT
TORSDOF 0
ENDMDL
MODEL 6
REMARK VINA RESULT:      -3.6      0.942      2.468
REMARK  0 active torsions:
REMARK  status: ('A' for Active; 'I' for Inactive)
REMARK       I    between atoms: C_2  and  N_3 
ROOT
HETATM    1  C   LIG     1      16.830  37.654  22.643  1.00  0.00     0.117 C 
HETATM    2  C   LIG     1      17.001  36.361  23.382  1.00  0.00     0.215 C 
HETATM    3  N   LIG     1      17.319  36.333  24.791  1.00  0.00    -0.361 N 
HETATM    4  C   LIG     1      17.483  37.581  25.543  1.00  0.00     0.152 C 
HETATM    5  C   LIG     1      17.474  35.039  25.463  1.00  0.00     0.152 C 
HETATM    6  O   LIG     1      16.862  35.279  22.748  1.00  0.00    -0.274 OA
ENDROOT
TORSDOF 0
ENDMDL
MODEL 7
REMARK VINA RESULT:      -3.5      7.478      8.112
REMARK  0 active torsions:
REMARK  status: ('A' for Active; 'I' for Inactive)
REMARK       I    between atoms: C_2  and  N_3 
ROOT
HETATM    1  C   LIG     1      14.859  31.345  19.960  1.00  0.00     0.117 C 
HETATM    2  C   LIG     1      15.141  32.540  19.100  1.00  0.00     0.215 C 
HETATM    3  N   LIG     1      14.699  32.604  17.727  1.00  0.00    -0.361 N 
HETATM    4  C   LIG     1      13.954  31.490  17.131  1.00  0.00     0.152 C 
HETATM    5  C   LIG     1      15.004  33.798  16.932  1.00  0.00     0.152 C 
HETATM    6  O   LIG     1      15.782  33.506  19.600  1.00  0.00    -0.274 OA
ENDROOT
TORSDOF 0
ENDMDL
MODEL 8
REMARK VINA RESULT:      -3.5      4.099      5.005
REMARK  0 active torsions:
REMARK  status: ('A' for Active; 'I' for Inactive)
REMARK       I    between atoms: C_2  and  N_3 
ROOT
HETATM    1  C   LIG     1      19.189  37.220  19.504  1.00  0.00     0.117 C 
HETATM    2  C   LIG     1      18.729  38.231  20.511  1.00  0.00     0.215 C 
HETATM    3  N   LIG     1      17.715  37.914  21.490  1.00  0.00    -0.361 N 
HETATM    4  C   LIG     1      17.103  36.582  21.526  1.00  0.00     0.152 C 
HETATM    5  C   LIG     1      17.304  38.943  22.451  1.00  0.00     0.152 C 
HETATM    6  O   LIG     1      19.247  39.381  20.493  1.00  0.00    -0.274 OA
ENDROOT
TORSDOF 0
ENDMDL
MODEL 9
REMARK VINA RESULT:      -3.5      3.383      3.876
REMARK  0 active torsions:
REMARK  status: ('A' for Active; 'I' for Inactive)
REMARK       I    between atoms: C_2  and  N_3 
ROOT
HETATM    1  C   LIG     1      16.820  35.289  21.455  1.00  0.00     0.117 C 
HETATM    2  C   LIG     1      17.557  36.468  20.893  1.00  0.00     0.215 C 
HETATM    3  N   LIG     1      17.631  37.722  21.606  1.00  0.00    -0.361 N 
HETATM    4  C   LIG     1      16.983  37.877  22.913  1.00  0.00     0.152 C 
HETATM    5  C   LIG     1      18.365  38.841  21.008  1.00  0.00     0.152 C 
HETATM    6  O   LIG     1      18.120  36.349  19.770  1.00  0.00    -0.274 OA
ENDROOT
TORSDOF 0
ENDMDL
MODEL 10
REMARK VINA RESULT:      -3.4      3.663      4.397
REMARK  0 active torsions:
REMARK  status: ('A' for Active; 'I' for Inactive)
REMARK       I    between atoms: C_2  and  N_3 
ROOT
HETATM    1  C   LIG     1      18.495  39.285  21.680  1.00  0.00     0.117 C 
HETATM    2  C   LIG     1      17.284  38.516  22.115  1.00  0.00     0.215 C 
HETATM    3  N   LIG     1      17.010  37.191  21.611  1.00  0.00    -0.361 N 
HETATM    4  C   LIG     1      17.920  36.555  20.651  1.00  0.00     0.152 C 
HETATM    5  C   LIG     1      15.811  36.485  22.071  1.00  0.00     0.152 C 
HETATM    6  O   LIG     1      16.493  39.050  22.941  1.00  0.00    -0.274 OA
ENDROOT
TORSDOF 0
ENDMDL
MODEL 11
REMARK VINA RESULT:      -3.4      1.765      2.777
REMARK  0 active torsions:
REMARK  status: ('A' for Active; 'I' for Inactive)
REMARK       I    between atoms: C_2  and  N_3 
ROOT
HETATM    1  C   LIG     1      16.943  35.989  21.283  1.00  0.00     0.117 C 
HETATM    2  C   LIG     1      17.000  36.163  22.771  1.00  0.00     0.215 C 
HETATM    3  N   LIG     1      16.967  37.472  23.380  1.00  0.00    -0.361 N 
HETATM    4  C   LIG     1      16.874  38.678  22.551  1.00  0.00     0.152 C 
HETATM    5  C   LIG     1      17.025  37.582  24.841  1.00  0.00     0.152 C 
HETATM    6  O   LIG     1      17.079  35.134  23.497  1.00  0.00    -0.274 OA
ENDROOT
TORSDOF 0
ENDMDL
MODEL 12
REMARK VINA RESULT:      -3.4      2.896      3.549
REMARK  0 active torsions:
REMARK  status: ('A' for Active; 'I' for Inactive)
REMARK       I    between atoms: C_2  and  N_3 
ROOT
HETATM    1  C   LIG     1      16.847  35.172  22.576  1.00  0.00     0.117 C 
HETATM    2  C   LIG     1      16.994  36.663  22.622  1.00  0.00     0.215 C 
HETATM    3  N   LIG     1      17.600  37.396  21.536  1.00  0.00    -0.361 N 
HETATM    4  C   LIG     1      18.093  36.694  20.346  1.00  0.00     0.152 C 
HETATM    5  C   LIG     1      17.718  38.854  21.635  1.00  0.00     0.152 C 
HETATM    6  O   LIG     1      16.574  37.281  23.640  1.00  0.00    -0.274 OA
ENDROOT
TORSDOF 0
ENDMDL
MODEL 13
REMARK VINA RESULT:      -3.3      2.730      3.695
REMARK  0 active torsions:
REMARK  status: ('A' for Active; 'I' for Inactive)
REMARK       I    between atoms: C_2  and  N_3 
ROOT
HETATM    1  C   LIG     1      18.016  39.161  21.823  1.00  0.00     0.117 C 
HETATM    2  C   LIG     1      17.728  37.701  21.644  1.00  0.00     0.215 C 
HETATM    3  N   LIG     1      17.051  36.934  22.664  1.00  0.00    -0.361 N 
HETATM    4  C   LIG     1      16.622  37.571  23.914  1.00  0.00     0.152 C 
HETATM    5  C   LIG     1      16.795  35.509  22.435  1.00  0.00     0.152 C 
HETATM    6  O   LIG     1      18.091  37.139  20.573  1.00  0.00    -0.274 OA
ENDROOT
TORSDOF 0
ENDMDL
MODEL 14
REMARK VINA RESULT:      -3.3      3.747      4.622
REMARK  0 active torsions:
REMARK  status: ('A' for Active; 'I' for Inactive)
REMARK       I    between atoms: C_2  and  N_3 
ROOT
HETATM    1  C   LIG     1      17.031  38.443  22.438  1.00  0.00     0.117 C 
HETATM    2  C   LIG     1      17.588  37.522  21.396  1.00  0.00     0.215 C 
HETATM    3  N   LIG     1      18.574  37.970  20.439  1.00  0.00    -0.361 N 
HETATM    4  C   LIG     1      19.061  39.354  20.464  1.00  0.00     0.152 C 
HETATM    5  C   LIG     1      19.084  37.025  19.442  1.00  0.00     0.152 C 
HETATM    6  O   LIG     1      17.179  36.328  21.362  1.00  0.00    -0.274 OA
ENDROOT
TORSDOF 0
ENDMDL
MODEL 15
REMARK VINA RESULT:      -3.2     10.478     11.139
REMARK  0 active torsions:
REMARK  status: ('A' for Active; 'I' for Inactive)
REMARK       I    between atoms: C_2  and  N_3 
ROOT
HETATM    1  C   LIG     1      14.228  32.202  17.372  1.00  0.00     0.117 C 
HETATM    2  C   LIG     1      13.760  31.105  16.465  1.00  0.00     0.215 C 
HETATM    3  N   LIG     1      14.447  30.801  15.232  1.00  0.00    -0.361 N 
HETATM    4  C   LIG     1      15.633  31.564  14.831  1.00  0.00     0.152 C 
HETATM    5  C   LIG     1      13.945  29.716  14.383  1.00  0.00     0.152 C 
HETATM    6  O   LIG     1      12.740  30.439  16.797  1.00  0.00    -0.274 OA
ENDROOT
TORSDOF 0
ENDMDL
MODEL 16
REMARK VINA RESULT:      -3.2     10.772     11.417
REMARK  0 active torsions:
REMARK  status: ('A' for Active; 'I' for Inactive)
REMARK       I    between atoms: C_2  and  N_3 
ROOT
HETATM    1  C   LIG     1      14.371  29.558  14.169  1.00  0.00     0.117 C 
HETATM    2  C   LIG     1      15.156  30.793  14.491  1.00  0.00     0.215 C 
HETATM    3  N   LIG     1      14.878  31.579  15.670  1.00  0.00    -0.361 N 
HETATM    4  C   LIG     1      13.809  31.184  16.595  1.00  0.00     0.152 C 
HETATM    5  C   LIG     1      15.678  32.779  15.935  1.00  0.00     0.152 C 
HETATM    6  O   LIG     1      16.079  31.145  13.705  1.00  0.00    -0.274 OA
ENDROOT
TORSDOF 0
ENDMDL
MODEL 17
REMARK VINA RESULT:      -3.2     10.590     11.237
REMARK  0 active torsions:
REMARK  status: ('A' for Active; 'I' for Inactive)
REMARK       I    between atoms: C_2  and  N_3 
ROOT
HETATM    1  C   LIG     1      14.177  30.356  14.916  1.00  0.00     0.117 C 
HETATM    2  C   LIG     1      15.391  31.106  14.460  1.00  0.00     0.215 C 
HETATM    3  N   LIG     1      15.904  32.235  15.201  1.00  0.00    -0.361 N 
HETATM    4  C   LIG     1      15.244  32.681  16.432  1.00  0.00     0.152 C 
HETATM    5  C   LIG     1      17.096  32.932  14.708  1.00  0.00     0.152 C 
HETATM    6  O   LIG     1      15.971  30.734  13.403  1.00  0.00    -0.274 OA
ENDROOT
TORSDOF 0
ENDMDL
MODEL 18
REMARK VINA RESULT:      -3.1     11.129     11.793
REMARK  0 active torsions:
REMARK  status: ('A' for Active; 'I' for Inactive)
REMARK       I    between atoms: C_2  and  N_3 
ROOT
HETATM    1  C   LIG     1      16.233  32.331  15.248  1.00  0.00     0.117 C 
HETATM    2  C   LIG     1      15.524  31.220  14.534  1.00  0.00     0.215 C 
HETATM    3  N   LIG     1      14.356  30.584  15.097  1.00  0.00    -0.361 N 
HETATM    4  C   LIG     1      13.825  31.014  16.395  1.00  0.00     0.152 C 
HETATM    5  C   LIG     1      13.703  29.502  14.354  1.00  0.00     0.152 C 
HETATM    6  O   LIG     1      15.969  30.839  13.416  1.00  0.00    -0.274 OA
ENDROOT
TORSDOF 0
ENDMDL
MODEL 19
REMARK VINA RESULT:      -3.1      9.415     10.077
REMARK  0 active torsions:
REMARK  status: ('A' for Active; 'I' for Inactive)
REMARK       I    between atoms: C_2  and  N_3 
ROOT
HETATM    1  C   LIG     1      14.202  32.614  16.945  1.00  0.00     0.117 C 
HETATM    2  C   LIG     1      15.404  33.298  16.368  1.00  0.00     0.215 C 
HETATM    3  N   LIG     1      16.156  32.715  15.281  1.00  0.00    -0.361 N 
HETATM    4  C   LIG     1      15.758  31.425  14.707  1.00  0.00     0.152 C 
HETATM    5  C   LIG     1      17.324  33.429  14.756  1.00  0.00     0.152 C 
HETATM    6  O   LIG     1      15.758  34.409  16.851  1.00  0.00    -0.274 OA
ENDROOT
TORSDOF 0
ENDMDL
MODEL 20
REMARK VINA RESULT:      -3.1     10.321     11.071
REMARK  0 active torsions:
REMARK  status: ('A' for Active; 'I' for Inactive)
REMARK       I    between atoms: C_2  and  N_3 
ROOT
HETATM    1  C   LIG     1      17.205  32.967  14.754  1.00  0.00     0.117 C 
HETATM    2  C   LIG     1      16.058  32.401  15.533  1.00  0.00     0.215 C 
HETATM    3  N   LIG     1      15.206  31.371  14.984  1.00  0.00    -0.361 N 
HETATM    4  C   LIG     1      15.446  30.846  13.636  1.00  0.00     0.152 C 
HETATM    5  C   LIG     1      14.098  30.854  15.792  1.00  0.00     0.152 C 
HETATM    6  O   LIG     1      15.840  32.842  16.695  1.00  0.00    -0.274 OA
ENDROOT
TORSDOF 0
ENDMDL
