MODEL 1
REMARK VINA RESULT:      -4.3      0.000      0.000
REMARK  0 active torsions:
REMARK  status: ('A' for Active; 'I' for Inactive)
ROOT
HETATM    1 CL   LIG     1      17.361  37.997  25.628  1.00  0.00    -0.068 Cl
HETATM    2  C   LIG     1      17.243  36.541  24.644  1.00  0.00     0.136 C 
HETATM    3 CL   LIG     1      17.463  34.997  25.462  1.00  0.00    -0.068 Cl
HETATM    4  C   LIG     1      16.996  36.607  23.324  1.00  0.00     0.136 C 
HETATM    5 CL   LIG     1      16.878  35.151  22.340  1.00  0.00    -0.068 Cl
HETATM    6 CL   LIG     1      16.776  38.151  22.507  1.00  0.00    -0.068 Cl
ENDROOT
TORSDOF 0
ENDMDL
MODEL 2
REMARK VINA RESULT:      -4.3      0.142      2.458
REMARK  0 active torsions:
REMARK  status: ('A' for Active; 'I' for Inactive)
ROOT
HETATM    1 CL   LIG     1      17.574  34.969  25.571  1.00  0.00    -0.068 Cl
HETATM    2  C   LIG     1      17.289  36.508  24.763  1.00  0.00     0.136 C 
HETATM    3 CL   LIG     1      17.344  37.961  25.756  1.00  0.00    -0.068 Cl
HETATM    4  C   LIG     1      17.039  36.569  23.443  1.00  0.00     0.136 C 
HETATM    5 CL   LIG     1      16.755  38.107  22.635  1.00  0.00    -0.068 Cl
HETATM    6 CL   LIG     1      16.984  35.116  22.450  1.00  0.00    -0.068 Cl
ENDROOT
TORSDOF 0
ENDMDL
MODEL 3
REMARK VINA RESULT:      -4.3      0.111      3.656
REMARK  0 active torsions:
REMARK  status: ('A' for Active; 'I' for Inactive)
ROOT
HETATM    1 CL   LIG     1      16.870  35.164  22.381  1.00  0.00    -0.068 Cl
HETATM    2  C   LIG     1      16.966  36.594  23.403  1.00  0.00     0.136 C 
HETATM    3 CL   LIG     1      16.664  38.152  22.639  1.00  0.00    -0.068 Cl
HETATM    4  C   LIG     1      17.259  36.501  24.713  1.00  0.00     0.136 C 
HETATM    5 CL   LIG     1      17.355  37.932  25.735  1.00  0.00    -0.068 Cl
HETATM    6 CL   LIG     1      17.561  34.944  25.477  1.00  0.00    -0.068 Cl
ENDROOT
TORSDOF 0
ENDMDL
MODEL 4
REMARK VINA RESULT:      -4.3      0.072      2.711
REMARK  0 active torsions:
REMARK  status: ('A' for Active; 'I' for Inactive)
ROOT
HETATM    1 CL   LIG     1      16.691  38.118  22.565  1.00  0.00    -0.068 Cl
HETATM    2  C   LIG     1      16.979  36.573  23.360  1.00  0.00     0.136 C 
HETATM    3 CL   LIG     1      16.905  35.126  22.359  1.00  0.00    -0.068 Cl
HETATM    4  C   LIG     1      17.243  36.503  24.677  1.00  0.00     0.136 C 
HETATM    5 CL   LIG     1      17.531  34.958  25.472  1.00  0.00    -0.068 Cl
HETATM    6 CL   LIG     1      17.317  37.950  25.677  1.00  0.00    -0.068 Cl
ENDROOT
TORSDOF 0
ENDMDL
MODEL 5
REMARK VINA RESULT:      -4.3      0.574      2.589
REMARK  0 active torsions:
REMARK  status: ('A' for Active; 'I' for Inactive)
ROOT
HETATM    1 CL   LIG     1      17.293  38.068  25.742  1.00  0.00    -0.068 Cl
HETATM    2  C   LIG     1      17.090  37.255  24.193  1.00  0.00     0.136 C 
HETATM    3 CL   LIG     1      16.782  38.267  22.786  1.00  0.00    -0.068 Cl
HETATM    4  C   LIG     1      17.166  35.916  24.091  1.00  0.00     0.136 C 
HETATM    5 CL   LIG     1      16.963  35.102  22.542  1.00  0.00    -0.068 Cl
HETATM    6 CL   LIG     1      17.475  34.903  25.498  1.00  0.00    -0.068 Cl
ENDROOT
TORSDOF 0
ENDMDL
MODEL 6
REMARK VINA RESULT:      -4.3      0.577      2.596
REMARK  0 active torsions:
REMARK  status: ('A' for Active; 'I' for Inactive)
ROOT
HETATM    1 CL   LIG     1      17.530  34.925  25.510  1.00  0.00    -0.068 Cl
HETATM    2  C   LIG     1      17.161  35.914  24.101  1.00  0.00     0.136 C 
HETATM    3 CL   LIG     1      16.948  35.080  22.565  1.00  0.00    -0.068 Cl
HETATM    4  C   LIG     1      17.050  37.251  24.194  1.00  0.00     0.136 C 
HETATM    5 CL   LIG     1      16.682  38.241  22.785  1.00  0.00    -0.068 Cl
HETATM    6 CL   LIG     1      17.264  38.086  25.730  1.00  0.00    -0.068 Cl
ENDROOT
TORSDOF 0
ENDMDL
MODEL 7
REMARK VINA RESULT:      -4.3      0.562      2.591
REMARK  0 active torsions:
REMARK  status: ('A' for Active; 'I' for Inactive)
ROOT
HETATM    1 CL   LIG     1      17.005  35.134  22.471  1.00  0.00    -0.068 Cl
HETATM    2  C   LIG     1      17.175  35.931  24.032  1.00  0.00     0.136 C 
HETATM    3 CL   LIG     1      17.405  34.901  25.441  1.00  0.00    -0.068 Cl
HETATM    4  C   LIG     1      17.130  37.271  24.143  1.00  0.00     0.136 C 
HETATM    5 CL   LIG     1      17.300  38.068  25.704  1.00  0.00    -0.068 Cl
HETATM    6 CL   LIG     1      16.899  38.301  22.734  1.00  0.00    -0.068 Cl
ENDROOT
TORSDOF 0
ENDMDL
MODEL 8
REMARK VINA RESULT:      -4.3      0.568      2.593
REMARK  0 active torsions:
REMARK  status: ('A' for Active; 'I' for Inactive)
ROOT
HETATM    1 CL   LIG     1      16.543  38.184  22.681  1.00  0.00    -0.068 Cl
HETATM    2  C   LIG     1      16.981  37.211  24.083  1.00  0.00     0.136 C 
HETATM    3 CL   LIG     1      17.270  38.064  25.596  1.00  0.00    -0.068 Cl
HETATM    4  C   LIG     1      17.091  35.873  23.999  1.00  0.00     0.136 C 
HETATM    5 CL   LIG     1      17.528  34.901  25.400  1.00  0.00    -0.068 Cl
HETATM    6 CL   LIG     1      16.801  35.021  22.486  1.00  0.00    -0.068 Cl
ENDROOT
TORSDOF 0
ENDMDL
MODEL 9
REMARK VINA RESULT:      -4.1      2.729      4.731
REMARK  0 active torsions:
REMARK  status: ('A' for Active; 'I' for Inactive)
ROOT
HETATM    1 CL   LIG     1      19.287  36.768  19.503  1.00  0.00    -0.068 Cl
HETATM    2  C   LIG     1      18.493  37.906  20.587  1.00  0.00     0.136 C 
HETATM    3 CL   LIG     1      18.947  39.601  20.448  1.00  0.00    -0.068 Cl
HETATM    4  C   LIG     1      17.579  37.495  21.484  1.00  0.00     0.136 C 
HETATM    5 CL   LIG     1      16.784  38.633  22.568  1.00  0.00    -0.068 Cl
HETATM    6 CL   LIG     1      17.125  35.800  21.623  1.00  0.00    -0.068 Cl
ENDROOT
TORSDOF 0
ENDMDL
MODEL 10
REMARK VINA RESULT:      -4.1      2.653      4.016
REMARK  0 active torsions:
REMARK  status: ('A' for Active; 'I' for Inactive)
ROOT
HETATM    1 CL   LIG     1      18.737  39.567  20.499  1.00  0.00    -0.068 Cl
HETATM    2  C   LIG     1      18.406  37.842  20.616  1.00  0.00     0.136 C 
HETATM    3 CL   LIG     1      19.291  36.777  19.528  1.00  0.00    -0.068 Cl
HETATM    4  C   LIG     1      17.514  37.358  21.498  1.00  0.00     0.136 C 
HETATM    5 CL   LIG     1      17.182  35.633  21.615  1.00  0.00    -0.068 Cl
HETATM    6 CL   LIG     1      16.629  38.423  22.586  1.00  0.00    -0.068 Cl
ENDROOT
TORSDOF 0
ENDMDL
MODEL 11
REMARK VINA RESULT:      -4.1      2.939      3.878
REMARK  0 active torsions:
REMARK  status: ('A' for Active; 'I' for Inactive)
ROOT
HETATM    1 CL   LIG     1      18.884  39.610  20.829  1.00  0.00    -0.068 Cl
HETATM    2  C   LIG     1      17.904  38.231  21.318  1.00  0.00     0.136 C 
HETATM    3 CL   LIG     1      16.694  38.506  22.567  1.00  0.00    -0.068 Cl
HETATM    4  C   LIG     1      18.073  37.019  20.760  1.00  0.00     0.136 C 
HETATM    5 CL   LIG     1      17.093  35.640  21.249  1.00  0.00    -0.068 Cl
HETATM    6 CL   LIG     1      19.283  36.744  19.511  1.00  0.00    -0.068 Cl
ENDROOT
TORSDOF 0
ENDMDL
MODEL 12
REMARK VINA RESULT:      -4.1      2.989      4.427
REMARK  0 active torsions:
REMARK  status: ('A' for Active; 'I' for Inactive)
ROOT
HETATM    1 CL   LIG     1      17.119  35.755  21.348  1.00  0.00    -0.068 Cl
HETATM    2  C   LIG     1      18.110  37.083  20.750  1.00  0.00     0.136 C 
HETATM    3 CL   LIG     1      19.294  36.705  19.502  1.00  0.00    -0.068 Cl
HETATM    4  C   LIG     1      17.969  38.332  21.228  1.00  0.00     0.136 C 
HETATM    5 CL   LIG     1      18.960  39.659  20.630  1.00  0.00    -0.068 Cl
HETATM    6 CL   LIG     1      16.785  38.709  22.476  1.00  0.00    -0.068 Cl
ENDROOT
TORSDOF 0
ENDMDL
MODEL 13
REMARK VINA RESULT:      -4.1      2.978      4.227
REMARK  0 active torsions:
REMARK  status: ('A' for Active; 'I' for Inactive)
ROOT
HETATM    1 CL   LIG     1      19.287  36.799  19.460  1.00  0.00    -0.068 Cl
HETATM    2  C   LIG     1      18.089  37.068  20.723  1.00  0.00     0.136 C 
HETATM    3 CL   LIG     1      17.142  35.679  21.243  1.00  0.00    -0.068 Cl
HETATM    4  C   LIG     1      17.906  38.285  21.265  1.00  0.00     0.136 C 
HETATM    5 CL   LIG     1      16.709  38.555  22.528  1.00  0.00    -0.068 Cl
HETATM    6 CL   LIG     1      18.854  39.675  20.744  1.00  0.00    -0.068 Cl
ENDROOT
TORSDOF 0
ENDMDL
MODEL 14
REMARK VINA RESULT:      -4.0      2.701      3.813
REMARK  0 active torsions:
REMARK  status: ('A' for Active; 'I' for Inactive)
ROOT
HETATM    1 CL   LIG     1      16.261  37.916  22.834  1.00  0.00    -0.068 Cl
HETATM    2  C   LIG     1      17.549  37.888  21.634  1.00  0.00     0.136 C 
HETATM    3 CL   LIG     1      18.513  39.350  21.453  1.00  0.00    -0.068 Cl
HETATM    4  C   LIG     1      17.785  36.795  20.886  1.00  0.00     0.136 C 
HETATM    5 CL   LIG     1      19.074  36.767  19.686  1.00  0.00    -0.068 Cl
HETATM    6 CL   LIG     1      16.822  35.333  21.066  1.00  0.00    -0.068 Cl
ENDROOT
TORSDOF 0
ENDMDL
MODEL 15
REMARK VINA RESULT:      -3.9      2.543      3.258
REMARK  0 active torsions:
REMARK  status: ('A' for Active; 'I' for Inactive)
ROOT
HETATM    1 CL   LIG     1      16.053  37.533  22.909  1.00  0.00    -0.068 Cl
HETATM    2  C   LIG     1      17.064  36.860  21.633  1.00  0.00     0.136 C 
HETATM    3 CL   LIG     1      16.779  35.183  21.181  1.00  0.00    -0.068 Cl
HETATM    4  C   LIG     1      18.014  37.598  21.031  1.00  0.00     0.136 C 
HETATM    5 CL   LIG     1      19.025  36.925  19.756  1.00  0.00    -0.068 Cl
HETATM    6 CL   LIG     1      18.299  39.275  21.483  1.00  0.00    -0.068 Cl
ENDROOT
TORSDOF 0
ENDMDL
MODEL 16
REMARK VINA RESULT:      -3.9      2.152      3.643
REMARK  0 active torsions:
REMARK  status: ('A' for Active; 'I' for Inactive)
ROOT
HETATM    1 CL   LIG     1      16.827  35.190  22.007  1.00  0.00    -0.068 Cl
HETATM    2  C   LIG     1      17.112  36.925  22.112  1.00  0.00     0.136 C 
HETATM    3 CL   LIG     1      16.324  37.791  23.427  1.00  0.00    -0.068 Cl
HETATM    4  C   LIG     1      17.896  37.560  21.223  1.00  0.00     0.136 C 
HETATM    5 CL   LIG     1      18.180  39.295  21.329  1.00  0.00    -0.068 Cl
HETATM    6 CL   LIG     1      18.683  36.694  19.909  1.00  0.00    -0.068 Cl
ENDROOT
TORSDOF 0
ENDMDL
MODEL 17
REMARK VINA RESULT:      -3.5      8.943     10.598
REMARK  0 active torsions:
REMARK  status: ('A' for Active; 'I' for Inactive)
ROOT
HETATM    1 CL   LIG     1      15.272  29.857  14.051  1.00  0.00    -0.068 Cl
HETATM    2  C   LIG     1      14.568  30.952  15.237  1.00  0.00     0.136 C 
HETATM    3 CL   LIG     1      12.914  30.631  15.748  1.00  0.00    -0.068 Cl
HETATM    4  C   LIG     1      15.265  31.992  15.730  1.00  0.00     0.136 C 
HETATM    5 CL   LIG     1      14.561  33.087  16.916  1.00  0.00    -0.068 Cl
HETATM    6 CL   LIG     1      16.919  32.314  15.219  1.00  0.00    -0.068 Cl
ENDROOT
TORSDOF 0
ENDMDL
MODEL 18
REMARK VINA RESULT:      -3.5      8.904     10.404
REMARK  0 active torsions:
REMARK  status: ('A' for Active; 'I' for Inactive)
ROOT
HETATM    1 CL   LIG     1      16.902  32.525  14.967  1.00  0.00    -0.068 Cl
HETATM    2  C   LIG     1      15.331  32.134  15.660  1.00  0.00     0.136 C 
HETATM    3 CL   LIG     1      14.679  33.249  16.857  1.00  0.00    -0.068 Cl
HETATM    4  C   LIG     1      14.660  31.028  15.292  1.00  0.00     0.136 C 
HETATM    5 CL   LIG     1      13.089  30.636  15.986  1.00  0.00    -0.068 Cl
HETATM    6 CL   LIG     1      15.312  29.913  14.096  1.00  0.00    -0.068 Cl
ENDROOT
TORSDOF 0
ENDMDL
MODEL 19
REMARK VINA RESULT:      -3.4      8.884     10.443
REMARK  0 active torsions:
REMARK  status: ('A' for Active; 'I' for Inactive)
ROOT
HETATM    1 CL   LIG     1      16.855  32.523  15.121  1.00  0.00    -0.068 Cl
HETATM    2  C   LIG     1      15.400  31.538  15.007  1.00  0.00     0.136 C 
HETATM    3 CL   LIG     1      15.187  30.582  13.544  1.00  0.00    -0.068 Cl
HETATM    4  C   LIG     1      14.489  31.518  15.997  1.00  0.00     0.136 C 
HETATM    5 CL   LIG     1      13.034  30.533  15.883  1.00  0.00    -0.068 Cl
HETATM    6 CL   LIG     1      14.701  32.474  17.460  1.00  0.00    -0.068 Cl
ENDROOT
TORSDOF 0
ENDMDL
MODEL 20
REMARK VINA RESULT:      -3.4      8.813     10.355
REMARK  0 active torsions:
REMARK  status: ('A' for Active; 'I' for Inactive)
ROOT
HETATM    1 CL   LIG     1      13.103  30.695  15.835  1.00  0.00    -0.068 Cl
HETATM    2  C   LIG     1      14.624  31.566  16.004  1.00  0.00     0.136 C 
HETATM    3 CL   LIG     1      14.902  32.414  17.522  1.00  0.00    -0.068 Cl
HETATM    4  C   LIG     1      15.534  31.584  15.013  1.00  0.00     0.136 C 
HETATM    5 CL   LIG     1      17.055  32.456  15.182  1.00  0.00    -0.068 Cl
HETATM    6 CL   LIG     1      15.256  30.737  13.495  1.00  0.00    -0.068 Cl
ENDROOT
TORSDOF 0
ENDMDL
