REMARK  5 active torsions:
REMARK  status: ('A' for Active; 'I' for Inactive)
REMARK    1  A    between atoms: O_2  and  C_3 
REMARK    2  A    between atoms: C_6  and  C_7 
REMARK    3  A    between atoms: C_7  and  C_8 
REMARK    4  A    between atoms: C_7  and  C_11 
REMARK    5  A    between atoms: C_7  and  O_17 
ROOT
HETATM    1  C   LIG     1      -1.435  -0.348  -0.699  1.00  0.00     0.118 C 
ENDROOT
BRANCH   1   2
HETATM    2  C   LIG     1       0.105  -0.354  -0.568  1.00  0.00    -0.019 A 
HETATM    3  C   LIG     1       0.899  -1.111  -1.453  1.00  0.00     0.013 A 
HETATM    4  C   LIG     1       2.291  -1.127  -1.332  1.00  0.00     0.037 A 
HETATM    5  C   LIG     1       2.927  -0.395  -0.326  1.00  0.00     0.068 A 
HETATM    6  C   LIG     1       2.147   0.356   0.570  1.00  0.00     0.037 A 
HETATM    7  C   LIG     1       0.755   0.373   0.452  1.00  0.00     0.013 A 
BRANCH   5   8
HETATM    8  O   LIG     1       4.326  -0.444  -0.249  1.00  0.00    -0.356 OA
HETATM    9  C   LIG     1       5.102   0.249   0.724  1.00  0.00     0.210 C 
ENDBRANCH   5   8
ENDBRANCH   1   2
BRANCH   1  10
HETATM   10  C   LIG     1      -2.132  -1.461   0.153  1.00  0.00     0.030 A 
HETATM   11  C   LIG     1      -1.610  -1.782   1.548  1.00  0.00     0.009 A 
HETATM   12  C   LIG     1      -1.397  -2.772   0.411  1.00  0.00     0.009 A 
ENDBRANCH   1  10
BRANCH   1  13
HETATM   13  C   LIG     1      -1.990   1.050  -0.353  1.00  0.00     0.016 A 
HETATM   14  C   LIG     1      -2.949   1.281   0.657  1.00  0.00     0.130 A 
HETATM   15  N   LIG     1      -3.392   2.539   0.910  1.00  0.00    -0.253 NA
HETATM   16  C   LIG     1      -2.927   3.601   0.207  1.00  0.00     0.232 A 
HETATM   17  N   LIG     1      -2.001   3.418  -0.765  1.00  0.00    -0.253 NA
HETATM   18  C   LIG     1      -1.528   2.180  -1.056  1.00  0.00     0.130 A 
ENDBRANCH   1  13
BRANCH   1  19
HETATM   19  O   LIG     1      -1.804  -0.632  -2.031  1.00  0.00    -0.380 OA
HETATM   20  H   LIG     1      -1.340  -0.001  -2.640  1.00  0.00     0.211 HD
ENDBRANCH   1  19
TORSDOF 5
