MODEL 1
REMARK VINA RESULT:      -8.6      0.000      0.000
REMARK  5 active torsions:
REMARK  status: ('A' for Active; 'I' for Inactive)
REMARK    1  A    between atoms: O_2  and  C_3 
REMARK    2  A    between atoms: C_6  and  C_7 
REMARK    3  A    between atoms: C_7  and  C_8 
REMARK    4  A    between atoms: C_7  and  C_11 
REMARK    5  A    between atoms: C_7  and  O_17 
ROOT
HETATM    1  C   LIG     1      16.485  36.315  22.309  1.00  0.00     0.118 C 
ENDROOT
BRANCH   1   2
HETATM    2  C   LIG     1      17.431  37.135  21.403  1.00  0.00    -0.019 A 
HETATM    3  C   LIG     1      18.166  36.509  20.376  1.00  0.00     0.013 A 
HETATM    4  C   LIG     1      19.029  37.245  19.561  1.00  0.00     0.037 A 
HETATM    5  C   LIG     1      19.187  38.620  19.750  1.00  0.00     0.068 A 
HETATM    6  C   LIG     1      18.469  39.256  20.776  1.00  0.00     0.037 A 
HETATM    7  C   LIG     1      17.605  38.523  21.593  1.00  0.00     0.013 A 
BRANCH   5   8
HETATM    8  O   LIG     1      20.065  39.313  18.904  1.00  0.00    -0.356 OA
HETATM    9  C   LIG     1      19.795  39.615  17.538  1.00  0.00     0.210 C 
ENDBRANCH   5   8
ENDBRANCH   1   2
BRANCH   1  10
HETATM   10  C   LIG     1      16.215  34.869  21.773  1.00  0.00     0.030 A 
HETATM   11  C   LIG     1      15.743  34.672  20.337  1.00  0.00     0.009 A 
HETATM   12  C   LIG     1      14.781  34.434  21.493  1.00  0.00     0.009 A 
ENDBRANCH   1  10
BRANCH   1  13
HETATM   13  C   LIG     1      17.031  36.283  23.752  1.00  0.00     0.016 A 
HETATM   14  C   LIG     1      17.280  37.442  24.519  1.00  0.00     0.130 A 
HETATM   15  N   LIG     1      17.759  37.339  25.785  1.00  0.00    -0.253 NA
HETATM   16  C   LIG     1      18.007  36.130  26.345  1.00  0.00     0.232 A 
HETATM   17  N   LIG     1      17.773  34.995  25.642  1.00  0.00    -0.253 NA
HETATM   18  C   LIG     1      17.296  35.046  24.373  1.00  0.00     0.130 A 
ENDBRANCH   1  13
BRANCH   1  19
HETATM   19  O   LIG     1      15.213  36.925  22.351  1.00  0.00    -0.380 OA
HETATM   20  H   LIG     1      15.075  37.330  23.247  1.00  0.00     0.211 HD
ENDBRANCH   1  19
TORSDOF 5
ENDMDL
MODEL 2
REMARK VINA RESULT:      -7.7      2.743      5.399
REMARK  5 active torsions:
REMARK  status: ('A' for Active; 'I' for Inactive)
REMARK    1  A    between atoms: O_2  and  C_3 
REMARK    2  A    between atoms: C_6  and  C_7 
REMARK    3  A    between atoms: C_7  and  C_8 
REMARK    4  A    between atoms: C_7  and  C_11 
REMARK    5  A    between atoms: C_7  and  O_17 
ROOT
HETATM    1  C   LIG     1      17.184  37.765  22.410  1.00  0.00     0.118 C 
ENDROOT
BRANCH   1   2
HETATM    2  C   LIG     1      16.463  36.470  21.972  1.00  0.00    -0.019 A 
HETATM    3  C   LIG     1      17.186  35.276  21.778  1.00  0.00     0.013 A 
HETATM    4  C   LIG     1      16.539  34.105  21.373  1.00  0.00     0.037 A 
HETATM    5  C   LIG     1      15.161  34.094  21.146  1.00  0.00     0.068 A 
HETATM    6  C   LIG     1      14.429  35.281  21.326  1.00  0.00     0.037 A 
HETATM    7  C   LIG     1      15.073  36.453  21.730  1.00  0.00     0.013 A 
BRANCH   5   8
HETATM    8  O   LIG     1      14.561  32.893  20.742  1.00  0.00    -0.356 OA
HETATM    9  C   LIG     1      15.163  31.951  19.860  1.00  0.00     0.210 C 
ENDBRANCH   5   8
ENDBRANCH   1   2
BRANCH   1  10
HETATM   10  C   LIG     1      17.896  37.637  23.798  1.00  0.00     0.030 A 
HETATM   11  C   LIG     1      17.247  36.817  24.906  1.00  0.00     0.009 A 
HETATM   12  C   LIG     1      17.292  38.336  25.012  1.00  0.00     0.009 A 
ENDBRANCH   1  10
BRANCH   1  13
HETATM   13  C   LIG     1      18.173  38.216  21.314  1.00  0.00     0.016 A 
HETATM   14  C   LIG     1      18.785  39.489  21.291  1.00  0.00     0.130 A 
HETATM   15  N   LIG     1      19.648  39.818  20.296  1.00  0.00    -0.253 NA
HETATM   16  C   LIG     1      19.948  38.940  19.308  1.00  0.00     0.232 A 
HETATM   17  N   LIG     1      19.385  37.708  19.302  1.00  0.00    -0.253 NA
HETATM   18  C   LIG     1      18.515  37.332  20.273  1.00  0.00     0.130 A 
ENDBRANCH   1  13
BRANCH   1  19
HETATM   19  O   LIG     1      16.243  38.802  22.583  1.00  0.00    -0.380 OA
HETATM   20  H   LIG     1      15.463  38.455  23.089  1.00  0.00     0.211 HD
ENDBRANCH   1  19
TORSDOF 5
ENDMDL
MODEL 3
REMARK VINA RESULT:      -6.2      7.331      9.978
REMARK  5 active torsions:
REMARK  status: ('A' for Active; 'I' for Inactive)
REMARK    1  A    between atoms: O_2  and  C_3 
REMARK    2  A    between atoms: C_6  and  C_7 
REMARK    3  A    between atoms: C_7  and  C_8 
REMARK    4  A    between atoms: C_7  and  C_11 
REMARK    5  A    between atoms: C_7  and  O_17 
ROOT
HETATM    1  C   LIG     1      15.034  32.513  16.734  1.00  0.00     0.118 C 
ENDROOT
BRANCH   1   2
HETATM    2  C   LIG     1      14.320  31.385  15.955  1.00  0.00    -0.019 A 
HETATM    3  C   LIG     1      14.986  30.686  14.928  1.00  0.00     0.013 A 
HETATM    4  C   LIG     1      14.340  29.673  14.215  1.00  0.00     0.037 A 
HETATM    5  C   LIG     1      13.016  29.333  14.502  1.00  0.00     0.068 A 
HETATM    6  C   LIG     1      12.336  30.028  15.517  1.00  0.00     0.037 A 
HETATM    7  C   LIG     1      12.979  31.043  16.231  1.00  0.00     0.013 A 
BRANCH   5   8
HETATM    8  O   LIG     1      12.414  28.308  13.759  1.00  0.00    -0.356 OA
HETATM    9  C   LIG     1      13.022  27.048  13.489  1.00  0.00     0.210 C 
ENDBRANCH   5   8
ENDBRANCH   1   2
BRANCH   1  10
HETATM   10  C   LIG     1      15.600  32.046  18.117  1.00  0.00     0.030 A 
HETATM   11  C   LIG     1      14.640  31.613  19.218  1.00  0.00     0.009 A 
HETATM   12  C   LIG     1      15.395  32.929  19.343  1.00  0.00     0.009 A 
ENDBRANCH   1  10
BRANCH   1  13
HETATM   13  C   LIG     1      16.142  33.139  15.860  1.00  0.00     0.016 A 
HETATM   14  C   LIG     1      17.129  32.384  15.192  1.00  0.00     0.130 A 
HETATM   15  N   LIG     1      18.074  33.002  14.437  1.00  0.00    -0.253 NA
HETATM   16  C   LIG     1      18.092  34.351  14.302  1.00  0.00     0.232 A 
HETATM   17  N   LIG     1      17.156  35.107  14.924  1.00  0.00    -0.253 NA
HETATM   18  C   LIG     1      16.192  34.537  15.690  1.00  0.00     0.130 A 
ENDBRANCH   1  13
BRANCH   1  19
HETATM   19  O   LIG     1      14.115  33.535  17.049  1.00  0.00    -0.380 OA
HETATM   20  H   LIG     1      13.534  33.705  16.264  1.00  0.00     0.211 HD
ENDBRANCH   1  19
TORSDOF 5
ENDMDL
MODEL 4
REMARK VINA RESULT:      -5.8      7.435     10.015
REMARK  5 active torsions:
REMARK  status: ('A' for Active; 'I' for Inactive)
REMARK    1  A    between atoms: O_2  and  C_3 
REMARK    2  A    between atoms: C_6  and  C_7 
REMARK    3  A    between atoms: C_7  and  C_8 
REMARK    4  A    between atoms: C_7  and  C_11 
REMARK    5  A    between atoms: C_7  and  O_17 
ROOT
HETATM    1  C   LIG     1      16.241  32.130  15.309  1.00  0.00     0.118 C 
ENDROOT
BRANCH   1   2
HETATM    2  C   LIG     1      15.214  31.038  14.933  1.00  0.00    -0.019 A 
HETATM    3  C   LIG     1      13.888  31.103  15.406  1.00  0.00     0.013 A 
HETATM    4  C   LIG     1      12.960  30.112  15.077  1.00  0.00     0.037 A 
HETATM    5  C   LIG     1      13.327  29.031  14.272  1.00  0.00     0.068 A 
HETATM    6  C   LIG     1      14.649  28.947  13.802  1.00  0.00     0.037 A 
HETATM    7  C   LIG     1      15.580  29.936  14.131  1.00  0.00     0.013 A 
BRANCH   5   8
HETATM    8  O   LIG     1      12.357  28.065  13.970  1.00  0.00    -0.356 OA
HETATM    9  C   LIG     1      12.613  26.871  13.236  1.00  0.00     0.210 C 
ENDBRANCH   5   8
ENDBRANCH   1   2
BRANCH   1  10
HETATM   10  C   LIG     1      16.420  33.218  14.198  1.00  0.00     0.030 A 
HETATM   11  C   LIG     1      17.262  32.909  12.967  1.00  0.00     0.009 A 
HETATM   12  C   LIG     1      17.782  33.881  14.017  1.00  0.00     0.009 A 
ENDBRANCH   1  10
BRANCH   1  13
HETATM   13  C   LIG     1      15.861  32.770  16.661  1.00  0.00     0.016 A 
HETATM   14  C   LIG     1      15.699  32.033  17.855  1.00  0.00     0.130 A 
HETATM   15  N   LIG     1      15.366  32.662  19.011  1.00  0.00    -0.253 NA
HETATM   16  C   LIG     1      15.184  34.005  19.052  1.00  0.00     0.232 A 
HETATM   17  N   LIG     1      15.339  34.745  17.928  1.00  0.00    -0.253 NA
HETATM   18  C   LIG     1      15.670  34.163  16.748  1.00  0.00     0.130 A 
ENDBRANCH   1  13
BRANCH   1  19
HETATM   19  O   LIG     1      17.521  31.555  15.457  1.00  0.00    -0.380 OA
HETATM   20  H   LIG     1      17.891  31.347  14.561  1.00  0.00     0.211 HD
ENDBRANCH   1  19
TORSDOF 5
ENDMDL
MODEL 5
REMARK VINA RESULT:      -5.7      5.792      7.238
REMARK  5 active torsions:
REMARK  status: ('A' for Active; 'I' for Inactive)
REMARK    1  A    between atoms: O_2  and  C_3 
REMARK    2  A    between atoms: C_6  and  C_7 
REMARK    3  A    between atoms: C_7  and  C_8 
REMARK    4  A    between atoms: C_7  and  C_11 
REMARK    5  A    between atoms: C_7  and  O_17 
ROOT
HETATM    1  C   LIG     1      14.529  32.635  16.732  1.00  0.00     0.118 C 
ENDROOT
BRANCH   1   2
HETATM    2  C   LIG     1      15.585  32.877  15.629  1.00  0.00    -0.019 A 
HETATM    3  C   LIG     1      15.646  32.040  14.497  1.00  0.00     0.013 A 
HETATM    4  C   LIG     1      16.605  32.250  13.502  1.00  0.00     0.037 A 
HETATM    5  C   LIG     1      17.528  33.293  13.611  1.00  0.00     0.068 A 
HETATM    6  C   LIG     1      17.485  34.129  14.740  1.00  0.00     0.037 A 
HETATM    7  C   LIG     1      16.528  33.921  15.737  1.00  0.00     0.013 A 
BRANCH   5   8
HETATM    8  O   LIG     1      18.469  33.460  12.585  1.00  0.00    -0.356 OA
HETATM    9  C   LIG     1      19.828  33.833  12.793  1.00  0.00     0.210 C 
ENDBRANCH   5   8
ENDBRANCH   1   2
BRANCH   1  10
HETATM   10  C   LIG     1      14.068  31.142  16.829  1.00  0.00     0.030 A 
HETATM   11  C   LIG     1      13.361  30.492  15.647  1.00  0.00     0.009 A 
HETATM   12  C   LIG     1      12.579  30.826  16.910  1.00  0.00     0.009 A 
ENDBRANCH   1  10
BRANCH   1  13
HETATM   13  C   LIG     1      15.056  33.147  18.090  1.00  0.00     0.016 A 
HETATM   14  C   LIG     1      15.347  34.503  18.353  1.00  0.00     0.130 A 
HETATM   15  N   LIG     1      15.806  34.883  19.573  1.00  0.00    -0.253 NA
HETATM   16  C   LIG     1      15.993  33.979  20.565  1.00  0.00     0.232 A 
HETATM   17  N   LIG     1      15.717  32.670  20.351  1.00  0.00    -0.253 NA
HETATM   18  C   LIG     1      15.257  32.240  19.149  1.00  0.00     0.130 A 
ENDBRANCH   1  13
BRANCH   1  19
HETATM   19  O   LIG     1      13.353  33.355  16.436  1.00  0.00    -0.380 OA
HETATM   20  H   LIG     1      12.797  32.828  15.806  1.00  0.00     0.211 HD
ENDBRANCH   1  19
TORSDOF 5
ENDMDL
