MODEL 1
REMARK VINA RESULT:      -5.0      0.000      0.000
REMARK  4 active torsions:
REMARK  status: ('A' for Active; 'I' for Inactive)
REMARK    1  A    between atoms: O_2  and  C_3 
REMARK    2  A    between atoms: C_5  and  C_6 
REMARK    3  A    between atoms: C_10  and  O_11 
REMARK    4  A    between atoms: C_13  and  O_14 
ROOT
HETATM    1  C   LIG     1      28.185  24.675  17.412  1.00  0.00     0.113 A 
HETATM    2  C   LIG     1      27.934  23.264  17.437  1.00  0.00     0.021 A 
HETATM    3  C   LIG     1      27.229  22.572  18.632  1.00  0.00     0.292 C 
HETATM    4  N   LIG     1      26.826  21.151  18.381  1.00  0.00     0.096 N 
HETATM    5  C   LIG     1      27.341  20.218  19.385  1.00  0.00     0.310 C 
HETATM    6  C   LIG     1      26.980  20.647  17.002  1.00  0.00     0.277 C 
HETATM    7  C   LIG     1      28.357  20.975  16.449  1.00  0.00     0.069 C 
HETATM    8  C   LIG     1      28.512  22.458  16.407  1.00  0.00    -0.042 A 
HETATM    9  C   LIG     1      29.229  23.038  15.339  1.00  0.00     0.047 A 
HETATM   10  C   LIG     1      29.378  24.412  15.326  1.00  0.00     0.108 A 
HETATM   11  C   LIG     1      28.877  25.200  16.304  1.00  0.00     0.139 A 
HETATM   12  O   LIG     1      29.185  26.519  16.009  1.00  0.00    -0.320 OA
HETATM   13  C   LIG     1      29.916  26.557  14.783  1.00  0.00     0.352 A 
HETATM   14  O   LIG     1      30.024  25.186  14.378  1.00  0.00    -0.323 OA
ENDROOT
BRANCH   3  15
HETATM   15  C   LIG     1      25.972  23.345  19.167  1.00  0.00     0.204 A 
HETATM   16  C   LIG     1      25.817  23.184  20.669  1.00  0.00    -0.007 A 
HETATM   17  C   LIG     1      26.714  23.532  21.679  1.00  0.00     0.014 A 
HETATM   18  C   LIG     1      24.622  22.576  20.980  1.00  0.00     0.084 A 
HETATM   19  C   LIG     1      26.380  23.250  23.008  1.00  0.00     0.040 A 
HETATM   20  C   LIG     1      25.153  22.614  23.337  1.00  0.00     0.102 A 
HETATM   21  C   LIG     1      24.243  22.272  22.294  1.00  0.00     0.118 A 
HETATM   22  C   LIG     1      23.951  22.330  19.721  1.00  0.00     0.297 A 
HETATM   23  O   LIG     1      22.810  21.785  19.566  1.00  0.00    -0.259 OA
HETATM   24  O   LIG     1      24.740  22.786  18.669  1.00  0.00    -0.304 OA
BRANCH  20  25
HETATM   25  O   LIG     1      24.837  22.310  24.670  1.00  0.00    -0.353 OA
HETATM   26  C   LIG     1      25.059  23.183  25.776  1.00  0.00     0.210 C 
ENDBRANCH  20  25
BRANCH  21  27
HETATM   27  O   LIG     1      23.006  21.640  22.496  1.00  0.00    -0.352 OA
HETATM   28  C   LIG     1      22.809  20.255  22.749  1.00  0.00     0.210 C 
ENDBRANCH  21  27
ENDBRANCH   3  15
BRANCH   1  29
HETATM   29  O   LIG     1      27.763  25.494  18.474  1.00  0.00    -0.352 OA
HETATM   30  C   LIG     1      28.604  26.031  19.487  1.00  0.00     0.210 C 
ENDBRANCH   1  29
TORSDOF 4
ENDMDL
MODEL 2
REMARK VINA RESULT:      -4.9      1.575      2.134
REMARK  4 active torsions:
REMARK  status: ('A' for Active; 'I' for Inactive)
REMARK    1  A    between atoms: O_2  and  C_3 
REMARK    2  A    between atoms: C_5  and  C_6 
REMARK    3  A    between atoms: C_10  and  O_11 
REMARK    4  A    between atoms: C_13  and  O_14 
ROOT
HETATM    1  C   LIG     1      27.635  24.922  19.578  1.00  0.00     0.113 A 
HETATM    2  C   LIG     1      27.240  23.591  19.220  1.00  0.00     0.021 A 
HETATM    3  C   LIG     1      26.597  22.619  20.242  1.00  0.00     0.292 C 
HETATM    4  N   LIG     1      26.020  21.373  19.640  1.00  0.00     0.096 N 
HETATM    5  C   LIG     1      26.537  20.145  20.248  1.00  0.00     0.310 C 
HETATM    6  C   LIG     1      25.972  21.304  18.167  1.00  0.00     0.277 C 
HETATM    7  C   LIG     1      27.310  21.688  17.555  1.00  0.00     0.069 C 
HETATM    8  C   LIG     1      27.616  23.100  17.931  1.00  0.00    -0.042 A 
HETATM    9  C   LIG     1      28.272  23.926  16.995  1.00  0.00     0.047 A 
HETATM   10  C   LIG     1      28.565  25.226  17.366  1.00  0.00     0.108 A 
HETATM   11  C   LIG     1      28.257  25.711  18.591  1.00  0.00     0.139 A 
HETATM   12  O   LIG     1      28.670  27.032  18.658  1.00  0.00    -0.320 OA
HETATM   13  C   LIG     1      29.266  27.392  17.411  1.00  0.00     0.352 A 
HETATM   14  O   LIG     1      29.184  26.205  16.611  1.00  0.00    -0.323 OA
ENDROOT
BRANCH   3  15
HETATM   15  C   LIG     1      25.493  23.277  21.143  1.00  0.00     0.204 A 
HETATM   16  C   LIG     1      25.631  22.848  22.594  1.00  0.00    -0.007 A 
HETATM   17  C   LIG     1      26.718  23.013  23.451  1.00  0.00     0.014 A 
HETATM   18  C   LIG     1      24.501  22.188  23.022  1.00  0.00     0.084 A 
HETATM   19  C   LIG     1      26.642  22.495  24.749  1.00  0.00     0.040 A 
HETATM   20  C   LIG     1      25.483  21.805  25.197  1.00  0.00     0.102 A 
HETATM   21  C   LIG     1      24.377  21.651  24.311  1.00  0.00     0.118 A 
HETATM   22  C   LIG     1      23.589  22.169  21.898  1.00  0.00     0.297 A 
HETATM   23  O   LIG     1      22.424  21.656  21.878  1.00  0.00    -0.259 OA
HETATM   24  O   LIG     1      24.171  22.811  20.809  1.00  0.00    -0.304 OA
BRANCH  20  25
HETATM   25  O   LIG     1      25.425  21.264  26.490  1.00  0.00    -0.353 OA
HETATM   26  C   LIG     1      24.902  21.943  27.629  1.00  0.00     0.210 C 
ENDBRANCH  20  25
BRANCH  21  27
HETATM   27  O   LIG     1      23.185  20.988  24.639  1.00  0.00    -0.352 OA
HETATM   28  C   LIG     1      22.991  19.579  24.651  1.00  0.00     0.210 C 
ENDBRANCH  21  27
ENDBRANCH   3  15
BRANCH   1  29
HETATM   29  O   LIG     1      27.419  25.405  20.880  1.00  0.00    -0.352 OA
HETATM   30  C   LIG     1      28.435  25.715  21.825  1.00  0.00     0.210 C 
ENDBRANCH   1  29
TORSDOF 4
ENDMDL
MODEL 3
REMARK VINA RESULT:      -4.9      3.535      6.378
REMARK  4 active torsions:
REMARK  status: ('A' for Active; 'I' for Inactive)
REMARK    1  A    between atoms: O_2  and  C_3 
REMARK    2  A    between atoms: C_5  and  C_6 
REMARK    3  A    between atoms: C_10  and  O_11 
REMARK    4  A    between atoms: C_13  and  O_14 
ROOT
HETATM    1  C   LIG     1      23.879  20.430  20.701  1.00  0.00     0.113 A 
HETATM    2  C   LIG     1      24.581  21.529  20.106  1.00  0.00     0.021 A 
HETATM    3  C   LIG     1      25.384  22.550  20.952  1.00  0.00     0.292 C 
HETATM    4  N   LIG     1      26.253  23.474  20.154  1.00  0.00     0.096 N 
HETATM    5  C   LIG     1      26.004  24.889  20.435  1.00  0.00     0.310 C 
HETATM    6  C   LIG     1      26.379  23.192  18.711  1.00  0.00     0.277 C 
HETATM    7  C   LIG     1      25.017  22.971  18.074  1.00  0.00     0.069 C 
HETATM    8  C   LIG     1      24.382  21.781  18.713  1.00  0.00    -0.042 A 
HETATM    9  C   LIG     1      23.596  20.920  17.918  1.00  0.00     0.047 A 
HETATM   10  C   LIG     1      23.000  19.832  18.529  1.00  0.00     0.108 A 
HETATM   11  C   LIG     1      23.137  19.587  19.852  1.00  0.00     0.139 A 
HETATM   12  O   LIG     1      22.432  18.434  20.161  1.00  0.00    -0.320 OA
HETATM   13  C   LIG     1      21.824  17.933  18.969  1.00  0.00     0.352 A 
HETATM   14  O   LIG     1      22.207  18.860  17.946  1.00  0.00    -0.323 OA
ENDROOT
BRANCH   3  15
HETATM   15  C   LIG     1      26.269  21.897  22.071  1.00  0.00     0.204 A 
HETATM   16  C   LIG     1      26.105  22.614  23.400  1.00  0.00    -0.007 A 
HETATM   17  C   LIG     1      24.943  22.808  24.147  1.00  0.00     0.014 A 
HETATM   18  C   LIG     1      27.303  23.139  23.828  1.00  0.00     0.084 A 
HETATM   19  C   LIG     1      25.017  23.545  25.334  1.00  0.00     0.040 A 
HETATM   20  C   LIG     1      26.248  24.097  25.780  1.00  0.00     0.102 A 
HETATM   21  C   LIG     1      27.428  23.884  25.009  1.00  0.00     0.118 A 
HETATM   22  C   LIG     1      28.286  22.783  22.827  1.00  0.00     0.297 A 
HETATM   23  O   LIG     1      29.525  23.073  22.846  1.00  0.00    -0.259 OA
HETATM   24  O   LIG     1      27.678  22.054  21.809  1.00  0.00    -0.304 OA
BRANCH  20  25
HETATM   25  O   LIG     1      26.309  24.858  26.957  1.00  0.00    -0.353 OA
HETATM   26  C   LIG     1      26.574  24.326  28.253  1.00  0.00     0.210 C 
ENDBRANCH  20  25
BRANCH  21  27
HETATM   27  O   LIG     1      28.696  24.382  25.346  1.00  0.00    -0.352 OA
HETATM   28  C   LIG     1      29.145  25.717  25.153  1.00  0.00     0.210 C 
ENDBRANCH  21  27
ENDBRANCH   3  15
BRANCH   1  29
HETATM   29  O   LIG     1      23.924  20.222  22.090  1.00  0.00    -0.352 OA
HETATM   30  C   LIG     1      22.811  20.293  22.973  1.00  0.00     0.210 C 
ENDBRANCH   1  29
TORSDOF 4
ENDMDL
MODEL 4
REMARK VINA RESULT:      -4.7      2.004      7.558
REMARK  4 active torsions:
REMARK  status: ('A' for Active; 'I' for Inactive)
REMARK    1  A    between atoms: O_2  and  C_3 
REMARK    2  A    between atoms: C_5  and  C_6 
REMARK    3  A    between atoms: C_10  and  O_11 
REMARK    4  A    between atoms: C_13  and  O_14 
ROOT
HETATM    1  C   LIG     1      25.063  22.209  23.092  1.00  0.00     0.113 A 
HETATM    2  C   LIG     1      24.681  21.729  21.797  1.00  0.00     0.021 A 
HETATM    3  C   LIG     1      25.319  22.275  20.493  1.00  0.00     0.292 C 
HETATM    4  N   LIG     1      24.987  21.490  19.260  1.00  0.00     0.096 N 
HETATM    5  C   LIG     1      24.421  22.311  18.188  1.00  0.00     0.310 C 
HETATM    6  C   LIG     1      24.260  20.221  19.453  1.00  0.00     0.277 C 
HETATM    7  C   LIG     1      23.063  20.408  20.371  1.00  0.00     0.069 C 
HETATM    8  C   LIG     1      23.554  20.854  21.708  1.00  0.00    -0.042 A 
HETATM    9  C   LIG     1      22.892  20.391  22.865  1.00  0.00     0.047 A 
HETATM   10  C   LIG     1      23.350  20.828  24.094  1.00  0.00     0.108 A 
HETATM   11  C   LIG     1      24.388  21.687  24.212  1.00  0.00     0.139 A 
HETATM   12  O   LIG     1      24.608  21.930  25.559  1.00  0.00    -0.320 OA
HETATM   13  C   LIG     1      23.658  21.185  26.322  1.00  0.00     0.352 A 
HETATM   14  O   LIG     1      22.865  20.496  25.347  1.00  0.00    -0.323 OA
ENDROOT
BRANCH   3  15
HETATM   15  C   LIG     1      26.879  22.431  20.563  1.00  0.00     0.204 A 
HETATM   16  C   LIG     1      27.330  23.771  20.009  1.00  0.00    -0.007 A 
HETATM   17  C   LIG     1      26.978  25.052  20.435  1.00  0.00     0.014 A 
HETATM   18  C   LIG     1      28.163  23.603  18.927  1.00  0.00     0.084 A 
HETATM   19  C   LIG     1      27.484  26.159  19.744  1.00  0.00     0.040 A 
HETATM   20  C   LIG     1      28.338  25.994  18.619  1.00  0.00     0.102 A 
HETATM   21  C   LIG     1      28.694  24.678  18.201  1.00  0.00     0.118 A 
HETATM   22  C   LIG     1      28.302  22.174  18.738  1.00  0.00     0.297 A 
HETATM   23  O   LIG     1      28.996  21.594  17.842  1.00  0.00    -0.259 OA
HETATM   24  O   LIG     1      27.557  21.498  19.699  1.00  0.00    -0.304 OA
BRANCH  20  25
HETATM   25  O   LIG     1      28.819  27.107  17.914  1.00  0.00    -0.353 OA
HETATM   26  C   LIG     1      30.039  27.785  18.204  1.00  0.00     0.210 C 
ENDBRANCH  20  25
BRANCH  21  27
HETATM   27  O   LIG     1      29.524  24.392  17.106  1.00  0.00    -0.352 OA
HETATM   28  C   LIG     1      29.140  24.424  15.738  1.00  0.00     0.210 C 
ENDBRANCH  21  27
ENDBRANCH   3  15
BRANCH   1  29
HETATM   29  O   LIG     1      26.069  23.181  23.225  1.00  0.00    -0.352 OA
HETATM   30  C   LIG     1      27.244  23.053  24.016  1.00  0.00     0.210 C 
ENDBRANCH   1  29
TORSDOF 4
ENDMDL
MODEL 5
REMARK VINA RESULT:      -4.7      1.973      8.057
REMARK  4 active torsions:
REMARK  status: ('A' for Active; 'I' for Inactive)
REMARK    1  A    between atoms: O_2  and  C_3 
REMARK    2  A    between atoms: C_5  and  C_6 
REMARK    3  A    between atoms: C_10  and  O_11 
REMARK    4  A    between atoms: C_13  and  O_14 
ROOT
HETATM    1  C   LIG     1      25.848  22.774  22.410  1.00  0.00     0.113 A 
HETATM    2  C   LIG     1      26.955  23.642  22.683  1.00  0.00     0.021 A 
HETATM    3  C   LIG     1      27.863  24.201  21.557  1.00  0.00     0.292 C 
HETATM    4  N   LIG     1      28.804  25.282  21.993  1.00  0.00     0.096 N 
HETATM    5  C   LIG     1      30.202  24.999  21.663  1.00  0.00     0.310 C 
HETATM    6  C   LIG     1      28.635  25.800  23.365  1.00  0.00     0.277 C 
HETATM    7  C   LIG     1      28.535  24.666  24.372  1.00  0.00     0.069 C 
HETATM    8  C   LIG     1      27.330  23.848  24.047  1.00  0.00    -0.042 A 
HETATM    9  C   LIG     1      26.578  23.295  25.105  1.00  0.00     0.047 A 
HETATM   10  C   LIG     1      25.475  22.525  24.786  1.00  0.00     0.108 A 
HETATM   11  C   LIG     1      25.115  22.279  23.505  1.00  0.00     0.139 A 
HETATM   12  O   LIG     1      23.977  21.487  23.512  1.00  0.00    -0.320 OA
HETATM   13  C   LIG     1      23.607  21.225  24.866  1.00  0.00     0.352 A 
HETATM   14  O   LIG     1      24.594  21.903  25.653  1.00  0.00    -0.323 OA
ENDROOT
BRANCH   3  15
HETATM   15  C   LIG     1      27.077  24.721  20.302  1.00  0.00     0.204 A 
HETATM   16  C   LIG     1      27.659  24.167  19.012  1.00  0.00    -0.007 A 
HETATM   17  C   LIG     1      27.804  22.835  18.624  1.00  0.00     0.014 A 
HETATM   18  C   LIG     1      28.106  25.182  18.198  1.00  0.00     0.084 A 
HETATM   19  C   LIG     1      28.414  22.550  17.397  1.00  0.00     0.040 A 
HETATM   20  C   LIG     1      28.887  23.591  16.554  1.00  0.00     0.102 A 
HETATM   21  C   LIG     1      28.724  24.947  16.962  1.00  0.00     0.118 A 
HETATM   22  C   LIG     1      27.830  26.419  18.897  1.00  0.00     0.297 A 
HETATM   23  O   LIG     1      28.086  27.595  18.484  1.00  0.00    -0.259 OA
HETATM   24  O   LIG     1      27.224  26.143  20.120  1.00  0.00    -0.304 OA
BRANCH  20  25
HETATM   25  O   LIG     1      29.522  23.297  15.338  1.00  0.00    -0.353 OA
HETATM   26  C   LIG     1      29.173  22.210  14.483  1.00  0.00     0.210 C 
ENDBRANCH  20  25
BRANCH  21  27
HETATM   27  O   LIG     1      29.153  26.057  16.216  1.00  0.00    -0.352 OA
HETATM   28  C   LIG     1      30.489  26.536  16.129  1.00  0.00     0.210 C 
ENDBRANCH  21  27
ENDBRANCH   3  15
BRANCH   1  29
HETATM   29  O   LIG     1      25.525  22.423  21.088  1.00  0.00    -0.352 OA
HETATM   30  C   LIG     1      24.263  22.622  20.464  1.00  0.00     0.210 C 
ENDBRANCH   1  29
TORSDOF 4
ENDMDL
MODEL 6
REMARK VINA RESULT:      -4.5      3.338      6.273
REMARK  4 active torsions:
REMARK  status: ('A' for Active; 'I' for Inactive)
REMARK    1  A    between atoms: O_2  and  C_3 
REMARK    2  A    between atoms: C_5  and  C_6 
REMARK    3  A    between atoms: C_10  and  O_11 
REMARK    4  A    between atoms: C_13  and  O_14 
ROOT
HETATM    1  C   LIG     1      25.250  22.734  21.271  1.00  0.00     0.113 A 
HETATM    2  C   LIG     1      26.457  23.501  21.173  1.00  0.00     0.021 A 
HETATM    3  C   LIG     1      27.250  23.954  22.426  1.00  0.00     0.292 C 
HETATM    4  N   LIG     1      28.606  24.522  22.134  1.00  0.00     0.096 N 
HETATM    5  C   LIG     1      28.810  25.854  22.707  1.00  0.00     0.310 C 
HETATM    6  C   LIG     1      29.087  24.420  20.743  1.00  0.00     0.277 C 
HETATM    7  C   LIG     1      28.027  24.891  19.760  1.00  0.00     0.069 C 
HETATM    8  C   LIG     1      26.832  24.007  19.890  1.00  0.00    -0.042 A 
HETATM    9  C   LIG     1      26.095  23.685  18.731  1.00  0.00     0.047 A 
HETATM   10  C   LIG     1      24.980  22.880  18.872  1.00  0.00     0.108 A 
HETATM   11  C   LIG     1      24.575  22.416  20.077  1.00  0.00     0.139 A 
HETATM   12  O   LIG     1      23.440  21.642  19.891  1.00  0.00    -0.320 OA
HETATM   13  C   LIG     1      23.119  21.620  18.500  1.00  0.00     0.352 A 
HETATM   14  O   LIG     1      24.126  22.430  17.880  1.00  0.00    -0.323 OA
ENDROOT
BRANCH   3  15
HETATM   15  C   LIG     1      27.417  22.836  23.514  1.00  0.00     0.204 A 
HETATM   16  C   LIG     1      27.109  23.363  24.906  1.00  0.00    -0.007 A 
HETATM   17  C   LIG     1      25.928  23.932  25.379  1.00  0.00     0.014 A 
HETATM   18  C   LIG     1      28.208  23.256  25.727  1.00  0.00     0.084 A 
HETATM   19  C   LIG     1      25.880  24.394  26.699  1.00  0.00     0.040 A 
HETATM   20  C   LIG     1      27.012  24.296  27.552  1.00  0.00     0.102 A 
HETATM   21  C   LIG     1      28.210  23.704  27.055  1.00  0.00     0.118 A 
HETATM   22  C   LIG     1      29.256  22.654  24.931  1.00  0.00     0.297 A 
HETATM   23  O   LIG     1      30.437  22.377  25.319  1.00  0.00    -0.259 OA
HETATM   24  O   LIG     1      28.786  22.406  23.645  1.00  0.00    -0.304 OA
BRANCH  20  25
HETATM   25  O   LIG     1      26.966  24.786  28.866  1.00  0.00    -0.353 OA
HETATM   26  C   LIG     1      27.309  26.116  29.248  1.00  0.00     0.210 C 
ENDBRANCH  20  25
BRANCH  21  27
HETATM   27  O   LIG     1      29.390  23.556  27.801  1.00  0.00    -0.352 OA
HETATM   28  C   LIG     1      29.649  22.537  28.759  1.00  0.00     0.210 C 
ENDBRANCH  21  27
ENDBRANCH   3  15
BRANCH   1  29
HETATM   29  O   LIG     1      24.757  22.334  22.525  1.00  0.00    -0.352 OA
HETATM   30  C   LIG     1      24.501  20.993  22.922  1.00  0.00     0.210 C 
ENDBRANCH   1  29
TORSDOF 4
ENDMDL
MODEL 7
REMARK VINA RESULT:      -4.3      4.419      6.666
REMARK  4 active torsions:
REMARK  status: ('A' for Active; 'I' for Inactive)
REMARK    1  A    between atoms: O_2  and  C_3 
REMARK    2  A    between atoms: C_5  and  C_6 
REMARK    3  A    between atoms: C_10  and  O_11 
REMARK    4  A    between atoms: C_13  and  O_14 
ROOT
HETATM    1  C   LIG     1      24.199  21.351  21.066  1.00  0.00     0.113 A 
HETATM    2  C   LIG     1      24.652  20.424  22.062  1.00  0.00     0.021 A 
HETATM    3  C   LIG     1      25.377  20.888  23.351  1.00  0.00     0.292 C 
HETATM    4  N   LIG     1      25.551  19.820  24.388  1.00  0.00     0.096 N 
HETATM    5  C   LIG     1      26.941  19.652  24.817  1.00  0.00     0.310 C 
HETATM    6  C   LIG     1      24.870  18.534  24.142  1.00  0.00     0.277 C 
HETATM    7  C   LIG     1      25.136  18.034  22.731  1.00  0.00     0.069 C 
HETATM    8  C   LIG     1      24.586  19.028  21.763  1.00  0.00    -0.042 A 
HETATM    9  C   LIG     1      24.003  18.561  20.566  1.00  0.00     0.047 A 
HETATM   10  C   LIG     1      23.515  19.496  19.672  1.00  0.00     0.108 A 
HETATM   11  C   LIG     1      23.597  20.827  19.906  1.00  0.00     0.139 A 
HETATM   12  O   LIG     1      23.023  21.497  18.838  1.00  0.00    -0.320 OA
HETATM   13  C   LIG     1      22.559  20.538  17.887  1.00  0.00     0.352 A 
HETATM   14  O   LIG     1      22.898  19.266  18.455  1.00  0.00    -0.323 OA
ENDROOT
BRANCH   3  15
HETATM   15  C   LIG     1      24.716  22.132  24.043  1.00  0.00     0.204 A 
HETATM   16  C   LIG     1      25.764  23.089  24.587  1.00  0.00    -0.007 A 
HETATM   17  C   LIG     1      26.776  23.754  23.896  1.00  0.00     0.014 A 
HETATM   18  C   LIG     1      25.643  23.229  25.950  1.00  0.00     0.084 A 
HETATM   19  C   LIG     1      27.666  24.563  24.612  1.00  0.00     0.040 A 
HETATM   20  C   LIG     1      27.555  24.706  26.022  1.00  0.00     0.102 A 
HETATM   21  C   LIG     1      26.510  24.025  26.712  1.00  0.00     0.118 A 
HETATM   22  C   LIG     1      24.527  22.398  26.349  1.00  0.00     0.297 A 
HETATM   23  O   LIG     1      24.079  22.250  27.531  1.00  0.00    -0.259 OA
HETATM   24  O   LIG     1      23.987  21.767  25.232  1.00  0.00    -0.304 OA
BRANCH  20  25
HETATM   25  O   LIG     1      28.467  25.496  26.737  1.00  0.00    -0.353 OA
HETATM   26  C   LIG     1      29.777  25.079  27.117  1.00  0.00     0.210 C 
ENDBRANCH  20  25
BRANCH  21  27
HETATM   27  O   LIG     1      26.303  24.087  28.099  1.00  0.00    -0.352 OA
HETATM   28  C   LIG     1      27.034  23.368  29.084  1.00  0.00     0.210 C 
ENDBRANCH  21  27
ENDBRANCH   3  15
BRANCH   1  29
HETATM   29  O   LIG     1      24.372  22.733  21.246  1.00  0.00    -0.352 OA
HETATM   30  C   LIG     1      25.279  23.554  20.519  1.00  0.00     0.210 C 
ENDBRANCH   1  29
TORSDOF 4
ENDMDL
MODEL 8
REMARK VINA RESULT:      -4.2      3.019      8.112
REMARK  4 active torsions:
REMARK  status: ('A' for Active; 'I' for Inactive)
REMARK    1  A    between atoms: O_2  and  C_3 
REMARK    2  A    between atoms: C_5  and  C_6 
REMARK    3  A    between atoms: C_10  and  O_11 
REMARK    4  A    between atoms: C_13  and  O_14 
ROOT
HETATM    1  C   LIG     1      27.748  24.496  25.653  1.00  0.00     0.113 A 
HETATM    2  C   LIG     1      26.614  23.705  25.276  1.00  0.00     0.021 A 
HETATM    3  C   LIG     1      26.297  23.372  23.795  1.00  0.00     0.292 C 
HETATM    4  N   LIG     1      25.231  22.336  23.604  1.00  0.00     0.096 N 
HETATM    5  C   LIG     1      24.140  22.783  22.735  1.00  0.00     0.310 C 
HETATM    6  C   LIG     1      24.749  21.642  24.814  1.00  0.00     0.277 C 
HETATM    7  C   LIG     1      24.415  22.633  25.918  1.00  0.00     0.069 C 
HETATM    8  C   LIG     1      25.659  23.371  26.286  1.00  0.00    -0.042 A 
HETATM    9  C   LIG     1      25.868  23.721  27.636  1.00  0.00     0.047 A 
HETATM   10  C   LIG     1      27.016  24.421  27.957  1.00  0.00     0.108 A 
HETATM   11  C   LIG     1      27.921  24.786  27.020  1.00  0.00     0.139 A 
HETATM   12  O   LIG     1      28.955  25.464  27.647  1.00  0.00    -0.320 OA
HETATM   13  C   LIG     1      28.682  25.526  29.048  1.00  0.00     0.352 A 
HETATM   14  O   LIG     1      27.428  24.850  29.206  1.00  0.00    -0.323 OA
ENDROOT
BRANCH   3  15
HETATM   15  C   LIG     1      27.549  22.938  22.956  1.00  0.00     0.204 A 
HETATM   16  C   LIG     1      27.532  23.559  21.569  1.00  0.00    -0.007 A 
HETATM   17  C   LIG     1      27.510  24.909  21.220  1.00  0.00     0.014 A 
HETATM   18  C   LIG     1      27.499  22.588  20.594  1.00  0.00     0.084 A 
HETATM   19  C   LIG     1      27.452  25.258  19.866  1.00  0.00     0.040 A 
HETATM   20  C   LIG     1      27.409  24.262  18.853  1.00  0.00     0.102 A 
HETATM   21  C   LIG     1      27.439  22.887  19.226  1.00  0.00     0.118 A 
HETATM   22  C   LIG     1      27.508  21.316  21.285  1.00  0.00     0.297 A 
HETATM   23  O   LIG     1      27.490  20.163  20.747  1.00  0.00    -0.259 OA
HETATM   24  O   LIG     1      27.544  21.528  22.661  1.00  0.00    -0.304 OA
BRANCH  20  25
HETATM   25  O   LIG     1      27.322  24.619  17.499  1.00  0.00    -0.353 OA
HETATM   26  C   LIG     1      28.435  24.705  16.611  1.00  0.00     0.210 C 
ENDBRANCH  20  25
BRANCH  21  27
HETATM   27  O   LIG     1      27.398  21.817  18.318  1.00  0.00    -0.352 OA
HETATM   28  C   LIG     1      26.226  21.271  17.726  1.00  0.00     0.210 C 
ENDBRANCH  21  27
ENDBRANCH   3  15
BRANCH   1  29
HETATM   29  O   LIG     1      28.641  24.974  24.679  1.00  0.00    -0.352 OA
HETATM   30  C   LIG     1      28.757  26.327  24.258  1.00  0.00     0.210 C 
ENDBRANCH   1  29
TORSDOF 4
ENDMDL
MODEL 9
REMARK VINA RESULT:      -4.2      3.297      6.299
REMARK  4 active torsions:
REMARK  status: ('A' for Active; 'I' for Inactive)
REMARK    1  A    between atoms: O_2  and  C_3 
REMARK    2  A    between atoms: C_5  and  C_6 
REMARK    3  A    between atoms: C_10  and  O_11 
REMARK    4  A    between atoms: C_13  and  O_14 
ROOT
HETATM    1  C   LIG     1      27.694  23.087  22.755  1.00  0.00     0.113 A 
HETATM    2  C   LIG     1      27.402  23.769  21.528  1.00  0.00     0.021 A 
HETATM    3  C   LIG     1      26.825  23.031  20.292  1.00  0.00     0.292 C 
HETATM    4  N   LIG     1      26.348  23.934  19.194  1.00  0.00     0.096 N 
HETATM    5  C   LIG     1      26.949  23.630  17.894  1.00  0.00     0.310 C 
HETATM    6  C   LIG     1      26.318  25.380  19.485  1.00  0.00     0.277 C 
HETATM    7  C   LIG     1      27.628  25.844  20.100  1.00  0.00     0.069 C 
HETATM    8  C   LIG     1      27.825  25.128  21.394  1.00  0.00    -0.042 A 
HETATM    9  C   LIG     1      28.426  25.817  22.469  1.00  0.00     0.047 A 
HETATM   10  C   LIG     1      28.618  25.133  23.655  1.00  0.00     0.108 A 
HETATM   11  C   LIG     1      28.264  23.835  23.802  1.00  0.00     0.139 A 
HETATM   12  O   LIG     1      28.577  23.438  25.093  1.00  0.00    -0.320 OA
HETATM   13  C   LIG     1      29.156  24.544  25.788  1.00  0.00     0.352 A 
HETATM   14  O   LIG     1      29.170  25.610  24.830  1.00  0.00    -0.323 OA
ENDROOT
BRANCH   3  15
HETATM   15  C   LIG     1      25.668  22.027  20.631  1.00  0.00     0.204 A 
HETATM   16  C   LIG     1      25.643  20.859  19.660  1.00  0.00    -0.007 A 
HETATM   17  C   LIG     1      26.648  19.929  19.392  1.00  0.00     0.014 A 
HETATM   18  C   LIG     1      24.450  20.810  18.976  1.00  0.00     0.084 A 
HETATM   19  C   LIG     1      26.423  18.951  18.417  1.00  0.00     0.040 A 
HETATM   20  C   LIG     1      25.197  18.899  17.699  1.00  0.00     0.102 A 
HETATM   21  C   LIG     1      24.177  19.852  17.991  1.00  0.00     0.118 A 
HETATM   22  C   LIG     1      23.652  21.913  19.469  1.00  0.00     0.297 A 
HETATM   23  O   LIG     1      22.474  22.220  19.097  1.00  0.00    -0.259 OA
HETATM   24  O   LIG     1      24.366  22.614  20.437  1.00  0.00    -0.304 OA
BRANCH  20  25
HETATM   25  O   LIG     1      24.988  17.933  16.704  1.00  0.00    -0.353 OA
HETATM   26  C   LIG     1      25.189  18.150  15.309  1.00  0.00     0.210 C 
ENDBRANCH  20  25
BRANCH  21  27
HETATM   27  O   LIG     1      22.931  19.901  17.347  1.00  0.00    -0.352 OA
HETATM   28  C   LIG     1      21.878  18.957  17.495  1.00  0.00     0.210 C 
ENDBRANCH  21  27
ENDBRANCH   3  15
BRANCH   1  29
HETATM   29  O   LIG     1      27.431  21.713  22.888  1.00  0.00    -0.352 OA
HETATM   30  C   LIG     1      28.399  20.675  22.804  1.00  0.00     0.210 C 
ENDBRANCH   1  29
TORSDOF 4
ENDMDL
MODEL 10
REMARK VINA RESULT:      -4.2      4.873      8.450
REMARK  4 active torsions:
REMARK  status: ('A' for Active; 'I' for Inactive)
REMARK    1  A    between atoms: O_2  and  C_3 
REMARK    2  A    between atoms: C_5  and  C_6 
REMARK    3  A    between atoms: C_10  and  O_11 
REMARK    4  A    between atoms: C_13  and  O_14 
ROOT
HETATM    1  C   LIG     1      26.904  24.382  26.373  1.00  0.00     0.113 A 
HETATM    2  C   LIG     1      26.164  23.162  26.516  1.00  0.00     0.021 A 
HETATM    3  C   LIG     1      25.344  22.553  25.349  1.00  0.00     0.292 C 
HETATM    4  N   LIG     1      24.848  21.160  25.597  1.00  0.00     0.096 N 
HETATM    5  C   LIG     1      23.401  21.022  25.415  1.00  0.00     0.310 C 
HETATM    6  C   LIG     1      25.337  20.483  26.813  1.00  0.00     0.277 C 
HETATM    7  C   LIG     1      25.203  21.381  28.032  1.00  0.00     0.069 C 
HETATM    8  C   LIG     1      26.044  22.596  27.823  1.00  0.00    -0.042 A 
HETATM    9  C   LIG     1      26.711  23.161  28.931  1.00  0.00     0.047 A 
HETATM   10  C   LIG     1      27.471  24.296  28.722  1.00  0.00     0.108 A 
HETATM   11  C   LIG     1      27.575  24.880  27.506  1.00  0.00     0.139 A 
HETATM   12  O   LIG     1      28.401  25.987  27.618  1.00  0.00    -0.320 OA
HETATM   13  C   LIG     1      28.836  26.102  28.973  1.00  0.00     0.352 A 
HETATM   14  O   LIG     1      28.214  25.003  29.651  1.00  0.00    -0.323 OA
ENDROOT
BRANCH   3  15
HETATM   15  C   LIG     1      26.091  22.563  23.970  1.00  0.00     0.204 A 
HETATM   16  C   LIG     1      25.137  22.295  22.818  1.00  0.00    -0.007 A 
HETATM   17  C   LIG     1      24.004  23.015  22.441  1.00  0.00     0.014 A 
HETATM   18  C   LIG     1      25.496  21.155  22.136  1.00  0.00     0.084 A 
HETATM   19  C   LIG     1      23.239  22.558  21.363  1.00  0.00     0.040 A 
HETATM   20  C   LIG     1      23.597  21.376  20.658  1.00  0.00     0.102 A 
HETATM   21  C   LIG     1      24.762  20.656  21.051  1.00  0.00     0.118 A 
HETATM   22  C   LIG     1      26.683  20.645  22.789  1.00  0.00     0.297 A 
HETATM   23  O   LIG     1      27.338  19.604  22.462  1.00  0.00    -0.259 OA
HETATM   24  O   LIG     1      27.028  21.475  23.852  1.00  0.00    -0.304 OA
BRANCH  20  25
HETATM   25  O   LIG     1      22.809  20.908  19.595  1.00  0.00    -0.353 OA
HETATM   26  C   LIG     1      22.890  21.389  18.254  1.00  0.00     0.210 C 
ENDBRANCH  20  25
BRANCH  21  27
HETATM   27  O   LIG     1      25.212  19.478  20.434  1.00  0.00    -0.352 OA
HETATM   28  C   LIG     1      25.962  19.402  19.228  1.00  0.00     0.210 C 
ENDBRANCH  21  27
ENDBRANCH   3  15
BRANCH   1  29
HETATM   29  O   LIG     1      26.935  25.057  25.141  1.00  0.00    -0.352 OA
HETATM   30  C   LIG     1      28.109  25.414  24.424  1.00  0.00     0.210 C 
ENDBRANCH   1  29
TORSDOF 4
ENDMDL
MODEL 11
REMARK VINA RESULT:      -4.2      1.607      2.178
REMARK  4 active torsions:
REMARK  status: ('A' for Active; 'I' for Inactive)
REMARK    1  A    between atoms: O_2  and  C_3 
REMARK    2  A    between atoms: C_5  and  C_6 
REMARK    3  A    between atoms: C_10  and  O_11 
REMARK    4  A    between atoms: C_13  and  O_14 
ROOT
HETATM    1  C   LIG     1      28.819  25.100  17.219  1.00  0.00     0.113 A 
HETATM    2  C   LIG     1      28.621  23.692  17.398  1.00  0.00     0.021 A 
HETATM    3  C   LIG     1      28.354  23.067  18.792  1.00  0.00     0.292 C 
HETATM    4  N   LIG     1      27.923  21.632  18.760  1.00  0.00     0.096 N 
HETATM    5  C   LIG     1      28.755  20.760  19.592  1.00  0.00     0.310 C 
HETATM    6  C   LIG     1      27.636  21.051  17.434  1.00  0.00     0.277 C 
HETATM    7  C   LIG     1      28.754  21.351  16.449  1.00  0.00     0.069 C 
HETATM    8  C   LIG     1      28.854  22.831  16.281  1.00  0.00    -0.042 A 
HETATM    9  C   LIG     1      29.175  23.351  15.009  1.00  0.00     0.047 A 
HETATM   10  C   LIG     1      29.282  24.723  14.875  1.00  0.00     0.108 A 
HETATM   11  C   LIG     1      29.105  25.564  15.921  1.00  0.00     0.139 A 
HETATM   12  O   LIG     1      29.272  26.864  15.472  1.00  0.00    -0.320 OA
HETATM   13  C   LIG     1      29.568  26.836  14.075  1.00  0.00     0.352 A 
HETATM   14  O   LIG     1      29.571  25.444  13.731  1.00  0.00    -0.323 OA
ENDROOT
BRANCH   3  15
HETATM   15  C   LIG     1      27.320  23.864  19.662  1.00  0.00     0.204 A 
HETATM   16  C   LIG     1      27.774  23.970  21.108  1.00  0.00    -0.007 A 
HETATM   17  C   LIG     1      28.944  24.537  21.613  1.00  0.00     0.014 A 
HETATM   18  C   LIG     1      26.868  23.373  21.954  1.00  0.00     0.084 A 
HETATM   19  C   LIG     1      29.181  24.485  22.991  1.00  0.00     0.040 A 
HETATM   20  C   LIG     1      28.256  23.862  23.872  1.00  0.00     0.102 A 
HETATM   21  C   LIG     1      27.061  23.295  23.340  1.00  0.00     0.118 A 
HETATM   22  C   LIG     1      25.797  22.873  21.119  1.00  0.00     0.297 A 
HETATM   23  O   LIG     1      24.755  22.257  21.513  1.00  0.00    -0.259 OA
HETATM   24  O   LIG     1      26.064  23.168  19.785  1.00  0.00    -0.304 OA
BRANCH  20  25
HETATM   25  O   LIG     1      28.513  23.790  25.249  1.00  0.00    -0.353 OA
HETATM   26  C   LIG     1      28.176  24.805  26.191  1.00  0.00     0.210 C 
ENDBRANCH  20  25
BRANCH  21  27
HETATM   27  O   LIG     1      26.077  22.653  24.109  1.00  0.00    -0.352 OA
HETATM   28  C   LIG     1      25.110  23.296  24.930  1.00  0.00     0.210 C 
ENDBRANCH  21  27
ENDBRANCH   3  15
BRANCH   1  29
HETATM   29  O   LIG     1      28.744  25.976  18.315  1.00  0.00    -0.352 OA
HETATM   30  C   LIG     1      29.827  26.731  18.845  1.00  0.00     0.210 C 
ENDBRANCH   1  29
TORSDOF 4
ENDMDL
MODEL 12
REMARK VINA RESULT:      -4.0      3.781      6.058
REMARK  4 active torsions:
REMARK  status: ('A' for Active; 'I' for Inactive)
REMARK    1  A    between atoms: O_2  and  C_3 
REMARK    2  A    between atoms: C_5  and  C_6 
REMARK    3  A    between atoms: C_10  and  O_11 
REMARK    4  A    between atoms: C_13  and  O_14 
ROOT
HETATM    1  C   LIG     1      25.602  20.311  19.107  1.00  0.00     0.113 A 
HETATM    2  C   LIG     1      24.907  21.162  20.029  1.00  0.00     0.021 A 
HETATM    3  C   LIG     1      25.598  21.758  21.283  1.00  0.00     0.292 C 
HETATM    4  N   LIG     1      24.805  22.816  21.987  1.00  0.00     0.096 N 
HETATM    5  C   LIG     1      24.607  22.538  23.411  1.00  0.00     0.310 C 
HETATM    6  C   LIG     1      23.574  23.283  21.320  1.00  0.00     0.277 C 
HETATM    7  C   LIG     1      22.718  22.112  20.866  1.00  0.00     0.069 C 
HETATM    8  C   LIG     1      23.494  21.314  19.872  1.00  0.00    -0.042 A 
HETATM    9  C   LIG     1      22.809  20.725  18.788  1.00  0.00     0.047 A 
HETATM   10  C   LIG     1      23.541  19.974  17.887  1.00  0.00     0.108 A 
HETATM   11  C   LIG     1      24.873  19.779  18.027  1.00  0.00     0.139 A 
HETATM   12  O   LIG     1      25.315  18.994  16.974  1.00  0.00    -0.320 OA
HETATM   13  C   LIG     1      24.204  18.682  16.132  1.00  0.00     0.352 A 
HETATM   14  O   LIG     1      23.083  19.325  16.755  1.00  0.00    -0.323 OA
ENDROOT
BRANCH   3  15
HETATM   15  C   LIG     1      27.034  22.329  21.010  1.00  0.00     0.204 A 
HETATM   16  C   LIG     1      27.746  22.683  22.304  1.00  0.00    -0.007 A 
HETATM   17  C   LIG     1      28.058  21.854  23.381  1.00  0.00     0.014 A 
HETATM   18  C   LIG     1      28.055  24.023  22.346  1.00  0.00     0.084 A 
HETATM   19  C   LIG     1      28.686  22.407  24.503  1.00  0.00     0.040 A 
HETATM   20  C   LIG     1      29.001  23.792  24.558  1.00  0.00     0.102 A 
HETATM   21  C   LIG     1      28.682  24.625  23.446  1.00  0.00     0.118 A 
HETATM   22  C   LIG     1      27.581  24.591  21.101  1.00  0.00     0.297 A 
HETATM   23  O   LIG     1      27.676  25.808  20.740  1.00  0.00    -0.259 OA
HETATM   24  O   LIG     1      26.993  23.596  20.325  1.00  0.00    -0.304 OA
BRANCH  20  25
HETATM   25  O   LIG     1      29.606  24.346  25.697  1.00  0.00    -0.353 OA
HETATM   26  C   LIG     1      28.900  24.977  26.763  1.00  0.00     0.210 C 
ENDBRANCH  20  25
BRANCH  21  27
HETATM   27  O   LIG     1      28.941  26.003  23.387  1.00  0.00    -0.352 OA
HETATM   28  C   LIG     1      30.204  26.604  23.129  1.00  0.00     0.210 C 
ENDBRANCH  21  27
ENDBRANCH   3  15
BRANCH   1  29
HETATM   29  O   LIG     1      26.961  20.011  19.298  1.00  0.00    -0.352 OA
HETATM   30  C   LIG     1      27.474  18.788  19.811  1.00  0.00     0.210 C 
ENDBRANCH   1  29
TORSDOF 4
ENDMDL
MODEL 13
REMARK VINA RESULT:      -3.9      1.613      2.543
REMARK  4 active torsions:
REMARK  status: ('A' for Active; 'I' for Inactive)
REMARK    1  A    between atoms: O_2  and  C_3 
REMARK    2  A    between atoms: C_5  and  C_6 
REMARK    3  A    between atoms: C_10  and  O_11 
REMARK    4  A    between atoms: C_13  and  O_14 
ROOT
HETATM    1  C   LIG     1      27.557  23.372  18.913  1.00  0.00     0.113 A 
HETATM    2  C   LIG     1      27.338  21.995  19.250  1.00  0.00     0.021 A 
HETATM    3  C   LIG     1      26.830  21.560  20.649  1.00  0.00     0.292 C 
HETATM    4  N   LIG     1      26.420  20.121  20.743  1.00  0.00     0.096 N 
HETATM    5  C   LIG     1      27.095  19.398  21.823  1.00  0.00     0.310 C 
HETATM    6  C   LIG     1      26.379  19.355  19.482  1.00  0.00     0.277 C 
HETATM    7  C   LIG     1      27.654  19.552  18.678  1.00  0.00     0.069 C 
HETATM    8  C   LIG     1      27.773  20.997  18.324  1.00  0.00    -0.042 A 
HETATM    9  C   LIG     1      28.314  21.348  17.069  1.00  0.00     0.047 A 
HETATM   10  C   LIG     1      28.435  22.691  16.765  1.00  0.00     0.108 A 
HETATM   11  C   LIG     1      28.068  23.661  17.634  1.00  0.00     0.139 A 
HETATM   12  O   LIG     1      28.305  24.893  17.044  1.00  0.00    -0.320 OA
HETATM   13  C   LIG     1      28.847  24.682  15.739  1.00  0.00     0.352 A 
HETATM   14  O   LIG     1      28.919  23.257  15.599  1.00  0.00    -0.323 OA
ENDROOT
BRANCH   3  15
HETATM   15  C   LIG     1      25.652  22.436  21.202  1.00  0.00     0.204 A 
HETATM   16  C   LIG     1      25.886  22.835  22.649  1.00  0.00    -0.007 A 
HETATM   17  C   LIG     1      26.949  23.557  23.191  1.00  0.00     0.014 A 
HETATM   18  C   LIG     1      24.889  22.347  23.462  1.00  0.00     0.084 A 
HETATM   19  C   LIG     1      26.985  23.774  24.573  1.00  0.00     0.040 A 
HETATM   20  C   LIG     1      25.964  23.267  25.422  1.00  0.00     0.102 A 
HETATM   21  C   LIG     1      24.880  22.538  24.851  1.00  0.00     0.118 A 
HETATM   22  C   LIG     1      23.970  21.635  22.600  1.00  0.00     0.297 A 
HETATM   23  O   LIG     1      22.905  21.038  22.959  1.00  0.00    -0.259 OA
HETATM   24  O   LIG     1      24.417  21.697  21.283  1.00  0.00    -0.304 OA
BRANCH  20  25
HETATM   25  O   LIG     1      26.020  23.465  26.810  1.00  0.00    -0.353 OA
HETATM   26  C   LIG     1      26.559  24.624  27.442  1.00  0.00     0.210 C 
ENDBRANCH  20  25
BRANCH  21  27
HETATM   27  O   LIG     1      23.820  21.987  25.587  1.00  0.00    -0.352 OA
HETATM   28  C   LIG     1      23.845  20.750  26.287  1.00  0.00     0.210 C 
ENDBRANCH  21  27
ENDBRANCH   3  15
BRANCH   1  29
HETATM   29  O   LIG     1      27.282  24.387  19.844  1.00  0.00    -0.352 OA
HETATM   30  C   LIG     1      26.333  25.433  19.671  1.00  0.00     0.210 C 
ENDBRANCH   1  29
TORSDOF 4
ENDMDL
MODEL 14
REMARK VINA RESULT:      -3.9      2.924      9.223
REMARK  4 active torsions:
REMARK  status: ('A' for Active; 'I' for Inactive)
REMARK    1  A    between atoms: O_2  and  C_3 
REMARK    2  A    between atoms: C_5  and  C_6 
REMARK    3  A    between atoms: C_10  and  O_11 
REMARK    4  A    between atoms: C_13  and  O_14 
ROOT
HETATM    1  C   LIG     1      22.887  20.212  24.964  1.00  0.00     0.113 A 
HETATM    2  C   LIG     1      23.924  21.193  25.099  1.00  0.00     0.021 A 
HETATM    3  C   LIG     1      24.875  21.555  23.929  1.00  0.00     0.292 C 
HETATM    4  N   LIG     1      25.724  22.767  24.168  1.00  0.00     0.096 N 
HETATM    5  C   LIG     1      27.155  22.515  23.986  1.00  0.00     0.310 C 
HETATM    6  C   LIG     1      25.434  23.557  25.380  1.00  0.00     0.277 C 
HETATM    7  C   LIG     1      25.326  22.664  26.605  1.00  0.00     0.069 C 
HETATM    8  C   LIG     1      24.193  21.714  26.403  1.00  0.00    -0.042 A 
HETATM    9  C   LIG     1      23.401  21.354  27.514  1.00  0.00     0.047 A 
HETATM   10  C   LIG     1      22.366  20.459  27.312  1.00  0.00     0.108 A 
HETATM   11  C   LIG     1      22.109  19.917  26.099  1.00  0.00     0.139 A 
HETATM   12  O   LIG     1      21.019  19.070  26.218  1.00  0.00    -0.320 OA
HETATM   13  C   LIG     1      20.571  19.083  27.574  1.00  0.00     0.352 A 
HETATM   14  O   LIG     1      21.464  19.981  28.246  1.00  0.00    -0.323 OA
ENDROOT
BRANCH   3  15
HETATM   15  C   LIG     1      24.151  21.735  22.549  1.00  0.00     0.204 A 
HETATM   16  C   LIG     1      24.876  20.993  21.439  1.00  0.00    -0.007 A 
HETATM   17  C   LIG     1      25.160  19.631  21.343  1.00  0.00     0.014 A 
HETATM   18  C   LIG     1      25.301  21.863  20.461  1.00  0.00     0.084 A 
HETATM   19  C   LIG     1      25.886  19.167  20.240  1.00  0.00     0.040 A 
HETATM   20  C   LIG     1      26.337  20.060  19.230  1.00  0.00     0.102 A 
HETATM   21  C   LIG     1      26.031  21.448  19.339  1.00  0.00     0.118 A 
HETATM   22  C   LIG     1      24.870  23.183  20.873  1.00  0.00     0.297 A 
HETATM   23  O   LIG     1      25.059  24.272  20.242  1.00  0.00    -0.259 OA
HETATM   24  O   LIG     1      24.194  23.099  22.087  1.00  0.00    -0.304 OA
BRANCH  20  25
HETATM   25  O   LIG     1      27.087  19.591  18.141  1.00  0.00    -0.353 OA
HETATM   26  C   LIG     1      26.532  19.151  16.904  1.00  0.00     0.210 C 
ENDBRANCH  20  25
BRANCH  21  27
HETATM   27  O   LIG     1      26.424  22.422  18.408  1.00  0.00    -0.352 OA
HETATM   28  C   LIG     1      27.719  23.002  18.306  1.00  0.00     0.210 C 
ENDBRANCH  21  27
ENDBRANCH   3  15
BRANCH   1  29
HETATM   29  O   LIG     1      22.677  19.561  23.736  1.00  0.00    -0.352 OA
HETATM   30  C   LIG     1      22.743  18.157  23.524  1.00  0.00     0.210 C 
ENDBRANCH   1  29
TORSDOF 4
ENDMDL
MODEL 15
REMARK VINA RESULT:      -3.9      4.536      7.717
REMARK  4 active torsions:
REMARK  status: ('A' for Active; 'I' for Inactive)
REMARK    1  A    between atoms: O_2  and  C_3 
REMARK    2  A    between atoms: C_5  and  C_6 
REMARK    3  A    between atoms: C_10  and  O_11 
REMARK    4  A    between atoms: C_13  and  O_14 
ROOT
HETATM    1  C   LIG     1      26.447  23.178  26.213  1.00  0.00     0.113 A 
HETATM    2  C   LIG     1      26.971  23.350  24.889  1.00  0.00     0.021 A 
HETATM    3  C   LIG     1      26.652  22.358  23.741  1.00  0.00     0.292 C 
HETATM    4  N   LIG     1      27.071  22.824  22.379  1.00  0.00     0.096 N 
HETATM    5  C   LIG     1      27.927  21.866  21.678  1.00  0.00     0.310 C 
HETATM    6  C   LIG     1      27.560  24.212  22.271  1.00  0.00     0.277 C 
HETATM    7  C   LIG     1      28.597  24.514  23.341  1.00  0.00     0.069 C 
HETATM    8  C   LIG     1      27.955  24.366  24.680  1.00  0.00    -0.042 A 
HETATM    9  C   LIG     1      28.334  25.243  25.717  1.00  0.00     0.047 A 
HETATM   10  C   LIG     1      27.743  25.080  26.956  1.00  0.00     0.108 A 
HETATM   11  C   LIG     1      26.837  24.105  27.199  1.00  0.00     0.139 A 
HETATM   12  O   LIG     1      26.429  24.202  28.519  1.00  0.00    -0.320 OA
HETATM   13  C   LIG     1      27.114  25.293  29.135  1.00  0.00     0.352 A 
HETATM   14  O   LIG     1      27.952  25.828  28.101  1.00  0.00    -0.323 OA
ENDROOT
BRANCH   3  15
HETATM   15  C   LIG     1      25.143  21.933  23.665  1.00  0.00     0.204 A 
HETATM   16  C   LIG     1      24.923  20.847  22.626  1.00  0.00    -0.007 A 
HETATM   17  C   LIG     1      25.495  19.577  22.559  1.00  0.00     0.014 A 
HETATM   18  C   LIG     1      24.059  21.273  21.643  1.00  0.00     0.084 A 
HETATM   19  C   LIG     1      25.179  18.747  21.478  1.00  0.00     0.040 A 
HETATM   20  C   LIG     1      24.294  19.182  20.454  1.00  0.00     0.102 A 
HETATM   21  C   LIG     1      23.711  20.480  20.541  1.00  0.00     0.118 A 
HETATM   22  C   LIG     1      23.673  22.623  21.995  1.00  0.00     0.297 A 
HETATM   23  O   LIG     1      22.878  23.376  21.347  1.00  0.00    -0.259 OA
HETATM   24  O   LIG     1      24.304  22.999  23.178  1.00  0.00    -0.304 OA
BRANCH  20  25
HETATM   25  O   LIG     1      24.003  18.355  19.358  1.00  0.00    -0.353 OA
HETATM   26  C   LIG     1      24.956  17.933  18.385  1.00  0.00     0.210 C 
ENDBRANCH  20  25
BRANCH  21  27
HETATM   27  O   LIG     1      22.829  21.018  19.590  1.00  0.00    -0.352 OA
HETATM   28  C   LIG     1      23.195  21.571  18.332  1.00  0.00     0.210 C 
ENDBRANCH  21  27
ENDBRANCH   3  15
BRANCH   1  29
HETATM   29  O   LIG     1      25.588  22.106  26.507  1.00  0.00    -0.352 OA
HETATM   30  C   LIG     1      25.957  20.915  27.190  1.00  0.00     0.210 C 
ENDBRANCH   1  29
TORSDOF 4
ENDMDL
MODEL 16
REMARK VINA RESULT:      -3.8      3.361      5.949
REMARK  4 active torsions:
REMARK  status: ('A' for Active; 'I' for Inactive)
REMARK    1  A    between atoms: O_2  and  C_3 
REMARK    2  A    between atoms: C_5  and  C_6 
REMARK    3  A    between atoms: C_10  and  O_11 
REMARK    4  A    between atoms: C_13  and  O_14 
ROOT
HETATM    1  C   LIG     1      23.856  19.781  17.374  1.00  0.00     0.113 A 
HETATM    2  C   LIG     1      25.227  19.856  16.961  1.00  0.00     0.021 A 
HETATM    3  C   LIG     1      26.288  20.654  17.764  1.00  0.00     0.292 C 
HETATM    4  N   LIG     1      27.703  20.417  17.333  1.00  0.00     0.096 N 
HETATM    5  C   LIG     1      28.422  21.651  17.006  1.00  0.00     0.310 C 
HETATM    6  C   LIG     1      27.930  19.346  16.343  1.00  0.00     0.277 C 
HETATM    7  C   LIG     1      26.971  19.470  15.170  1.00  0.00     0.069 C 
HETATM    8  C   LIG     1      25.576  19.326  15.680  1.00  0.00    -0.042 A 
HETATM    9  C   LIG     1      24.624  18.659  14.879  1.00  0.00     0.047 A 
HETATM   10  C   LIG     1      23.332  18.551  15.359  1.00  0.00     0.108 A 
HETATM   11  C   LIG     1      22.960  19.075  16.549  1.00  0.00     0.139 A 
HETATM   12  O   LIG     1      21.616  18.801  16.750  1.00  0.00    -0.320 OA
HETATM   13  C   LIG     1      21.123  18.068  15.627  1.00  0.00     0.352 A 
HETATM   14  O   LIG     1      22.252  17.933  14.755  1.00  0.00    -0.323 OA
ENDROOT
BRANCH   3  15
HETATM   15  C   LIG     1      26.211  20.436  19.316  1.00  0.00     0.204 A 
HETATM   16  C   LIG     1      26.536  21.711  20.073  1.00  0.00    -0.007 A 
HETATM   17  C   LIG     1      25.896  22.949  20.010  1.00  0.00     0.014 A 
HETATM   18  C   LIG     1      27.641  21.540  20.876  1.00  0.00     0.084 A 
HETATM   19  C   LIG     1      26.398  24.011  20.772  1.00  0.00     0.040 A 
HETATM   20  C   LIG     1      27.543  23.845  21.596  1.00  0.00     0.102 A 
HETATM   21  C   LIG     1      28.181  22.572  21.656  1.00  0.00     0.118 A 
HETATM   22  C   LIG     1      28.070  20.169  20.693  1.00  0.00     0.297 A 
HETATM   23  O   LIG     1      29.058  19.604  21.261  1.00  0.00    -0.259 OA
HETATM   24  O   LIG     1      27.228  19.530  19.787  1.00  0.00    -0.304 OA
BRANCH  20  25
HETATM   25  O   LIG     1      28.057  24.921  22.336  1.00  0.00    -0.353 OA
HETATM   26  C   LIG     1      29.081  25.802  21.881  1.00  0.00     0.210 C 
ENDBRANCH  20  25
BRANCH  21  27
HETATM   27  O   LIG     1      29.318  22.290  22.429  1.00  0.00    -0.352 OA
HETATM   28  C   LIG     1      29.334  22.043  23.830  1.00  0.00     0.210 C 
ENDBRANCH  21  27
ENDBRANCH   3  15
BRANCH   1  29
HETATM   29  O   LIG     1      23.431  20.412  18.555  1.00  0.00    -0.352 OA
HETATM   30  C   LIG     1      22.805  21.686  18.633  1.00  0.00     0.210 C 
ENDBRANCH   1  29
TORSDOF 4
ENDMDL
MODEL 17
REMARK VINA RESULT:      -3.8      3.774      6.396
REMARK  4 active torsions:
REMARK  status: ('A' for Active; 'I' for Inactive)
REMARK    1  A    between atoms: O_2  and  C_3 
REMARK    2  A    between atoms: C_5  and  C_6 
REMARK    3  A    between atoms: C_10  and  O_11 
REMARK    4  A    between atoms: C_13  and  O_14 
ROOT
HETATM    1  C   LIG     1      24.932  21.778  20.509  1.00  0.00     0.113 A 
HETATM    2  C   LIG     1      25.622  20.996  21.494  1.00  0.00     0.021 A 
HETATM    3  C   LIG     1      26.581  21.636  22.530  1.00  0.00     0.292 C 
HETATM    4  N   LIG     1      27.013  20.715  23.631  1.00  0.00     0.096 N 
HETATM    5  C   LIG     1      28.467  20.624  23.772  1.00  0.00     0.310 C 
HETATM    6  C   LIG     1      26.349  19.399  23.699  1.00  0.00     0.277 C 
HETATM    7  C   LIG     1      26.334  18.721  22.339  1.00  0.00     0.069 C 
HETATM    8  C   LIG     1      25.552  19.572  21.394  1.00  0.00    -0.042 A 
HETATM    9  C   LIG     1      24.751  18.944  20.416  1.00  0.00     0.047 A 
HETATM   10  C   LIG     1      24.049  19.747  19.537  1.00  0.00     0.108 A 
HETATM   11  C   LIG     1      24.122  21.097  19.580  1.00  0.00     0.139 A 
HETATM   12  O   LIG     1      23.310  21.614  18.583  1.00  0.00    -0.320 OA
HETATM   13  C   LIG     1      22.697  20.532  17.881  1.00  0.00     0.352 A 
HETATM   14  O   LIG     1      23.200  19.351  18.519  1.00  0.00    -0.323 OA
ENDROOT
BRANCH   3  15
HETATM   15  C   LIG     1      26.029  22.950  23.186  1.00  0.00     0.204 A 
HETATM   16  C   LIG     1      27.128  23.981  23.376  1.00  0.00    -0.007 A 
HETATM   17  C   LIG     1      27.951  24.565  22.413  1.00  0.00     0.014 A 
HETATM   18  C   LIG     1      27.285  24.295  24.707  1.00  0.00     0.084 A 
HETATM   19  C   LIG     1      28.937  25.469  22.822  1.00  0.00     0.040 A 
HETATM   20  C   LIG     1      29.112  25.792  24.195  1.00  0.00     0.102 A 
HETATM   21  C   LIG     1      28.258  25.193  25.167  1.00  0.00     0.118 A 
HETATM   22  C   LIG     1      26.307  23.509  25.429  1.00  0.00     0.297 A 
HETATM   23  O   LIG     1      26.117  23.509  26.688  1.00  0.00    -0.259 OA
HETATM   24  O   LIG     1      25.574  22.733  24.536  1.00  0.00    -0.304 OA
BRANCH  20  25
HETATM   25  O   LIG     1      30.121  26.678  24.601  1.00  0.00    -0.353 OA
HETATM   26  C   LIG     1      29.946  28.083  24.769  1.00  0.00     0.210 C 
ENDBRANCH  20  25
BRANCH  21  27
HETATM   27  O   LIG     1      28.338  25.431  26.548  1.00  0.00    -0.352 OA
HETATM   28  C   LIG     1      29.287  24.858  27.439  1.00  0.00     0.210 C 
ENDBRANCH  21  27
ENDBRANCH   3  15
BRANCH   1  29
HETATM   29  O   LIG     1      25.082  23.174  20.473  1.00  0.00    -0.352 OA
HETATM   30  C   LIG     1      25.813  23.902  19.494  1.00  0.00     0.210 C 
ENDBRANCH   1  29
TORSDOF 4
ENDMDL
MODEL 18
REMARK VINA RESULT:      -3.8      4.248      6.985
REMARK  4 active torsions:
REMARK  status: ('A' for Active; 'I' for Inactive)
REMARK    1  A    between atoms: O_2  and  C_3 
REMARK    2  A    between atoms: C_5  and  C_6 
REMARK    3  A    between atoms: C_10  and  O_11 
REMARK    4  A    between atoms: C_13  and  O_14 
ROOT
HETATM    1  C   LIG     1      28.273  25.126  23.930  1.00  0.00     0.113 A 
HETATM    2  C   LIG     1      27.553  24.303  24.857  1.00  0.00     0.021 A 
HETATM    3  C   LIG     1      26.520  23.245  24.391  1.00  0.00     0.292 C 
HETATM    4  N   LIG     1      26.055  22.311  25.467  1.00  0.00     0.096 N 
HETATM    5  C   LIG     1      24.598  22.270  25.606  1.00  0.00     0.310 C 
HETATM    6  C   LIG     1      26.751  22.390  26.765  1.00  0.00     0.277 C 
HETATM    7  C   LIG     1      26.861  23.829  27.243  1.00  0.00     0.069 C 
HETATM    8  C   LIG     1      27.668  24.598  26.251  1.00  0.00    -0.042 A 
HETATM    9  C   LIG     1      28.539  25.605  26.718  1.00  0.00     0.047 A 
HETATM   10  C   LIG     1      29.266  26.320  25.784  1.00  0.00     0.108 A 
HETATM   11  C   LIG     1      29.152  26.093  24.455  1.00  0.00     0.139 A 
HETATM   12  O   LIG     1      30.003  26.958  23.786  1.00  0.00    -0.320 OA
HETATM   13  C   LIG     1      30.684  27.768  24.745  1.00  0.00     0.352 A 
HETATM   14  O   LIG     1      30.181  27.332  26.014  1.00  0.00    -0.323 OA
ENDROOT
BRANCH   3  15
HETATM   15  C   LIG     1      26.998  22.380  23.172  1.00  0.00     0.204 A 
HETATM   16  C   LIG     1      25.909  22.251  22.120  1.00  0.00    -0.007 A 
HETATM   17  C   LIG     1      25.259  23.261  21.411  1.00  0.00     0.014 A 
HETATM   18  C   LIG     1      25.557  20.933  21.935  1.00  0.00     0.084 A 
HETATM   19  C   LIG     1      24.244  22.912  20.513  1.00  0.00     0.040 A 
HETATM   20  C   LIG     1      23.868  21.555  20.321  1.00  0.00     0.102 A 
HETATM   21  C   LIG     1      24.547  20.534  21.048  1.00  0.00     0.118 A 
HETATM   22  C   LIG     1      26.392  20.158  22.827  1.00  0.00     0.297 A 
HETATM   23  O   LIG     1      26.386  18.892  22.960  1.00  0.00    -0.259 OA
HETATM   24  O   LIG     1      27.234  21.007  23.540  1.00  0.00    -0.304 OA
BRANCH  20  25
HETATM   25  O   LIG     1      22.832  21.216  19.438  1.00  0.00    -0.353 OA
HETATM   26  C   LIG     1      23.022  20.759  18.101  1.00  0.00     0.210 C 
ENDBRANCH  20  25
BRANCH  21  27
HETATM   27  O   LIG     1      24.262  19.164  20.945  1.00  0.00    -0.352 OA
HETATM   28  C   LIG     1      23.127  18.505  21.493  1.00  0.00     0.210 C 
ENDBRANCH  21  27
ENDBRANCH   3  15
BRANCH   1  29
HETATM   29  O   LIG     1      28.086  24.974  22.546  1.00  0.00    -0.352 OA
HETATM   30  C   LIG     1      29.111  24.705  21.598  1.00  0.00     0.210 C 
ENDBRANCH   1  29
TORSDOF 4
ENDMDL
MODEL 19
REMARK VINA RESULT:      -3.6      2.462      7.986
REMARK  4 active torsions:
REMARK  status: ('A' for Active; 'I' for Inactive)
REMARK    1  A    between atoms: O_2  and  C_3 
REMARK    2  A    between atoms: C_5  and  C_6 
REMARK    3  A    between atoms: C_10  and  O_11 
REMARK    4  A    between atoms: C_13  and  O_14 
ROOT
HETATM    1  C   LIG     1      23.977  20.348  22.792  1.00  0.00     0.113 A 
HETATM    2  C   LIG     1      23.825  19.739  21.504  1.00  0.00     0.021 A 
HETATM    3  C   LIG     1      24.543  20.286  20.243  1.00  0.00     0.292 C 
HETATM    4  N   LIG     1      24.474  19.386  19.046  1.00  0.00     0.096 N 
HETATM    5  C   LIG     1      23.941  20.049  17.854  1.00  0.00     0.310 C 
HETATM    6  C   LIG     1      23.902  18.041  19.254  1.00  0.00     0.277 C 
HETATM    7  C   LIG     1      22.586  18.116  20.011  1.00  0.00     0.069 C 
HETATM    8  C   LIG     1      22.845  18.709  21.356  1.00  0.00    -0.042 A 
HETATM    9  C   LIG     1      22.111  18.232  22.463  1.00  0.00     0.047 A 
HETATM   10  C   LIG     1      22.350  18.805  23.698  1.00  0.00     0.108 A 
HETATM   11  C   LIG     1      23.243  19.808  23.865  1.00  0.00     0.139 A 
HETATM   12  O   LIG     1      23.259  20.164  25.205  1.00  0.00    -0.320 OA
HETATM   13  C   LIG     1      22.329  19.342  25.911  1.00  0.00     0.352 A 
HETATM   14  O   LIG     1      21.762  18.488  24.909  1.00  0.00    -0.323 OA
ENDROOT
BRANCH   3  15
HETATM   15  C   LIG     1      26.048  20.663  20.478  1.00  0.00     0.204 A 
HETATM   16  C   LIG     1      26.451  21.880  19.662  1.00  0.00    -0.007 A 
HETATM   17  C   LIG     1      25.911  23.165  19.692  1.00  0.00     0.014 A 
HETATM   18  C   LIG     1      27.462  21.570  18.782  1.00  0.00     0.084 A 
HETATM   19  C   LIG     1      26.412  24.131  18.812  1.00  0.00     0.040 A 
HETATM   20  C   LIG     1      27.451  23.818  17.893  1.00  0.00     0.102 A 
HETATM   21  C   LIG     1      27.997  22.501  17.881  1.00  0.00     0.118 A 
HETATM   22  C   LIG     1      27.769  20.171  18.988  1.00  0.00     0.297 A 
HETATM   23  O   LIG     1      28.653  19.491  18.374  1.00  0.00    -0.259 OA
HETATM   24  O   LIG     1      26.946  19.650  19.983  1.00  0.00    -0.304 OA
BRANCH  20  25
HETATM   25  O   LIG     1      27.930  24.783  16.995  1.00  0.00    -0.353 OA
HETATM   26  C   LIG     1      29.045  25.637  17.241  1.00  0.00     0.210 C 
ENDBRANCH  20  25
BRANCH  21  27
HETATM   27  O   LIG     1      29.019  22.075  17.018  1.00  0.00    -0.352 OA
HETATM   28  C   LIG     1      28.858  21.697  15.657  1.00  0.00     0.210 C 
ENDBRANCH  21  27
ENDBRANCH   3  15
BRANCH   1  29
HETATM   29  O   LIG     1      24.821  21.459  22.962  1.00  0.00    -0.352 OA
HETATM   30  C   LIG     1      24.394  22.809  23.091  1.00  0.00     0.210 C 
ENDBRANCH   1  29
TORSDOF 4
ENDMDL
MODEL 20
REMARK VINA RESULT:      -3.6      3.985      7.109
REMARK  4 active torsions:
REMARK  status: ('A' for Active; 'I' for Inactive)
REMARK    1  A    between atoms: O_2  and  C_3 
REMARK    2  A    between atoms: C_5  and  C_6 
REMARK    3  A    between atoms: C_10  and  O_11 
REMARK    4  A    between atoms: C_13  and  O_14 
ROOT
HETATM    1  C   LIG     1      25.512  22.036  21.543  1.00  0.00     0.113 A 
HETATM    2  C   LIG     1      24.977  21.582  22.794  1.00  0.00     0.021 A 
HETATM    3  C   LIG     1      25.823  21.560  24.093  1.00  0.00     0.292 C 
HETATM    4  N   LIG     1      25.038  21.299  25.343  1.00  0.00     0.096 N 
HETATM    5  C   LIG     1      25.557  20.177  26.128  1.00  0.00     0.310 C 
HETATM    6  C   LIG     1      23.568  21.274  25.215  1.00  0.00     0.277 C 
HETATM    7  C   LIG     1      23.133  20.396  24.053  1.00  0.00     0.069 C 
HETATM    8  C   LIG     1      23.686  20.969  22.791  1.00  0.00    -0.042 A 
HETATM    9  C   LIG     1      22.911  20.897  21.614  1.00  0.00     0.047 A 
HETATM   10  C   LIG     1      23.446  21.417  20.450  1.00  0.00     0.108 A 
HETATM   11  C   LIG     1      24.680  21.969  20.409  1.00  0.00     0.139 A 
HETATM   12  O   LIG     1      24.928  22.398  19.115  1.00  0.00    -0.320 OA
HETATM   13  C   LIG     1      23.790  22.100  18.305  1.00  0.00     0.352 A 
HETATM   14  O   LIG     1      22.863  21.466  19.196  1.00  0.00    -0.323 OA
ENDROOT
BRANCH   3  15
HETATM   15  C   LIG     1      26.678  22.855  24.320  1.00  0.00     0.204 A 
HETATM   16  C   LIG     1      27.839  22.596  25.265  1.00  0.00    -0.007 A 
HETATM   17  C   LIG     1      28.885  21.683  25.130  1.00  0.00     0.014 A 
HETATM   18  C   LIG     1      27.746  23.386  26.389  1.00  0.00     0.084 A 
HETATM   19  C   LIG     1      29.832  21.581  26.155  1.00  0.00     0.040 A 
HETATM   20  C   LIG     1      29.738  22.386  27.323  1.00  0.00     0.102 A 
HETATM   21  C   LIG     1      28.668  23.321  27.442  1.00  0.00     0.118 A 
HETATM   22  C   LIG     1      26.553  24.189  26.225  1.00  0.00     0.297 A 
HETATM   23  O   LIG     1      26.107  25.057  27.043  1.00  0.00    -0.259 OA
HETATM   24  O   LIG     1      25.939  23.879  25.015  1.00  0.00    -0.304 OA
BRANCH  20  25
HETATM   25  O   LIG     1      30.676  22.260  28.359  1.00  0.00    -0.353 OA
HETATM   26  C   LIG     1      30.654  21.237  29.352  1.00  0.00     0.210 C 
ENDBRANCH  20  25
BRANCH  21  27
HETATM   27  O   LIG     1      28.471  24.164  28.547  1.00  0.00    -0.352 OA
HETATM   28  C   LIG     1      27.874  23.793  29.783  1.00  0.00     0.210 C 
ENDBRANCH  21  27
ENDBRANCH   3  15
BRANCH   1  29
HETATM   29  O   LIG     1      26.831  22.513  21.463  1.00  0.00    -0.352 OA
HETATM   30  C   LIG     1      27.220  23.786  20.963  1.00  0.00     0.210 C 
ENDBRANCH   1  29
TORSDOF 4
ENDMDL
