REMARK  4 active torsions:
REMARK  status: ('A' for Active; 'I' for Inactive)
REMARK    1  A    between atoms: O_2  and  C_3 
REMARK    2  A    between atoms: C_5  and  C_6 
REMARK    3  A    between atoms: C_10  and  O_11 
REMARK    4  A    between atoms: C_13  and  O_14 
ROOT
HETATM    1  C   LIG     1      -2.364   1.394  -0.295  1.00  0.00     0.113 A 
HETATM    2  C   LIG     1      -2.253   0.039  -0.750  1.00  0.00     0.021 A 
HETATM    3  C   LIG     1      -0.954  -0.788  -0.569  1.00  0.00     0.292 C 
HETATM    4  N   LIG     1      -1.098  -2.249  -0.871  1.00  0.00     0.096 N 
HETATM    5  C   LIG     1      -0.128  -2.734  -1.855  1.00  0.00     0.310 C 
HETATM    6  C   LIG     1      -2.464  -2.747  -1.123  1.00  0.00     0.277 C 
HETATM    7  C   LIG     1      -3.194  -1.865  -2.123  1.00  0.00     0.069 C 
HETATM    8  C   LIG     1      -3.313  -0.493  -1.548  1.00  0.00    -0.042 A 
HETATM    9  C   LIG     1      -4.483   0.253  -1.804  1.00  0.00     0.047 A 
HETATM   10  C   LIG     1      -4.569   1.529  -1.279  1.00  0.00     0.108 A 
HETATM   11  C   LIG     1      -3.568   2.077  -0.552  1.00  0.00     0.139 A 
HETATM   12  O   LIG     1      -3.951   3.352  -0.167  1.00  0.00    -0.320 OA
HETATM   13  C   LIG     1      -5.258   3.615  -0.679  1.00  0.00     0.352 A 
HETATM   14  O   LIG     1      -5.618   2.424  -1.391  1.00  0.00    -0.323 OA
ENDROOT
BRANCH   3  15
HETATM   15  C   LIG     1      -0.301  -0.649   0.851  1.00  0.00     0.204 A 
HETATM   16  C   LIG     1       1.154  -0.223   0.755  1.00  0.00    -0.007 A 
HETATM   17  C   LIG     1       1.688   0.926   0.172  1.00  0.00     0.014 A 
HETATM   18  C   LIG     1       1.983  -1.171   1.310  1.00  0.00     0.084 A 
HETATM   19  C   LIG     1       3.077   1.096   0.159  1.00  0.00     0.040 A 
HETATM   20  C   LIG     1       3.941   0.118   0.722  1.00  0.00     0.102 A 
HETATM   21  C   LIG     1       3.379  -1.047   1.321  1.00  0.00     0.118 A 
HETATM   22  C   LIG     1       1.124  -2.230   1.796  1.00  0.00     0.297 A 
HETATM   23  O   LIG     1       1.496  -3.296   2.384  1.00  0.00    -0.259 OA
HETATM   24  O   LIG     1      -0.206  -1.916   1.531  1.00  0.00    -0.304 OA
BRANCH  20  25
HETATM   25  O   LIG     1       5.334   0.282   0.681  1.00  0.00    -0.353 OA
HETATM   26  C   LIG     1       6.002   1.395   0.091  1.00  0.00     0.210 C 
ENDBRANCH  20  25
BRANCH  21  27
HETATM   27  O   LIG     1       4.130  -2.080   1.904  1.00  0.00    -0.352 OA
HETATM   28  C   LIG     1       5.549  -2.145   1.968  1.00  0.00     0.210 C 
ENDBRANCH  21  27
ENDBRANCH   3  15
BRANCH   1  29
HETATM   29  O   LIG     1      -1.292   2.014   0.369  1.00  0.00    -0.352 OA
HETATM   30  C   LIG     1      -1.294   3.340   0.883  1.00  0.00     0.210 C 
ENDBRANCH   1  29
TORSDOF 4
