REMARK  7 active torsions:
REMARK  status: ('A' for Active; 'I' for Inactive)
REMARK    1  A    between atoms: C_2  and  C_3 
REMARK    2  A    between atoms: C_2  and  C_8 
REMARK    3  A    between atoms: C_3  and  C_4 
REMARK    4  A    between atoms: C_4  and  C_5 
REMARK    5  A    between atoms: C_5  and  O_6 
REMARK    6  A    between atoms: C_13  and  O_14 
REMARK    7  A    between atoms: C_18  and  O_19 
ROOT
HETATM    1  C   LIG     1       2.710   0.788  -0.655  1.00  0.00    -0.002 C 
HETATM    2  C   LIG     1       2.224   2.252  -0.892  1.00  0.00     0.006 C 
HETATM    3  C   LIG     1       0.747   2.186  -1.264  1.00  0.00     0.006 C 
HETATM    4  C   LIG     1       0.290   0.976  -0.486  1.00  0.00     0.001 C 
HETATM    5  C   LIG     1      -1.194   0.519  -0.568  1.00  0.00     0.024 C 
HETATM    6  C   LIG     1      -1.969   0.768  -1.898  1.00  0.00     0.123 C 
HETATM    7  C   LIG     1      -3.379   0.089  -1.891  1.00  0.00     0.037 C 
HETATM    8  C   LIG     1      -3.834  -0.257  -0.457  1.00  0.00    -0.001 C 
HETATM    9  C   LIG     1      -5.316  -0.630  -0.311  1.00  0.00     0.037 C 
HETATM   10  C   LIG     1      -5.682  -0.664   1.194  1.00  0.00     0.118 C 
HETATM   11  C   LIG     1      -4.711  -1.515   2.051  1.00  0.00     0.032 C 
HETATM   12  C   LIG     1      -3.214  -1.246   1.752  1.00  0.00     0.012 C 
HETATM   13  C   LIG     1      -2.885  -1.304   0.232  1.00  0.00    -0.036 C 
HETATM   14  C   LIG     1      -3.139  -2.756  -0.285  1.00  0.00     0.016 C 
HETATM   15  C   LIG     1      -1.372  -0.951  -0.105  1.00  0.00     0.001 C 
HETATM   16  C   LIG     1      -0.319  -1.332   0.964  1.00  0.00     0.007 C 
HETATM   17  C   LIG     1       1.157  -1.175   0.470  1.00  0.00     0.010 C 
HETATM   18  C   LIG     1       1.383  -0.096  -0.660  1.00  0.00    -0.036 C 
HETATM   19  C   LIG     1       1.356  -0.803  -2.052  1.00  0.00     0.016 C 
ENDROOT
BRANCH   1  20
HETATM   20  C   LIG     1       3.698   0.635   0.554  1.00  0.00    -0.013 C 
HETATM   21  C   LIG     1       4.377  -0.757   0.518  1.00  0.00     0.010 C 
BRANCH  20  22
HETATM   22  C   LIG     1       4.810   1.729   0.554  1.00  0.00     0.015 C 
BRANCH  22  23
HETATM   23  C   LIG     1       5.750   1.630   1.768  1.00  0.00     0.110 C 
BRANCH  23  24
HETATM   24  C   LIG     1       6.708   2.787   1.801  1.00  0.00     0.139 C 
HETATM   25  O   LIG     1       6.275   3.954   1.993  1.00  0.00    -0.650 OA
BRANCH  24  26
HETATM   26  O   LIG     1       8.076   2.586   1.634  1.00  0.00    -0.776 OA
HETATM   27  H   LIG     1       8.459   1.662   1.475  1.00  0.00     0.167 HD
ENDBRANCH  24  26
ENDBRANCH  23  24
ENDBRANCH  22  23
ENDBRANCH  20  22
ENDBRANCH   1  20
BRANCH   6  28
HETATM   28  O   LIG     1      -1.232   0.301  -2.995  1.00  0.00    -0.395 OA
HETATM   29  H   LIG     1      -1.627   0.720  -3.804  1.00  0.00     0.210 HD
ENDBRANCH   6  28
BRANCH  10  30
HETATM   30  O   LIG     1      -7.006  -1.100   1.369  1.00  0.00    -0.396 OA
HETATM   31  H   LIG     1      -7.064  -2.027   1.017  1.00  0.00     0.210 HD
ENDBRANCH  10  30
TORSDOF 7
