MODEL 1
REMARK VINA RESULT:      -5.3      0.000      0.000
REMARK  7 active torsions:
REMARK  status: ('A' for Active; 'I' for Inactive)
REMARK    1  A    between atoms: C_2  and  C_3 
REMARK    2  A    between atoms: C_2  and  C_8 
REMARK    3  A    between atoms: C_3  and  C_4 
REMARK    4  A    between atoms: C_4  and  C_5 
REMARK    5  A    between atoms: C_5  and  O_6 
REMARK    6  A    between atoms: C_13  and  O_14 
REMARK    7  A    between atoms: C_18  and  O_19 
ROOT
HETATM    1  C   LIG     1      24.768  21.322  19.943  1.00  0.00    -0.002 C 
HETATM    2  C   LIG     1      23.369  21.982  20.153  1.00  0.00     0.006 C 
HETATM    3  C   LIG     1      23.171  22.161  21.654  1.00  0.00     0.006 C 
HETATM    4  C   LIG     1      24.587  22.387  22.124  1.00  0.00     0.001 C 
HETATM    5  C   LIG     1      24.873  22.622  23.634  1.00  0.00     0.024 C 
HETATM    6  C   LIG     1      23.945  21.925  24.676  1.00  0.00     0.123 C 
HETATM    7  C   LIG     1      24.469  22.103  26.140  1.00  0.00     0.037 C 
HETATM    8  C   LIG     1      25.480  23.266  26.242  1.00  0.00    -0.001 C 
HETATM    9  C   LIG     1      25.809  23.724  27.669  1.00  0.00     0.037 C 
HETATM   10  C   LIG     1      26.592  25.060  27.602  1.00  0.00     0.118 C 
HETATM   11  C   LIG     1      27.803  25.023  26.636  1.00  0.00     0.032 C 
HETATM   12  C   LIG     1      27.485  24.386  25.259  1.00  0.00     0.012 C 
HETATM   13  C   LIG     1      26.772  23.008  25.385  1.00  0.00    -0.036 C 
HETATM   14  C   LIG     1      27.743  21.998  26.075  1.00  0.00     0.016 C 
HETATM   15  C   LIG     1      26.363  22.374  23.986  1.00  0.00     0.001 C 
HETATM   16  C   LIG     1      27.283  22.700  22.784  1.00  0.00     0.007 C 
HETATM   17  C   LIG     1      26.960  21.860  21.505  1.00  0.00     0.010 C 
HETATM   18  C   LIG     1      25.466  21.366  21.376  1.00  0.00    -0.036 C 
HETATM   19  C   LIG     1      25.360  19.913  21.938  1.00  0.00     0.016 C 
ENDROOT
BRANCH   1  20
HETATM   20  C   LIG     1      25.561  21.892  18.715  1.00  0.00    -0.013 C 
HETATM   21  C   LIG     1      25.429  20.936  17.503  1.00  0.00     0.010 C 
BRANCH  20  22
HETATM   22  C   LIG     1      25.059  23.306  18.288  1.00  0.00     0.015 C 
BRANCH  22  23
HETATM   23  C   LIG     1      26.206  24.304  18.052  1.00  0.00     0.110 C 
BRANCH  23  24
HETATM   24  C   LIG     1      26.299  25.291  19.181  1.00  0.00     0.139 C 
HETATM   25  O   LIG     1      25.808  25.006  20.305  1.00  0.00    -0.650 OA
BRANCH  24  26
HETATM   26  O   LIG     1      26.936  26.517  19.006  1.00  0.00    -0.776 OA
HETATM   27  H   LIG     1      27.932  26.623  19.161  1.00  0.00     0.167 HD
ENDBRANCH  24  26
ENDBRANCH  23  24
ENDBRANCH  22  23
ENDBRANCH  20  22
ENDBRANCH   1  20
BRANCH   6  28
HETATM   28  O   LIG     1      23.817  20.559  24.389  1.00  0.00    -0.395 OA
HETATM   29  H   LIG     1      23.227  20.488  23.594  1.00  0.00     0.210 HD
ENDBRANCH   6  28
BRANCH  10  30
HETATM   30  O   LIG     1      26.998  25.458  28.887  1.00  0.00    -0.396 OA
HETATM   31  H   LIG     1      27.908  25.091  29.040  1.00  0.00     0.210 HD
ENDBRANCH  10  30
TORSDOF 7
ENDMDL
MODEL 2
REMARK VINA RESULT:      -5.2      1.676      2.324
REMARK  7 active torsions:
REMARK  status: ('A' for Active; 'I' for Inactive)
REMARK    1  A    between atoms: C_2  and  C_3 
REMARK    2  A    between atoms: C_2  and  C_8 
REMARK    3  A    between atoms: C_3  and  C_4 
REMARK    4  A    between atoms: C_4  and  C_5 
REMARK    5  A    between atoms: C_5  and  O_6 
REMARK    6  A    between atoms: C_13  and  O_14 
REMARK    7  A    between atoms: C_18  and  O_19 
ROOT
HETATM    1  C   LIG     1      27.202  22.506  18.298  1.00  0.00    -0.002 C 
HETATM    2  C   LIG     1      25.809  23.189  18.125  1.00  0.00     0.006 C 
HETATM    3  C   LIG     1      25.088  23.097  19.466  1.00  0.00     0.006 C 
HETATM    4  C   LIG     1      26.242  23.157  20.437  1.00  0.00     0.001 C 
HETATM    5  C   LIG     1      25.969  23.092  21.967  1.00  0.00     0.024 C 
HETATM    6  C   LIG     1      24.744  22.265  22.462  1.00  0.00     0.123 C 
HETATM    7  C   LIG     1      24.712  22.140  24.022  1.00  0.00     0.037 C 
HETATM    8  C   LIG     1      25.601  23.209  24.693  1.00  0.00    -0.001 C 
HETATM    9  C   LIG     1      25.395  23.377  26.205  1.00  0.00     0.037 C 
HETATM   10  C   LIG     1      26.129  24.658  26.675  1.00  0.00     0.118 C 
HETATM   11  C   LIG     1      27.604  24.737  26.208  1.00  0.00     0.032 C 
HETATM   12  C   LIG     1      27.806  24.384  24.712  1.00  0.00     0.012 C 
HETATM   13  C   LIG     1      27.117  23.046  24.312  1.00  0.00    -0.036 C 
HETATM   14  C   LIG     1      27.796  21.875  25.092  1.00  0.00     0.016 C 
HETATM   15  C   LIG     1      27.242  22.705  22.765  1.00  0.00     0.001 C 
HETATM   16  C   LIG     1      28.522  23.199  22.049  1.00  0.00     0.007 C 
HETATM   17  C   LIG     1      28.688  22.628  20.602  1.00  0.00     0.010 C 
HETATM   18  C   LIG     1      27.345  22.247  19.865  1.00  0.00    -0.036 C 
HETATM   19  C   LIG     1      27.071  20.722  20.064  1.00  0.00     0.016 C 
ENDROOT
BRANCH   1  20
HETATM   20  C   LIG     1      28.369  23.251  17.560  1.00  0.00    -0.013 C 
HETATM   21  C   LIG     1      28.779  22.473  16.285  1.00  0.00     0.010 C 
BRANCH  20  22
HETATM   22  C   LIG     1      27.981  24.705  17.151  1.00  0.00     0.015 C 
BRANCH  22  23
HETATM   23  C   LIG     1      28.717  25.777  17.973  1.00  0.00     0.110 C 
BRANCH  23  24
HETATM   24  C   LIG     1      27.946  26.123  19.216  1.00  0.00     0.139 C 
HETATM   25  O   LIG     1      28.527  26.127  20.333  1.00  0.00    -0.650 OA
BRANCH  24  26
HETATM   26  O   LIG     1      26.595  26.454  19.148  1.00  0.00    -0.776 OA
HETATM   27  H   LIG     1      25.980  26.032  18.463  1.00  0.00     0.167 HD
ENDBRANCH  24  26
ENDBRANCH  23  24
ENDBRANCH  22  23
ENDBRANCH  20  22
ENDBRANCH   1  20
BRANCH   6  28
HETATM   28  O   LIG     1      24.748  20.984  21.892  1.00  0.00    -0.395 OA
HETATM   29  H   LIG     1      23.798  20.719  21.777  1.00  0.00     0.210 HD
ENDBRANCH   6  28
BRANCH  10  30
HETATM   30  O   LIG     1      26.045  24.789  28.071  1.00  0.00    -0.396 OA
HETATM   31  H   LIG     1      25.752  25.718  28.267  1.00  0.00     0.210 HD
ENDBRANCH  10  30
TORSDOF 7
ENDMDL
MODEL 3
REMARK VINA RESULT:      -5.0      2.467      6.742
REMARK  7 active torsions:
REMARK  status: ('A' for Active; 'I' for Inactive)
REMARK    1  A    between atoms: C_2  and  C_3 
REMARK    2  A    between atoms: C_2  and  C_8 
REMARK    3  A    between atoms: C_3  and  C_4 
REMARK    4  A    between atoms: C_4  and  C_5 
REMARK    5  A    between atoms: C_5  and  O_6 
REMARK    6  A    between atoms: C_13  and  O_14 
REMARK    7  A    between atoms: C_18  and  O_19 
ROOT
HETATM    1  C   LIG     1      22.810  20.522  23.113  1.00  0.00    -0.002 C 
HETATM    2  C   LIG     1      23.115  19.237  22.281  1.00  0.00     0.006 C 
HETATM    3  C   LIG     1      23.695  19.688  20.945  1.00  0.00     0.006 C 
HETATM    4  C   LIG     1      24.416  20.955  21.337  1.00  0.00     0.001 C 
HETATM    5  C   LIG     1      25.175  21.778  20.258  1.00  0.00     0.024 C 
HETATM    6  C   LIG     1      24.622  21.768  18.800  1.00  0.00     0.123 C 
HETATM    7  C   LIG     1      25.377  22.784  17.879  1.00  0.00     0.037 C 
HETATM    8  C   LIG     1      26.733  23.199  18.487  1.00  0.00    -0.001 C 
HETATM    9  C   LIG     1      27.683  23.935  17.531  1.00  0.00     0.037 C 
HETATM   10  C   LIG     1      29.086  24.024  18.183  1.00  0.00     0.118 C 
HETATM   11  C   LIG     1      29.065  24.578  19.631  1.00  0.00     0.032 C 
HETATM   12  C   LIG     1      27.971  23.942  20.527  1.00  0.00     0.012 C 
HETATM   13  C   LIG     1      26.566  23.952  19.857  1.00  0.00    -0.036 C 
HETATM   14  C   LIG     1      26.109  25.433  19.662  1.00  0.00     0.016 C 
HETATM   15  C   LIG     1      25.444  23.232  20.724  1.00  0.00     0.001 C 
HETATM   16  C   LIG     1      25.606  23.305  22.262  1.00  0.00     0.007 C 
HETATM   17  C   LIG     1      24.356  22.789  23.047  1.00  0.00     0.010 C 
HETATM   18  C   LIG     1      23.477  21.716  22.293  1.00  0.00    -0.036 C 
HETATM   19  C   LIG     1      22.296  22.440  21.572  1.00  0.00     0.016 C 
ENDROOT
BRANCH   1  20
HETATM   20  C   LIG     1      23.153  20.388  24.638  1.00  0.00    -0.013 C 
HETATM   21  C   LIG     1      22.151  19.430  25.330  1.00  0.00     0.010 C 
BRANCH  20  22
HETATM   22  C   LIG     1      24.598  19.851  24.876  1.00  0.00     0.015 C 
BRANCH  22  23
HETATM   23  C   LIG     1      25.496  20.854  25.620  1.00  0.00     0.110 C 
BRANCH  23  24
HETATM   24  C   LIG     1      24.764  21.477  26.774  1.00  0.00     0.139 C 
HETATM   25  O   LIG     1      24.524  20.795  27.806  1.00  0.00    -0.650 OA
BRANCH  24  26
HETATM   26  O   LIG     1      24.356  22.808  26.726  1.00  0.00    -0.776 OA
HETATM   27  H   LIG     1      24.694  23.438  26.010  1.00  0.00     0.167 HD
ENDBRANCH  24  26
ENDBRANCH  23  24
ENDBRANCH  22  23
ENDBRANCH  20  22
ENDBRANCH   1  20
BRANCH   6  28
HETATM   28  O   LIG     1      23.251  22.058  18.788  1.00  0.00    -0.395 OA
HETATM   29  H   LIG     1      22.966  22.132  19.737  1.00  0.00     0.210 HD
ENDBRANCH   6  28
BRANCH  10  30
HETATM   30  O   LIG     1      29.955  24.780  17.379  1.00  0.00    -0.396 OA
HETATM   31  H   LIG     1      29.972  25.704  17.743  1.00  0.00     0.210 HD
ENDBRANCH  10  30
TORSDOF 7
ENDMDL
MODEL 4
REMARK VINA RESULT:      -5.0      4.502      9.660
REMARK  7 active torsions:
REMARK  status: ('A' for Active; 'I' for Inactive)
REMARK    1  A    between atoms: C_2  and  C_3 
REMARK    2  A    between atoms: C_2  and  C_8 
REMARK    3  A    between atoms: C_3  and  C_4 
REMARK    4  A    between atoms: C_4  and  C_5 
REMARK    5  A    between atoms: C_5  and  O_6 
REMARK    6  A    between atoms: C_13  and  O_14 
REMARK    7  A    between atoms: C_18  and  O_19 
ROOT
HETATM    1  C   LIG     1      28.817  25.858  30.486  1.00  0.00    -0.002 C 
HETATM    2  C   LIG     1      27.776  26.975  30.163  1.00  0.00     0.006 C 
HETATM    3  C   LIG     1      26.981  26.517  28.946  1.00  0.00     0.006 C 
HETATM    4  C   LIG     1      26.983  25.018  29.126  1.00  0.00     0.001 C 
HETATM    5  C   LIG     1      26.266  24.113  28.084  1.00  0.00     0.024 C 
HETATM    6  C   LIG     1      26.223  24.590  26.600  1.00  0.00     0.123 C 
HETATM    7  C   LIG     1      25.639  23.493  25.648  1.00  0.00     0.037 C 
HETATM    8  C   LIG     1      24.849  22.424  26.433  1.00  0.00    -0.001 C 
HETATM    9  C   LIG     1      23.980  21.492  25.579  1.00  0.00     0.037 C 
HETATM   10  C   LIG     1      23.042  20.682  26.509  1.00  0.00     0.118 C 
HETATM   11  C   LIG     1      23.779  19.988  27.683  1.00  0.00     0.032 C 
HETATM   12  C   LIG     1      24.789  20.906  28.417  1.00  0.00     0.012 C 
HETATM   13  C   LIG     1      25.760  21.633  27.441  1.00  0.00    -0.036 C 
HETATM   14  C   LIG     1      26.644  20.566  26.720  1.00  0.00     0.016 C 
HETATM   15  C   LIG     1      26.752  22.642  28.166  1.00  0.00     0.001 C 
HETATM   16  C   LIG     1      27.181  22.274  29.607  1.00  0.00     0.007 C 
HETATM   17  C   LIG     1      28.331  23.176  30.165  1.00  0.00     0.010 C 
HETATM   18  C   LIG     1      28.411  24.629  29.554  1.00  0.00    -0.036 C 
HETATM   19  C   LIG     1      29.443  24.633  28.382  1.00  0.00     0.016 C 
ENDROOT
BRANCH   1  20
HETATM   20  C   LIG     1      29.009  25.592  32.020  1.00  0.00    -0.013 C 
HETATM   21  C   LIG     1      30.060  26.568  32.605  1.00  0.00     0.010 C 
BRANCH  20  22
HETATM   22  C   LIG     1      27.680  25.756  32.821  1.00  0.00     0.015 C 
BRANCH  22  23
HETATM   23  C   LIG     1      27.738  26.895  33.854  1.00  0.00     0.110 C 
BRANCH  23  24
HETATM   24  C   LIG     1      26.582  27.838  33.679  1.00  0.00     0.139 C 
HETATM   25  O   LIG     1      26.509  28.878  34.386  1.00  0.00    -0.650 OA
BRANCH  24  26
HETATM   26  O   LIG     1      25.592  27.586  32.733  1.00  0.00    -0.776 OA
HETATM   27  H   LIG     1      24.674  28.008  32.802  1.00  0.00     0.167 HD
ENDBRANCH  24  26
ENDBRANCH  23  24
ENDBRANCH  22  23
ENDBRANCH  20  22
ENDBRANCH   1  20
BRANCH   6  28
HETATM   28  O   LIG     1      27.502  24.956  26.160  1.00  0.00    -0.395 OA
HETATM   29  H   LIG     1      27.734  25.802  26.626  1.00  0.00     0.210 HD
ENDBRANCH   6  28
BRANCH  10  30
HETATM   30  O   LIG     1      22.302  19.746  25.768  1.00  0.00    -0.396 OA
HETATM   31  H   LIG     1      22.932  19.041  25.464  1.00  0.00     0.210 HD
ENDBRANCH  10  30
TORSDOF 7
ENDMDL
MODEL 5
REMARK VINA RESULT:      -4.9      8.038     11.675
REMARK  7 active torsions:
REMARK  status: ('A' for Active; 'I' for Inactive)
REMARK    1  A    between atoms: C_2  and  C_3 
REMARK    2  A    between atoms: C_2  and  C_8 
REMARK    3  A    between atoms: C_3  and  C_4 
REMARK    4  A    between atoms: C_4  and  C_5 
REMARK    5  A    between atoms: C_5  and  O_6 
REMARK    6  A    between atoms: C_13  and  O_14 
REMARK    7  A    between atoms: C_18  and  O_19 
ROOT
HETATM    1  C   LIG     1      19.654  21.014  31.939  1.00  0.00    -0.002 C 
HETATM    2  C   LIG     1      19.352  22.542  31.841  1.00  0.00     0.006 C 
HETATM    3  C   LIG     1      19.914  23.198  33.097  1.00  0.00     0.006 C 
HETATM    4  C   LIG     1      21.103  22.318  33.396  1.00  0.00     0.001 C 
HETATM    5  C   LIG     1      21.999  22.621  34.629  1.00  0.00     0.024 C 
HETATM    6  C   LIG     1      21.333  23.261  35.885  1.00  0.00     0.123 C 
HETATM    7  C   LIG     1      22.316  23.330  37.100  1.00  0.00     0.037 C 
HETATM    8  C   LIG     1      23.785  23.182  36.649  1.00  0.00    -0.001 C 
HETATM    9  C   LIG     1      24.836  23.549  37.706  1.00  0.00     0.037 C 
HETATM   10  C   LIG     1      26.227  23.630  37.028  1.00  0.00     0.118 C 
HETATM   11  C   LIG     1      26.575  22.387  36.172  1.00  0.00     0.032 C 
HETATM   12  C   LIG     1      25.424  21.928  35.241  1.00  0.00     0.012 C 
HETATM   13  C   LIG     1      24.067  21.784  35.989  1.00  0.00    -0.036 C 
HETATM   14  C   LIG     1      24.195  20.647  37.053  1.00  0.00     0.016 C 
HETATM   15  C   LIG     1      22.854  21.392  35.038  1.00  0.00     0.001 C 
HETATM   16  C   LIG     1      23.196  20.515  33.809  1.00  0.00     0.007 C 
HETATM   17  C   LIG     1      21.934  19.975  33.058  1.00  0.00     0.010 C 
HETATM   18  C   LIG     1      20.636  20.864  33.186  1.00  0.00    -0.036 C 
HETATM   19  C   LIG     1      19.754  20.312  34.350  1.00  0.00     0.016 C 
ENDROOT
BRANCH   1  20
HETATM   20  C   LIG     1      20.080  20.363  30.577  1.00  0.00    -0.013 C 
HETATM   21  C   LIG     1      19.371  18.998  30.392  1.00  0.00     0.010 C 
BRANCH  20  22
HETATM   22  C   LIG     1      19.740  21.268  29.354  1.00  0.00     0.015 C 
BRANCH  22  23
HETATM   23  C   LIG     1      19.951  20.560  28.005  1.00  0.00     0.110 C 
BRANCH  23  24
HETATM   24  C   LIG     1      21.409  20.523  27.640  1.00  0.00     0.139 C 
HETATM   25  O   LIG     1      22.035  19.431  27.671  1.00  0.00    -0.650 OA
BRANCH  24  26
HETATM   26  O   LIG     1      22.077  21.683  27.254  1.00  0.00    -0.776 OA
HETATM   27  H   LIG     1      21.574  22.528  27.014  1.00  0.00     0.167 HD
ENDBRANCH  24  26
ENDBRANCH  23  24
ENDBRANCH  22  23
ENDBRANCH  20  22
ENDBRANCH   1  20
BRANCH   6  28
HETATM   28  O   LIG     1      20.185  22.547  36.255  1.00  0.00    -0.395 OA
HETATM   29  H   LIG     1      19.638  22.440  35.433  1.00  0.00     0.210 HD
ENDBRANCH   6  28
BRANCH  10  30
HETATM   30  O   LIG     1      27.228  23.866  37.985  1.00  0.00    -0.396 OA
HETATM   31  H   LIG     1      27.987  23.258  37.779  1.00  0.00     0.210 HD
ENDBRANCH  10  30
TORSDOF 7
ENDMDL
MODEL 6
REMARK VINA RESULT:      -4.9      2.194      7.809
REMARK  7 active torsions:
REMARK  status: ('A' for Active; 'I' for Inactive)
REMARK    1  A    between atoms: C_2  and  C_3 
REMARK    2  A    between atoms: C_2  and  C_8 
REMARK    3  A    between atoms: C_3  and  C_4 
REMARK    4  A    between atoms: C_4  and  C_5 
REMARK    5  A    between atoms: C_5  and  O_6 
REMARK    6  A    between atoms: C_13  and  O_14 
REMARK    7  A    between atoms: C_18  and  O_19 
ROOT
HETATM    1  C   LIG     1      27.540  23.800  26.706  1.00  0.00    -0.002 C 
HETATM    2  C   LIG     1      28.107  25.054  25.969  1.00  0.00     0.006 C 
HETATM    3  C   LIG     1      28.082  24.752  24.475  1.00  0.00     0.006 C 
HETATM    4  C   LIG     1      26.877  23.850  24.365  1.00  0.00     0.001 C 
HETATM    5  C   LIG     1      26.461  23.281  22.979  1.00  0.00     0.024 C 
HETATM    6  C   LIG     1      27.581  23.001  21.931  1.00  0.00     0.123 C 
HETATM    7  C   LIG     1      27.030  22.260  20.668  1.00  0.00     0.037 C 
HETATM    8  C   LIG     1      25.496  22.391  20.559  1.00  0.00    -0.001 C 
HETATM    9  C   LIG     1      24.897  21.979  19.207  1.00  0.00     0.037 C 
HETATM   10  C   LIG     1      23.417  22.433  19.151  1.00  0.00     0.118 C 
HETATM   11  C   LIG     1      22.587  22.002  20.387  1.00  0.00     0.032 C 
HETATM   12  C   LIG     1      23.297  22.266  21.739  1.00  0.00     0.012 C 
HETATM   13  C   LIG     1      24.753  21.718  21.770  1.00  0.00    -0.036 C 
HETATM   14  C   LIG     1      24.710  20.162  21.640  1.00  0.00     0.016 C 
HETATM   15  C   LIG     1      25.529  22.048  23.118  1.00  0.00     0.001 C 
HETATM   16  C   LIG     1      24.672  22.137  24.404  1.00  0.00     0.007 C 
HETATM   17  C   LIG     1      25.521  22.228  25.715  1.00  0.00     0.010 C 
HETATM   18  C   LIG     1      26.954  22.870  25.551  1.00  0.00    -0.036 C 
HETATM   19  C   LIG     1      28.004  21.730  25.359  1.00  0.00     0.016 C 
ENDROOT
BRANCH   1  20
HETATM   20  C   LIG     1      26.611  24.145  27.922  1.00  0.00    -0.013 C 
HETATM   21  C   LIG     1      26.936  23.221  29.123  1.00  0.00     0.010 C 
BRANCH  20  22
HETATM   22  C   LIG     1      26.762  25.628  28.383  1.00  0.00     0.015 C 
BRANCH  22  23
HETATM   23  C   LIG     1      27.494  25.767  29.729  1.00  0.00     0.110 C 
BRANCH  23  24
HETATM   24  C   LIG     1      27.310  27.145  30.300  1.00  0.00     0.139 C 
HETATM   25  O   LIG     1      26.593  27.309  31.323  1.00  0.00    -0.650 OA
BRANCH  24  26
HETATM   26  O   LIG     1      27.933  28.247  29.720  1.00  0.00    -0.776 OA
HETATM   27  H   LIG     1      27.811  28.468  28.740  1.00  0.00     0.167 HD
ENDBRANCH  24  26
ENDBRANCH  23  24
ENDBRANCH  22  23
ENDBRANCH  20  22
ENDBRANCH   1  20
BRANCH   6  28
HETATM   28  O   LIG     1      28.614  22.245  22.501  1.00  0.00    -0.395 OA
HETATM   29  H   LIG     1      29.080  21.787  21.753  1.00  0.00     0.210 HD
ENDBRANCH   6  28
BRANCH  10  30
HETATM   30  O   LIG     1      22.808  21.984  17.967  1.00  0.00    -0.396 OA
HETATM   31  H   LIG     1      22.864  20.992  17.960  1.00  0.00     0.210 HD
ENDBRANCH  10  30
TORSDOF 7
ENDMDL
MODEL 7
REMARK VINA RESULT:      -4.8      2.163      4.044
REMARK  7 active torsions:
REMARK  status: ('A' for Active; 'I' for Inactive)
REMARK    1  A    between atoms: C_2  and  C_3 
REMARK    2  A    between atoms: C_2  and  C_8 
REMARK    3  A    between atoms: C_3  and  C_4 
REMARK    4  A    between atoms: C_4  and  C_5 
REMARK    5  A    between atoms: C_5  and  O_6 
REMARK    6  A    between atoms: C_13  and  O_14 
REMARK    7  A    between atoms: C_18  and  O_19 
ROOT
HETATM    1  C   LIG     1      26.508  22.225  23.611  1.00  0.00    -0.002 C 
HETATM    2  C   LIG     1      25.073  22.797  23.836  1.00  0.00     0.006 C 
HETATM    3  C   LIG     1      25.058  23.462  25.208  1.00  0.00     0.006 C 
HETATM    4  C   LIG     1      26.480  23.953  25.324  1.00  0.00     0.001 C 
HETATM    5  C   LIG     1      26.933  24.714  26.602  1.00  0.00     0.024 C 
HETATM    6  C   LIG     1      26.260  24.342  27.959  1.00  0.00     0.123 C 
HETATM    7  C   LIG     1      26.950  25.053  29.170  1.00  0.00     0.037 C 
HETATM    8  C   LIG     1      27.795  26.261  28.712  1.00  0.00    -0.001 C 
HETATM    9  C   LIG     1      28.249  27.207  29.832  1.00  0.00     0.037 C 
HETATM   10  C   LIG     1      28.824  28.499  29.199  1.00  0.00     0.118 C 
HETATM   11  C   LIG     1      29.886  28.235  28.102  1.00  0.00     0.032 C 
HETATM   12  C   LIG     1      29.474  27.141  27.084  1.00  0.00     0.012 C 
HETATM   13  C   LIG     1      28.982  25.835  27.773  1.00  0.00    -0.036 C 
HETATM   14  C   LIG     1      30.167  25.208  28.574  1.00  0.00     0.016 C 
HETATM   15  C   LIG     1      28.477  24.728  26.749  1.00  0.00     0.001 C 
HETATM   16  C   LIG     1      29.171  24.699  25.366  1.00  0.00     0.007 C 
HETATM   17  C   LIG     1      28.796  23.447  24.506  1.00  0.00     0.010 C 
HETATM   18  C   LIG     1      27.381  22.816  24.808  1.00  0.00    -0.036 C 
HETATM   19  C   LIG     1      27.554  21.640  25.820  1.00  0.00     0.016 C 
ENDROOT
BRANCH   1  20
HETATM   20  C   LIG     1      27.040  22.404  22.147  1.00  0.00    -0.013 C 
HETATM   21  C   LIG     1      26.371  21.372  21.204  1.00  0.00     0.010 C 
BRANCH  20  22
HETATM   22  C   LIG     1      26.770  23.835  21.587  1.00  0.00     0.015 C 
BRANCH  22  23
HETATM   23  C   LIG     1      25.789  23.841  20.402  1.00  0.00     0.110 C 
BRANCH  23  24
HETATM   24  C   LIG     1      26.223  24.822  19.350  1.00  0.00     0.139 C 
HETATM   25  O   LIG     1      26.242  24.475  18.139  1.00  0.00    -0.650 OA
BRANCH  24  26
HETATM   26  O   LIG     1      26.595  26.119  19.694  1.00  0.00    -0.776 OA
HETATM   27  H   LIG     1      26.304  26.917  19.142  1.00  0.00     0.167 HD
ENDBRANCH  24  26
ENDBRANCH  23  24
ENDBRANCH  22  23
ENDBRANCH  20  22
ENDBRANCH   1  20
BRANCH   6  28
HETATM   28  O   LIG     1      26.284  22.954  28.158  1.00  0.00    -0.395 OA
HETATM   29  H   LIG     1      25.951  22.792  29.079  1.00  0.00     0.210 HD
ENDBRANCH   6  28
BRANCH  10  30
HETATM   30  O   LIG     1      29.342  29.346  30.194  1.00  0.00    -0.396 OA
HETATM   31  H   LIG     1      28.580  29.854  30.580  1.00  0.00     0.210 HD
ENDBRANCH  10  30
TORSDOF 7
ENDMDL
MODEL 8
REMARK VINA RESULT:      -4.5      3.045      7.545
REMARK  7 active torsions:
REMARK  status: ('A' for Active; 'I' for Inactive)
REMARK    1  A    between atoms: C_2  and  C_3 
REMARK    2  A    between atoms: C_2  and  C_8 
REMARK    3  A    between atoms: C_3  and  C_4 
REMARK    4  A    between atoms: C_4  and  C_5 
REMARK    5  A    between atoms: C_5  and  O_6 
REMARK    6  A    between atoms: C_13  and  O_14 
REMARK    7  A    between atoms: C_18  and  O_19 
ROOT
HETATM    1  C   LIG     1      23.612  20.795  26.596  1.00  0.00    -0.002 C 
HETATM    2  C   LIG     1      24.050  22.058  27.402  1.00  0.00     0.006 C 
HETATM    3  C   LIG     1      25.200  22.708  26.639  1.00  0.00     0.006 C 
HETATM    4  C   LIG     1      24.849  22.368  25.211  1.00  0.00     0.001 C 
HETATM    5  C   LIG     1      25.773  22.843  24.054  1.00  0.00     0.024 C 
HETATM    6  C   LIG     1      27.301  22.969  24.336  1.00  0.00     0.123 C 
HETATM    7  C   LIG     1      28.115  23.273  23.034  1.00  0.00     0.037 C 
HETATM    8  C   LIG     1      27.204  23.811  21.910  1.00  0.00    -0.001 C 
HETATM    9  C   LIG     1      27.938  24.432  20.713  1.00  0.00     0.037 C 
HETATM   10  C   LIG     1      26.911  25.176  19.822  1.00  0.00     0.118 C 
HETATM   11  C   LIG     1      25.674  24.320  19.452  1.00  0.00     0.032 C 
HETATM   12  C   LIG     1      25.060  23.558  20.654  1.00  0.00     0.012 C 
HETATM   13  C   LIG     1      26.122  22.761  21.467  1.00  0.00    -0.036 C 
HETATM   14  C   LIG     1      26.724  21.646  20.554  1.00  0.00     0.016 C 
HETATM   15  C   LIG     1      25.528  22.037  22.751  1.00  0.00     0.001 C 
HETATM   16  C   LIG     1      24.058  21.559  22.658  1.00  0.00     0.007 C 
HETATM   17  C   LIG     1      23.619  20.653  23.855  1.00  0.00     0.010 C 
HETATM   18  C   LIG     1      24.393  20.896  25.209  1.00  0.00    -0.036 C 
HETATM   19  C   LIG     1      25.568  19.873  25.314  1.00  0.00     0.016 C 
ENDROOT
BRANCH   1  20
HETATM   20  C   LIG     1      22.060  20.574  26.557  1.00  0.00    -0.013 C 
HETATM   21  C   LIG     1      21.726  19.080  26.795  1.00  0.00     0.010 C 
BRANCH  20  22
HETATM   22  C   LIG     1      21.312  21.425  27.630  1.00  0.00     0.015 C 
BRANCH  22  23
HETATM   23  C   LIG     1      19.944  20.836  28.017  1.00  0.00     0.110 C 
BRANCH  23  24
HETATM   24  C   LIG     1      19.804  20.742  29.510  1.00  0.00     0.139 C 
HETATM   25  O   LIG     1      20.374  19.809  30.136  1.00  0.00    -0.650 OA
BRANCH  24  26
HETATM   26  O   LIG     1      19.059  21.682  30.218  1.00  0.00    -0.776 OA
HETATM   27  H   LIG     1      19.011  21.665  31.229  1.00  0.00     0.167 HD
ENDBRANCH  24  26
ENDBRANCH  23  24
ENDBRANCH  22  23
ENDBRANCH  20  22
ENDBRANCH   1  20
BRANCH   6  28
HETATM   28  O   LIG     1      27.793  21.799  24.931  1.00  0.00    -0.395 OA
HETATM   29  H   LIG     1      28.373  22.084  25.685  1.00  0.00     0.210 HD
ENDBRANCH   6  28
BRANCH  10  30
HETATM   30  O   LIG     1      27.533  25.672  18.664  1.00  0.00    -0.396 OA
HETATM   31  H   LIG     1      28.411  26.049  18.934  1.00  0.00     0.210 HD
ENDBRANCH  10  30
TORSDOF 7
ENDMDL
MODEL 9
REMARK VINA RESULT:      -4.5      5.180      9.484
REMARK  7 active torsions:
REMARK  status: ('A' for Active; 'I' for Inactive)
REMARK    1  A    between atoms: C_2  and  C_3 
REMARK    2  A    between atoms: C_2  and  C_8 
REMARK    3  A    between atoms: C_3  and  C_4 
REMARK    4  A    between atoms: C_4  and  C_5 
REMARK    5  A    between atoms: C_5  and  O_6 
REMARK    6  A    between atoms: C_13  and  O_14 
REMARK    7  A    between atoms: C_18  and  O_19 
ROOT
HETATM    1  C   LIG     1      27.545  24.060  28.531  1.00  0.00    -0.002 C 
HETATM    2  C   LIG     1      27.487  22.795  29.443  1.00  0.00     0.006 C 
HETATM    3  C   LIG     1      28.070  23.184  30.797  1.00  0.00     0.006 C 
HETATM    4  C   LIG     1      27.681  24.640  30.890  1.00  0.00     0.001 C 
HETATM    5  C   LIG     1      28.081  25.469  32.143  1.00  0.00     0.024 C 
HETATM    6  C   LIG     1      29.408  25.102  32.876  1.00  0.00     0.123 C 
HETATM    7  C   LIG     1      29.766  26.137  33.994  1.00  0.00     0.037 C 
HETATM    8  C   LIG     1      28.538  26.980  34.400  1.00  0.00    -0.001 C 
HETATM    9  C   LIG     1      28.698  27.794  35.691  1.00  0.00     0.037 C 
HETATM   10  C   LIG     1      27.314  28.345  36.116  1.00  0.00     0.118 C 
HETATM   11  C   LIG     1      26.560  29.076  34.978  1.00  0.00     0.032 C 
HETATM   12  C   LIG     1      26.569  28.311  33.630  1.00  0.00     0.012 C 
HETATM   13  C   LIG     1      27.995  27.852  33.209  1.00  0.00    -0.036 C 
HETATM   14  C   LIG     1      28.879  29.115  32.956  1.00  0.00     0.016 C 
HETATM   15  C   LIG     1      28.018  26.995  31.870  1.00  0.00     0.001 C 
HETATM   16  C   LIG     1      26.934  27.330  30.817  1.00  0.00     0.007 C 
HETATM   17  C   LIG     1      27.161  26.620  29.441  1.00  0.00     0.010 C 
HETATM   18  C   LIG     1      27.952  25.256  29.504  1.00  0.00    -0.036 C 
HETATM   19  C   LIG     1      29.463  25.530  29.221  1.00  0.00     0.016 C 
ENDROOT
BRANCH   1  20
HETATM   20  C   LIG     1      26.281  24.244  27.620  1.00  0.00    -0.013 C 
HETATM   21  C   LIG     1      26.707  24.680  26.195  1.00  0.00     0.010 C 
BRANCH  20  22
HETATM   22  C   LIG     1      25.436  22.937  27.506  1.00  0.00     0.015 C 
BRANCH  22  23
HETATM   23  C   LIG     1      24.710  22.807  26.156  1.00  0.00     0.110 C 
BRANCH  23  24
HETATM   24  C   LIG     1      23.796  21.614  26.151  1.00  0.00     0.139 C 
HETATM   25  O   LIG     1      23.249  21.240  27.222  1.00  0.00    -0.650 OA
BRANCH  24  26
HETATM   26  O   LIG     1      23.533  20.921  24.972  1.00  0.00    -0.776 OA
HETATM   27  H   LIG     1      23.303  19.935  24.979  1.00  0.00     0.167 HD
ENDBRANCH  24  26
ENDBRANCH  23  24
ENDBRANCH  22  23
ENDBRANCH  20  22
ENDBRANCH   1  20
BRANCH   6  28
HETATM   28  O   LIG     1      30.469  25.014  31.965  1.00  0.00    -0.395 OA
HETATM   29  H   LIG     1      30.591  24.050  31.760  1.00  0.00     0.210 HD
ENDBRANCH   6  28
BRANCH  10  30
HETATM   30  O   LIG     1      27.440  29.178  37.240  1.00  0.00    -0.396 OA
HETATM   31  H   LIG     1      26.574  29.650  37.360  1.00  0.00     0.210 HD
ENDBRANCH  10  30
TORSDOF 7
ENDMDL
MODEL 10
REMARK VINA RESULT:      -4.5      2.694      7.251
REMARK  7 active torsions:
REMARK  status: ('A' for Active; 'I' for Inactive)
REMARK    1  A    between atoms: C_2  and  C_3 
REMARK    2  A    between atoms: C_2  and  C_8 
REMARK    3  A    between atoms: C_3  and  C_4 
REMARK    4  A    between atoms: C_4  and  C_5 
REMARK    5  A    between atoms: C_5  and  O_6 
REMARK    6  A    between atoms: C_13  and  O_14 
REMARK    7  A    between atoms: C_18  and  O_19 
ROOT
HETATM    1  C   LIG     1      24.904  21.572  25.932  1.00  0.00    -0.002 C 
HETATM    2  C   LIG     1      25.274  22.812  26.804  1.00  0.00     0.006 C 
HETATM    3  C   LIG     1      26.373  23.572  26.070  1.00  0.00     0.006 C 
HETATM    4  C   LIG     1      26.028  23.291  24.628  1.00  0.00     0.001 C 
HETATM    5  C   LIG     1      26.908  23.885  23.492  1.00  0.00     0.024 C 
HETATM    6  C   LIG     1      28.429  24.088  23.769  1.00  0.00     0.123 C 
HETATM    7  C   LIG     1      29.209  24.511  22.479  1.00  0.00     0.037 C 
HETATM    8  C   LIG     1      28.255  25.055  21.394  1.00  0.00    -0.001 C 
HETATM    9  C   LIG     1      28.937  25.784  20.228  1.00  0.00     0.037 C 
HETATM   10  C   LIG     1      27.857  26.513  19.388  1.00  0.00     0.118 C 
HETATM   11  C   LIG     1      26.669  25.605  18.981  1.00  0.00     0.032 C 
HETATM   12  C   LIG     1      26.115  24.742  20.143  1.00  0.00     0.012 C 
HETATM   13  C   LIG     1      27.233  23.968  20.901  1.00  0.00    -0.036 C 
HETATM   14  C   LIG     1      27.891  22.943  19.923  1.00  0.00     0.016 C 
HETATM   15  C   LIG     1      26.698  23.139  22.148  1.00  0.00     0.001 C 
HETATM   16  C   LIG     1      25.259  22.578  22.039  1.00  0.00     0.007 C 
HETATM   17  C   LIG     1      24.888  21.583  23.187  1.00  0.00     0.010 C 
HETATM   18  C   LIG     1      25.661  21.797  24.547  1.00  0.00    -0.036 C 
HETATM   19  C   LIG     1      26.897  20.842  24.586  1.00  0.00     0.016 C 
ENDROOT
BRANCH   1  20
HETATM   20  C   LIG     1      23.367  21.259  25.893  1.00  0.00    -0.013 C 
HETATM   21  C   LIG     1      23.134  19.751  25.627  1.00  0.00     0.010 C 
BRANCH  20  22
HETATM   22  C   LIG     1      22.649  21.644  27.224  1.00  0.00     0.015 C 
BRANCH  22  23
HETATM   23  C   LIG     1      21.658  20.570  27.704  1.00  0.00     0.110 C 
BRANCH  23  24
HETATM   24  C   LIG     1      20.359  21.192  28.135  1.00  0.00     0.139 C 
HETATM   25  O   LIG     1      20.185  22.432  28.004  1.00  0.00    -0.650 OA
BRANCH  24  26
HETATM   26  O   LIG     1      19.336  20.412  28.667  1.00  0.00    -0.776 OA
HETATM   27  H   LIG     1      18.484  20.232  28.149  1.00  0.00     0.167 HD
ENDBRANCH  24  26
ENDBRANCH  23  24
ENDBRANCH  22  23
ENDBRANCH  20  22
ENDBRANCH   1  20
BRANCH   6  28
HETATM   28  O   LIG     1      28.997  22.918  24.294  1.00  0.00    -0.395 OA
HETATM   29  H   LIG     1      29.714  23.204  24.918  1.00  0.00     0.210 HD
ENDBRANCH   6  28
BRANCH  10  30
HETATM   30  O   LIG     1      28.434  27.109  18.254  1.00  0.00    -0.396 OA
HETATM   31  H   LIG     1      28.298  28.090  18.331  1.00  0.00     0.210 HD
ENDBRANCH  10  30
TORSDOF 7
ENDMDL
MODEL 11
REMARK VINA RESULT:      -4.5      4.286      7.846
REMARK  7 active torsions:
REMARK  status: ('A' for Active; 'I' for Inactive)
REMARK    1  A    between atoms: C_2  and  C_3 
REMARK    2  A    between atoms: C_2  and  C_8 
REMARK    3  A    between atoms: C_3  and  C_4 
REMARK    4  A    between atoms: C_4  and  C_5 
REMARK    5  A    between atoms: C_5  and  O_6 
REMARK    6  A    between atoms: C_13  and  O_14 
REMARK    7  A    between atoms: C_18  and  O_19 
ROOT
HETATM    1  C   LIG     1      27.432  23.588  26.887  1.00  0.00    -0.002 C 
HETATM    2  C   LIG     1      26.534  24.535  26.031  1.00  0.00     0.006 C 
HETATM    3  C   LIG     1      25.400  23.692  25.459  1.00  0.00     0.006 C 
HETATM    4  C   LIG     1      25.208  22.662  26.545  1.00  0.00     0.001 C 
HETATM    5  C   LIG     1      24.121  21.562  26.384  1.00  0.00     0.024 C 
HETATM    6  C   LIG     1      23.788  21.061  24.945  1.00  0.00     0.123 C 
HETATM    7  C   LIG     1      22.820  19.831  24.962  1.00  0.00     0.037 C 
HETATM    8  C   LIG     1      22.089  19.704  26.316  1.00  0.00    -0.001 C 
HETATM    9  C   LIG     1      20.898  18.736  26.330  1.00  0.00     0.037 C 
HETATM   10  C   LIG     1      20.104  18.932  27.646  1.00  0.00     0.118 C 
HETATM   11  C   LIG     1      20.988  18.892  28.918  1.00  0.00     0.032 C 
HETATM   12  C   LIG     1      22.281  19.739  28.807  1.00  0.00     0.012 C 
HETATM   13  C   LIG     1      23.083  19.444  27.506  1.00  0.00    -0.036 C 
HETATM   14  C   LIG     1      23.580  17.963  27.543  1.00  0.00     0.016 C 
HETATM   15  C   LIG     1      24.371  20.359  27.331  1.00  0.00     0.001 C 
HETATM   16  C   LIG     1      25.080  20.810  28.632  1.00  0.00     0.007 C 
HETATM   17  C   LIG     1      26.461  21.502  28.382  1.00  0.00     0.010 C 
HETATM   18  C   LIG     1      26.617  22.221  26.986  1.00  0.00    -0.036 C 
HETATM   19  C   LIG     1      27.313  21.245  25.985  1.00  0.00     0.016 C 
ENDROOT
BRANCH   1  20
HETATM   20  C   LIG     1      27.952  24.238  28.217  1.00  0.00    -0.013 C 
HETATM   21  C   LIG     1      29.143  25.184  27.920  1.00  0.00     0.010 C 
BRANCH  20  22
HETATM   22  C   LIG     1      26.844  25.053  28.953  1.00  0.00     0.015 C 
BRANCH  22  23
HETATM   23  C   LIG     1      27.280  25.535  30.348  1.00  0.00     0.110 C 
BRANCH  23  24
HETATM   24  C   LIG     1      27.036  27.009  30.507  1.00  0.00     0.139 C 
HETATM   25  O   LIG     1      26.557  27.452  31.584  1.00  0.00    -0.650 OA
BRANCH  24  26
HETATM   26  O   LIG     1      27.345  27.898  29.480  1.00  0.00    -0.776 OA
HETATM   27  H   LIG     1      26.639  28.498  29.071  1.00  0.00     0.167 HD
ENDBRANCH  24  26
ENDBRANCH  23  24
ENDBRANCH  22  23
ENDBRANCH  20  22
ENDBRANCH   1  20
BRANCH   6  28
HETATM   28  O   LIG     1      24.960  20.722  24.255  1.00  0.00    -0.395 OA
HETATM   29  H   LIG     1      24.832  21.012  23.314  1.00  0.00     0.210 HD
ENDBRANCH   6  28
BRANCH  10  30
HETATM   30  O   LIG     1      19.064  17.992  27.738  1.00  0.00    -0.396 OA
HETATM   31  H   LIG     1      18.443  18.159  26.981  1.00  0.00     0.210 HD
ENDBRANCH  10  30
TORSDOF 7
ENDMDL
MODEL 12
REMARK VINA RESULT:      -4.4      2.276      7.095
REMARK  7 active torsions:
REMARK  status: ('A' for Active; 'I' for Inactive)
REMARK    1  A    between atoms: C_2  and  C_3 
REMARK    2  A    between atoms: C_2  and  C_8 
REMARK    3  A    between atoms: C_3  and  C_4 
REMARK    4  A    between atoms: C_4  and  C_5 
REMARK    5  A    between atoms: C_5  and  O_6 
REMARK    6  A    between atoms: C_13  and  O_14 
REMARK    7  A    between atoms: C_18  and  O_19 
ROOT
HETATM    1  C   LIG     1      26.288  22.284  27.438  1.00  0.00    -0.002 C 
HETATM    2  C   LIG     1      25.912  23.743  27.847  1.00  0.00     0.006 C 
HETATM    3  C   LIG     1      26.600  24.682  26.863  1.00  0.00     0.006 C 
HETATM    4  C   LIG     1      26.612  23.850  25.604  1.00  0.00     0.001 C 
HETATM    5  C   LIG     1      27.239  24.426  24.303  1.00  0.00     0.024 C 
HETATM    6  C   LIG     1      28.433  25.420  24.437  1.00  0.00     0.123 C 
HETATM    7  C   LIG     1      29.071  25.761  23.049  1.00  0.00     0.037 C 
HETATM    8  C   LIG     1      28.118  25.412  21.886  1.00  0.00    -0.001 C 
HETATM    9  C   LIG     1      28.510  25.992  20.520  1.00  0.00     0.037 C 
HETATM   10  C   LIG     1      27.329  25.808  19.535  1.00  0.00     0.118 C 
HETATM   11  C   LIG     1      26.776  24.360  19.491  1.00  0.00     0.032 C 
HETATM   12  C   LIG     1      26.560  23.732  20.892  1.00  0.00     0.012 C 
HETATM   13  C   LIG     1      27.806  23.873  21.813  1.00  0.00    -0.036 C 
HETATM   14  C   LIG     1      28.988  23.063  21.192  1.00  0.00     0.016 C 
HETATM   15  C   LIG     1      27.578  23.308  23.281  1.00  0.00     0.001 C 
HETATM   16  C   LIG     1      26.605  22.112  23.418  1.00  0.00     0.007 C 
HETATM   17  C   LIG     1      26.612  21.461  24.840  1.00  0.00     0.010 C 
HETATM   18  C   LIG     1      27.014  22.423  26.025  1.00  0.00    -0.036 C 
HETATM   19  C   LIG     1      28.538  22.259  26.320  1.00  0.00     0.016 C 
ENDROOT
BRANCH   1  20
HETATM   20  C   LIG     1      25.103  21.264  27.565  1.00  0.00    -0.013 C 
HETATM   21  C   LIG     1      25.060  20.669  28.995  1.00  0.00     0.010 C 
BRANCH  20  22
HETATM   22  C   LIG     1      23.720  21.919  27.259  1.00  0.00     0.015 C 
BRANCH  22  23
HETATM   23  C   LIG     1      22.658  20.898  26.814  1.00  0.00     0.110 C 
BRANCH  23  24
HETATM   24  C   LIG     1      23.069  20.216  25.541  1.00  0.00     0.139 C 
HETATM   25  O   LIG     1      23.302  18.978  25.540  1.00  0.00    -0.650 OA
BRANCH  24  26
HETATM   26  O   LIG     1      23.185  20.932  24.352  1.00  0.00    -0.776 OA
HETATM   27  H   LIG     1      22.998  20.501  23.455  1.00  0.00     0.167 HD
ENDBRANCH  24  26
ENDBRANCH  23  24
ENDBRANCH  22  23
ENDBRANCH  20  22
ENDBRANCH   1  20
BRANCH   6  28
HETATM   28  O   LIG     1      29.417  24.899  25.288  1.00  0.00    -0.395 OA
HETATM   29  H   LIG     1      29.295  23.913  25.296  1.00  0.00     0.210 HD
ENDBRANCH   6  28
BRANCH  10  30
HETATM   30  O   LIG     1      27.690  26.237  18.247  1.00  0.00    -0.396 OA
HETATM   31  H   LIG     1      28.681  26.202  18.188  1.00  0.00     0.210 HD
ENDBRANCH  10  30
TORSDOF 7
ENDMDL
MODEL 13
REMARK VINA RESULT:      -4.3      2.815      7.908
REMARK  7 active torsions:
REMARK  status: ('A' for Active; 'I' for Inactive)
REMARK    1  A    between atoms: C_2  and  C_3 
REMARK    2  A    between atoms: C_2  and  C_8 
REMARK    3  A    between atoms: C_3  and  C_4 
REMARK    4  A    between atoms: C_4  and  C_5 
REMARK    5  A    between atoms: C_5  and  O_6 
REMARK    6  A    between atoms: C_13  and  O_14 
REMARK    7  A    between atoms: C_18  and  O_19 
ROOT
HETATM    1  C   LIG     1      23.726  21.691  23.844  1.00  0.00    -0.002 C 
HETATM    2  C   LIG     1      22.927  20.363  23.655  1.00  0.00     0.006 C 
HETATM    3  C   LIG     1      22.940  20.033  22.167  1.00  0.00     0.006 C 
HETATM    4  C   LIG     1      24.273  20.597  21.740  1.00  0.00     0.001 C 
HETATM    5  C   LIG     1      24.720  20.485  20.255  1.00  0.00     0.024 C 
HETATM    6  C   LIG     1      23.620  20.509  19.150  1.00  0.00     0.123 C 
HETATM    7  C   LIG     1      24.234  20.577  17.712  1.00  0.00     0.037 C 
HETATM    8  C   LIG     1      25.719  20.155  17.709  1.00  0.00    -0.001 C 
HETATM    9  C   LIG     1      26.321  19.884  16.324  1.00  0.00     0.037 C 
HETATM   10  C   LIG     1      27.701  19.201  16.498  1.00  0.00     0.118 C 
HETATM   11  C   LIG     1      28.642  19.942  17.481  1.00  0.00     0.032 C 
HETATM   12  C   LIG     1      27.955  20.366  18.805  1.00  0.00     0.012 C 
HETATM   13  C   LIG     1      26.613  21.119  18.570  1.00  0.00    -0.036 C 
HETATM   14  C   LIG     1      26.911  22.462  17.829  1.00  0.00     0.016 C 
HETATM   15  C   LIG     1      25.850  21.492  19.914  1.00  0.00     0.001 C 
HETATM   16  C   LIG     1      26.733  21.781  21.153  1.00  0.00     0.007 C 
HETATM   17  C   LIG     1      25.936  22.368  22.364  1.00  0.00     0.010 C 
HETATM   18  C   LIG     1      24.410  21.968  22.430  1.00  0.00    -0.036 C 
HETATM   19  C   LIG     1      23.559  23.096  21.767  1.00  0.00     0.016 C 
ENDROOT
BRANCH   1  20
HETATM   20  C   LIG     1      24.634  21.709  25.123  1.00  0.00    -0.013 C 
HETATM   21  C   LIG     1      24.832  23.163  25.619  1.00  0.00     0.010 C 
BRANCH  20  22
HETATM   22  C   LIG     1      24.033  20.864  26.289  1.00  0.00     0.015 C 
BRANCH  22  23
HETATM   23  C   LIG     1      23.120  21.685  27.216  1.00  0.00     0.110 C 
BRANCH  23  24
HETATM   24  C   LIG     1      21.776  21.030  27.362  1.00  0.00     0.139 C 
HETATM   25  O   LIG     1      21.604  19.853  26.948  1.00  0.00    -0.650 OA
BRANCH  24  26
HETATM   26  O   LIG     1      20.715  21.703  27.962  1.00  0.00    -0.776 OA
HETATM   27  H   LIG     1      19.840  21.236  28.168  1.00  0.00     0.167 HD
ENDBRANCH  24  26
ENDBRANCH  23  24
ENDBRANCH  22  23
ENDBRANCH  20  22
ENDBRANCH   1  20
BRANCH   6  28
HETATM   28  O   LIG     1      22.752  21.593  19.339  1.00  0.00    -0.395 OA
HETATM   29  H   LIG     1      22.996  22.275  18.659  1.00  0.00     0.210 HD
ENDBRANCH   6  28
BRANCH  10  30
HETATM   30  O   LIG     1      28.326  19.029  15.252  1.00  0.00    -0.396 OA
HETATM   31  H   LIG     1      27.623  18.779  14.597  1.00  0.00     0.210 HD
ENDBRANCH  10  30
TORSDOF 7
ENDMDL
MODEL 14
REMARK VINA RESULT:      -4.0      2.511      6.465
REMARK  7 active torsions:
REMARK  status: ('A' for Active; 'I' for Inactive)
REMARK    1  A    between atoms: C_2  and  C_3 
REMARK    2  A    between atoms: C_2  and  C_8 
REMARK    3  A    between atoms: C_3  and  C_4 
REMARK    4  A    between atoms: C_4  and  C_5 
REMARK    5  A    between atoms: C_5  and  O_6 
REMARK    6  A    between atoms: C_13  and  O_14 
REMARK    7  A    between atoms: C_18  and  O_19 
ROOT
HETATM    1  C   LIG     1      26.279  21.723  25.155  1.00  0.00    -0.002 C 
HETATM    2  C   LIG     1      25.845  23.102  25.743  1.00  0.00     0.006 C 
HETATM    3  C   LIG     1      26.688  24.173  25.060  1.00  0.00     0.006 C 
HETATM    4  C   LIG     1      26.905  23.566  23.695  1.00  0.00     0.001 C 
HETATM    5  C   LIG     1      27.738  24.335  22.631  1.00  0.00     0.024 C 
HETATM    6  C   LIG     1      28.896  25.254  23.126  1.00  0.00     0.123 C 
HETATM    7  C   LIG     1      29.755  25.806  21.939  1.00  0.00     0.037 C 
HETATM    8  C   LIG     1      29.005  25.690  20.595  1.00  0.00    -0.001 C 
HETATM    9  C   LIG     1      29.618  26.481  19.431  1.00  0.00     0.037 C 
HETATM   10  C   LIG     1      28.614  26.502  18.251  1.00  0.00     0.118 C 
HETATM   11  C   LIG     1      28.073  25.101  17.870  1.00  0.00     0.032 C 
HETATM   12  C   LIG     1      27.627  24.251  19.087  1.00  0.00     0.012 C 
HETATM   13  C   LIG     1      28.705  24.196  20.208  1.00  0.00    -0.036 C 
HETATM   14  C   LIG     1      29.971  23.467  19.656  1.00  0.00     0.016 C 
HETATM   15  C   LIG     1      28.238  23.397  21.501  1.00  0.00     0.001 C 
HETATM   16  C   LIG     1      27.252  22.225  21.270  1.00  0.00     0.007 C 
HETATM   17  C   LIG     1      27.023  21.342  22.541  1.00  0.00     0.010 C 
HETATM   18  C   LIG     1      27.228  22.077  23.923  1.00  0.00    -0.036 C 
HETATM   19  C   LIG     1      28.683  21.818  24.427  1.00  0.00     0.016 C 
ENDROOT
BRANCH   1  20
HETATM   20  C   LIG     1      25.087  20.733  24.911  1.00  0.00    -0.013 C 
HETATM   21  C   LIG     1      24.748  19.971  26.217  1.00  0.00     0.010 C 
BRANCH  20  22
HETATM   22  C   LIG     1      23.800  21.463  24.416  1.00  0.00     0.015 C 
BRANCH  22  23
HETATM   23  C   LIG     1      23.290  20.932  23.065  1.00  0.00     0.110 C 
BRANCH  23  24
HETATM   24  C   LIG     1      23.442  21.968  21.988  1.00  0.00     0.139 C 
HETATM   25  O   LIG     1      23.817  23.132  22.287  1.00  0.00    -0.650 OA
BRANCH  24  26
HETATM   26  O   LIG     1      23.186  21.655  20.655  1.00  0.00    -0.776 OA
HETATM   27  H   LIG     1      23.910  21.713  19.950  1.00  0.00     0.167 HD
ENDBRANCH  24  26
ENDBRANCH  23  24
ENDBRANCH  22  23
ENDBRANCH  20  22
ENDBRANCH   1  20
BRANCH   6  28
HETATM   28  O   LIG     1      29.726  24.566  24.022  1.00  0.00    -0.395 OA
HETATM   29  H   LIG     1      29.184  24.389  24.835  1.00  0.00     0.210 HD
ENDBRANCH   6  28
BRANCH  10  30
HETATM   30  O   LIG     1      29.183  27.133  17.132  1.00  0.00    -0.396 OA
HETATM   31  H   LIG     1      29.150  26.488  16.377  1.00  0.00     0.210 HD
ENDBRANCH  10  30
TORSDOF 7
ENDMDL
MODEL 15
REMARK VINA RESULT:      -4.0      2.868      4.465
REMARK  7 active torsions:
REMARK  status: ('A' for Active; 'I' for Inactive)
REMARK    1  A    between atoms: C_2  and  C_3 
REMARK    2  A    between atoms: C_2  and  C_8 
REMARK    3  A    between atoms: C_3  and  C_4 
REMARK    4  A    between atoms: C_4  and  C_5 
REMARK    5  A    between atoms: C_5  and  O_6 
REMARK    6  A    between atoms: C_13  and  O_14 
REMARK    7  A    between atoms: C_18  and  O_19 
ROOT
HETATM    1  C   LIG     1      24.408  21.525  20.465  1.00  0.00    -0.002 C 
HETATM    2  C   LIG     1      25.958  21.366  20.546  1.00  0.00     0.006 C 
HETATM    3  C   LIG     1      26.360  21.565  22.002  1.00  0.00     0.006 C 
HETATM    4  C   LIG     1      25.150  21.032  22.729  1.00  0.00     0.001 C 
HETATM    5  C   LIG     1      25.116  21.038  24.284  1.00  0.00     0.024 C 
HETATM    6  C   LIG     1      25.875  22.176  25.032  1.00  0.00     0.123 C 
HETATM    7  C   LIG     1      25.593  22.155  26.572  1.00  0.00     0.037 C 
HETATM    8  C   LIG     1      25.026  20.792  27.025  1.00  0.00    -0.001 C 
HETATM    9  C   LIG     1      25.014  20.559  28.543  1.00  0.00     0.037 C 
HETATM   10  C   LIG     1      24.699  19.068  28.822  1.00  0.00     0.118 C 
HETATM   11  C   LIG     1      23.445  18.547  28.075  1.00  0.00     0.032 C 
HETATM   12  C   LIG     1      23.395  18.953  26.579  1.00  0.00     0.012 C 
HETATM   13  C   LIG     1      23.637  20.475  26.362  1.00  0.00    -0.036 C 
HETATM   14  C   LIG     1      22.472  21.273  27.030  1.00  0.00     0.016 C 
HETATM   15  C   LIG     1      23.670  20.901  24.830  1.00  0.00     0.001 C 
HETATM   16  C   LIG     1      22.783  20.079  23.865  1.00  0.00     0.007 C 
HETATM   17  C   LIG     1      22.682  20.696  22.431  1.00  0.00     0.010 C 
HETATM   18  C   LIG     1      23.916  21.572  21.981  1.00  0.00    -0.036 C 
HETATM   19  C   LIG     1      23.608  23.074  22.275  1.00  0.00     0.016 C 
ENDROOT
BRANCH   1  20
HETATM   20  C   LIG     1      23.715  20.508  19.492  1.00  0.00    -0.013 C 
HETATM   21  C   LIG     1      22.974  21.267  18.363  1.00  0.00     0.010 C 
BRANCH  20  22
HETATM   22  C   LIG     1      24.733  19.521  18.841  1.00  0.00     0.015 C 
BRANCH  22  23
HETATM   23  C   LIG     1      24.768  19.620  17.306  1.00  0.00     0.110 C 
BRANCH  23  24
HETATM   24  C   LIG     1      26.165  19.876  16.817  1.00  0.00     0.139 C 
HETATM   25  O   LIG     1      26.726  19.042  16.058  1.00  0.00    -0.650 OA
BRANCH  24  26
HETATM   26  O   LIG     1      26.848  21.034  17.181  1.00  0.00    -0.776 OA
HETATM   27  H   LIG     1      26.827  21.864  16.601  1.00  0.00     0.167 HD
ENDBRANCH  24  26
ENDBRANCH  23  24
ENDBRANCH  22  23
ENDBRANCH  20  22
ENDBRANCH   1  20
BRANCH   6  28
HETATM   28  O   LIG     1      25.527  23.429  24.511  1.00  0.00    -0.395 OA
HETATM   29  H   LIG     1      24.557  23.552  24.686  1.00  0.00     0.210 HD
ENDBRANCH   6  28
BRANCH  10  30
HETATM   30  O   LIG     1      24.580  18.840  30.203  1.00  0.00    -0.396 OA
HETATM   31  H   LIG     1      24.580  17.857  30.344  1.00  0.00     0.210 HD
ENDBRANCH  10  30
TORSDOF 7
ENDMDL
MODEL 16
REMARK VINA RESULT:      -3.9      2.337      7.373
REMARK  7 active torsions:
REMARK  status: ('A' for Active; 'I' for Inactive)
REMARK    1  A    between atoms: C_2  and  C_3 
REMARK    2  A    between atoms: C_2  and  C_8 
REMARK    3  A    between atoms: C_3  and  C_4 
REMARK    4  A    between atoms: C_4  and  C_5 
REMARK    5  A    between atoms: C_5  and  O_6 
REMARK    6  A    between atoms: C_13  and  O_14 
REMARK    7  A    between atoms: C_18  and  O_19 
ROOT
HETATM    1  C   LIG     1      23.721  21.868  23.889  1.00  0.00    -0.002 C 
HETATM    2  C   LIG     1      23.116  20.438  23.732  1.00  0.00     0.006 C 
HETATM    3  C   LIG     1      23.187  20.074  22.253  1.00  0.00     0.006 C 
HETATM    4  C   LIG     1      24.432  20.807  21.817  1.00  0.00     0.001 C 
HETATM    5  C   LIG     1      24.904  20.720  20.338  1.00  0.00     0.024 C 
HETATM    6  C   LIG     1      23.821  20.562  19.228  1.00  0.00     0.123 C 
HETATM    7  C   LIG     1      24.432  20.678  17.792  1.00  0.00     0.037 C 
HETATM    8  C   LIG     1      25.961  20.466  17.808  1.00  0.00    -0.001 C 
HETATM    9  C   LIG     1      26.608  20.246  16.433  1.00  0.00     0.037 C 
HETATM   10  C   LIG     1      28.067  19.766  16.633  1.00  0.00     0.118 C 
HETATM   11  C   LIG     1      28.887  20.656  17.601  1.00  0.00     0.032 C 
HETATM   12  C   LIG     1      28.136  21.014  18.908  1.00  0.00     0.012 C 
HETATM   13  C   LIG     1      26.705  21.567  18.647  1.00  0.00    -0.036 C 
HETATM   14  C   LIG     1      26.820  22.919  17.872  1.00  0.00     0.016 C 
HETATM   15  C   LIG     1      25.886  21.865  19.977  1.00  0.00     0.001 C 
HETATM   16  C   LIG     1      26.710  22.306  21.212  1.00  0.00     0.007 C 
HETATM   17  C   LIG     1      25.828  22.807  22.403  1.00  0.00     0.010 C 
HETATM   18  C   LIG     1      24.373  22.201  22.472  1.00  0.00    -0.036 C 
HETATM   19  C   LIG     1      23.378  23.182  21.774  1.00  0.00     0.016 C 
ENDROOT
BRANCH   1  20
HETATM   20  C   LIG     1      24.607  22.045  25.172  1.00  0.00    -0.013 C 
HETATM   21  C   LIG     1      25.869  21.152  25.079  1.00  0.00     0.010 C 
BRANCH  20  22
HETATM   22  C   LIG     1      25.060  23.523  25.381  1.00  0.00     0.015 C 
BRANCH  22  23
HETATM   23  C   LIG     1      26.425  23.640  26.081  1.00  0.00     0.110 C 
BRANCH  23  24
HETATM   24  C   LIG     1      26.254  23.943  27.542  1.00  0.00     0.139 C 
HETATM   25  O   LIG     1      26.184  23.000  28.374  1.00  0.00    -0.650 OA
BRANCH  24  26
HETATM   26  O   LIG     1      26.184  25.259  27.995  1.00  0.00    -0.776 OA
HETATM   27  H   LIG     1      26.162  26.039  27.350  1.00  0.00     0.167 HD
ENDBRANCH  24  26
ENDBRANCH  23  24
ENDBRANCH  22  23
ENDBRANCH  20  22
ENDBRANCH   1  20
BRANCH   6  28
HETATM   28  O   LIG     1      22.810  21.520  19.383  1.00  0.00    -0.395 OA
HETATM   29  H   LIG     1      22.619  21.579  20.356  1.00  0.00     0.210 HD
ENDBRANCH   6  28
BRANCH  10  30
HETATM   30  O   LIG     1      28.721  19.650  15.395  1.00  0.00    -0.396 OA
HETATM   31  H   LIG     1      28.065  19.288  14.743  1.00  0.00     0.210 HD
ENDBRANCH  10  30
TORSDOF 7
ENDMDL
MODEL 17
REMARK VINA RESULT:      -3.9      2.170      2.753
REMARK  7 active torsions:
REMARK  status: ('A' for Active; 'I' for Inactive)
REMARK    1  A    between atoms: C_2  and  C_3 
REMARK    2  A    between atoms: C_2  and  C_8 
REMARK    3  A    between atoms: C_3  and  C_4 
REMARK    4  A    between atoms: C_4  and  C_5 
REMARK    5  A    between atoms: C_5  and  O_6 
REMARK    6  A    between atoms: C_13  and  O_14 
REMARK    7  A    between atoms: C_18  and  O_19 
ROOT
HETATM    1  C   LIG     1      24.328  21.219  19.850  1.00  0.00    -0.002 C 
HETATM    2  C   LIG     1      22.938  21.867  20.140  1.00  0.00     0.006 C 
HETATM    3  C   LIG     1      22.837  22.067  21.648  1.00  0.00     0.006 C 
HETATM    4  C   LIG     1      24.278  22.316  22.021  1.00  0.00     0.001 C 
HETATM    5  C   LIG     1      24.659  22.577  23.506  1.00  0.00     0.024 C 
HETATM    6  C   LIG     1      23.809  21.887  24.617  1.00  0.00     0.123 C 
HETATM    7  C   LIG     1      24.426  22.093  26.040  1.00  0.00     0.037 C 
HETATM    8  C   LIG     1      25.428  23.268  26.058  1.00  0.00    -0.001 C 
HETATM    9  C   LIG     1      25.845  23.752  27.454  1.00  0.00     0.037 C 
HETATM   10  C   LIG     1      26.607  25.094  27.316  1.00  0.00     0.118 C 
HETATM   11  C   LIG     1      27.752  25.055  26.273  1.00  0.00     0.032 C 
HETATM   12  C   LIG     1      27.352  24.393  24.930  1.00  0.00     0.012 C 
HETATM   13  C   LIG     1      26.664  23.010  25.122  1.00  0.00    -0.036 C 
HETATM   14  C   LIG     1      27.690  22.021  25.763  1.00  0.00     0.016 C 
HETATM   15  C   LIG     1      26.172  22.350  23.762  1.00  0.00     0.001 C 
HETATM   16  C   LIG     1      27.007  22.667  22.498  1.00  0.00     0.007 C 
HETATM   17  C   LIG     1      26.611  21.803  21.256  1.00  0.00     0.010 C 
HETATM   18  C   LIG     1      25.118  21.292  21.233  1.00  0.00    -0.036 C 
HETATM   19  C   LIG     1      25.065  19.847  21.822  1.00  0.00     0.016 C 
ENDROOT
BRANCH   1  20
HETATM   20  C   LIG     1      25.032  21.777  18.564  1.00  0.00    -0.013 C 
HETATM   21  C   LIG     1      25.448  23.254  18.779  1.00  0.00     0.010 C 
BRANCH  20  22
HETATM   22  C   LIG     1      26.301  20.956  18.178  1.00  0.00     0.015 C 
BRANCH  22  23
HETATM   23  C   LIG     1      26.263  20.436  16.730  1.00  0.00     0.110 C 
BRANCH  23  24
HETATM   24  C   LIG     1      26.407  18.941  16.692  1.00  0.00     0.139 C 
HETATM   25  O   LIG     1      25.380  18.214  16.644  1.00  0.00    -0.650 OA
BRANCH  24  26
HETATM   26  O   LIG     1      27.665  18.345  16.696  1.00  0.00    -0.776 OA
HETATM   27  H   LIG     1      28.470  18.810  17.098  1.00  0.00     0.167 HD
ENDBRANCH  24  26
ENDBRANCH  23  24
ENDBRANCH  22  23
ENDBRANCH  20  22
ENDBRANCH   1  20
BRANCH   6  28
HETATM   28  O   LIG     1      23.678  20.515  24.359  1.00  0.00    -0.395 OA
HETATM   29  H   LIG     1      22.711  20.341  24.222  1.00  0.00     0.210 HD
ENDBRANCH   6  28
BRANCH  10  30
HETATM   30  O   LIG     1      27.091  25.517  28.565  1.00  0.00    -0.396 OA
HETATM   31  H   LIG     1      26.409  25.277  29.246  1.00  0.00     0.210 HD
ENDBRANCH  10  30
TORSDOF 7
ENDMDL
MODEL 18
REMARK VINA RESULT:      -3.9      3.377      6.307
REMARK  7 active torsions:
REMARK  status: ('A' for Active; 'I' for Inactive)
REMARK    1  A    between atoms: C_2  and  C_3 
REMARK    2  A    between atoms: C_2  and  C_8 
REMARK    3  A    between atoms: C_3  and  C_4 
REMARK    4  A    between atoms: C_4  and  C_5 
REMARK    5  A    between atoms: C_5  and  O_6 
REMARK    6  A    between atoms: C_13  and  O_14 
REMARK    7  A    between atoms: C_18  and  O_19 
ROOT
HETATM    1  C   LIG     1      26.590  22.615  24.984  1.00  0.00    -0.002 C 
HETATM    2  C   LIG     1      25.948  22.825  23.577  1.00  0.00     0.006 C 
HETATM    3  C   LIG     1      24.820  21.809  23.436  1.00  0.00     0.006 C 
HETATM    4  C   LIG     1      24.348  21.676  24.863  1.00  0.00     0.001 C 
HETATM    5  C   LIG     1      23.175  20.714  25.204  1.00  0.00     0.024 C 
HETATM    6  C   LIG     1      23.003  19.428  24.339  1.00  0.00     0.123 C 
HETATM    7  C   LIG     1      21.905  18.474  24.918  1.00  0.00     0.037 C 
HETATM    8  C   LIG     1      20.972  19.215  25.900  1.00  0.00    -0.001 C 
HETATM    9  C   LIG     1      19.686  18.465  26.275  1.00  0.00     0.037 C 
HETATM   10  C   LIG     1      18.734  19.436  27.017  1.00  0.00     0.118 C 
HETATM   11  C   LIG     1      19.408  20.195  28.188  1.00  0.00     0.032 C 
HETATM   12  C   LIG     1      20.794  20.790  27.832  1.00  0.00     0.012 C 
HETATM   13  C   LIG     1      21.740  19.750  27.162  1.00  0.00    -0.036 C 
HETATM   14  C   LIG     1      22.048  18.613  28.188  1.00  0.00     0.016 C 
HETATM   15  C   LIG     1      23.138  20.360  26.714  1.00  0.00     0.001 C 
HETATM   16  C   LIG     1      23.694  21.520  27.574  1.00  0.00     0.007 C 
HETATM   17  C   LIG     1      25.169  21.908  27.223  1.00  0.00     0.010 C 
HETATM   18  C   LIG     1      25.614  21.604  25.739  1.00  0.00    -0.036 C 
HETATM   19  C   LIG     1      26.332  20.218  25.696  1.00  0.00     0.016 C 
ENDROOT
BRANCH   1  20
HETATM   20  C   LIG     1      26.980  23.950  25.710  1.00  0.00    -0.013 C 
HETATM   21  C   LIG     1      28.211  23.723  26.622  1.00  0.00     0.010 C 
BRANCH  20  22
HETATM   22  C   LIG     1      27.311  25.096  24.706  1.00  0.00     0.015 C 
BRANCH  22  23
HETATM   23  C   LIG     1      28.787  25.105  24.269  1.00  0.00     0.110 C 
BRANCH  23  24
HETATM   24  C   LIG     1      28.907  24.961  22.779  1.00  0.00     0.139 C 
HETATM   25  O   LIG     1      29.556  23.997  22.293  1.00  0.00    -0.650 OA
BRANCH  24  26
HETATM   26  O   LIG     1      28.298  25.874  21.922  1.00  0.00    -0.776 OA
HETATM   27  H   LIG     1      28.831  26.386  21.229  1.00  0.00     0.167 HD
ENDBRANCH  24  26
ENDBRANCH  23  24
ENDBRANCH  22  23
ENDBRANCH  20  22
ENDBRANCH   1  20
BRANCH   6  28
HETATM   28  O   LIG     1      24.216  18.734  24.237  1.00  0.00    -0.395 OA
HETATM   29  H   LIG     1      24.244  18.092  24.995  1.00  0.00     0.210 HD
ENDBRANCH   6  28
BRANCH  10  30
HETATM   30  O   LIG     1      17.588  18.757  27.464  1.00  0.00    -0.396 OA
HETATM   31  H   LIG     1      17.873  18.131  28.181  1.00  0.00     0.210 HD
ENDBRANCH  10  30
TORSDOF 7
ENDMDL
MODEL 19
REMARK VINA RESULT:      -3.8      2.244      2.730
REMARK  7 active torsions:
REMARK  status: ('A' for Active; 'I' for Inactive)
REMARK    1  A    between atoms: C_2  and  C_3 
REMARK    2  A    between atoms: C_2  and  C_8 
REMARK    3  A    between atoms: C_3  and  C_4 
REMARK    4  A    between atoms: C_4  and  C_5 
REMARK    5  A    between atoms: C_5  and  O_6 
REMARK    6  A    between atoms: C_13  and  O_14 
REMARK    7  A    between atoms: C_18  and  O_19 
ROOT
HETATM    1  C   LIG     1      24.204  21.483  20.369  1.00  0.00    -0.002 C 
HETATM    2  C   LIG     1      22.920  22.269  20.777  1.00  0.00     0.006 C 
HETATM    3  C   LIG     1      22.529  21.807  22.177  1.00  0.00     0.006 C 
HETATM    4  C   LIG     1      23.876  21.490  22.780  1.00  0.00     0.001 C 
HETATM    5  C   LIG     1      23.964  20.967  24.242  1.00  0.00     0.024 C 
HETATM    6  C   LIG     1      22.786  20.103  24.788  1.00  0.00     0.123 C 
HETATM    7  C   LIG     1      23.106  19.499  26.196  1.00  0.00     0.037 C 
HETATM    8  C   LIG     1      24.268  20.247  26.883  1.00  0.00    -0.001 C 
HETATM    9  C   LIG     1      24.450  19.946  28.377  1.00  0.00     0.037 C 
HETATM   10  C   LIG     1      25.446  20.969  28.980  1.00  0.00     0.118 C 
HETATM   11  C   LIG     1      26.766  21.098  28.179  1.00  0.00     0.032 C 
HETATM   12  C   LIG     1      26.558  21.219  26.648  1.00  0.00     0.012 C 
HETATM   13  C   LIG     1      25.614  20.119  26.081  1.00  0.00    -0.036 C 
HETATM   14  C   LIG     1      26.287  18.724  26.282  1.00  0.00     0.016 C 
HETATM   15  C   LIG     1      25.322  20.272  24.526  1.00  0.00     0.001 C 
HETATM   16  C   LIG     1      26.454  20.885  23.666  1.00  0.00     0.007 C 
HETATM   17  C   LIG     1      26.193  20.787  22.127  1.00  0.00     0.010 C 
HETATM   18  C   LIG     1      24.675  20.738  21.698  1.00  0.00    -0.036 C 
HETATM   19  C   LIG     1      24.244  19.248  21.518  1.00  0.00     0.016 C 
ENDROOT
BRANCH   1  20
HETATM   20  C   LIG     1      25.258  22.347  19.592  1.00  0.00    -0.013 C 
HETATM   21  C   LIG     1      24.854  22.471  18.101  1.00  0.00     0.010 C 
BRANCH  20  22
HETATM   22  C   LIG     1      25.404  23.782  20.186  1.00  0.00     0.015 C 
BRANCH  22  23
HETATM   23  C   LIG     1      26.686  24.496  19.725  1.00  0.00     0.110 C 
BRANCH  23  24
HETATM   24  C   LIG     1      27.628  24.706  20.876  1.00  0.00     0.139 C 
HETATM   25  O   LIG     1      27.938  25.875  21.227  1.00  0.00    -0.650 OA
BRANCH  24  26
HETATM   26  O   LIG     1      28.157  23.622  21.572  1.00  0.00    -0.776 OA
HETATM   27  H   LIG     1      28.257  22.713  21.138  1.00  0.00     0.167 HD
ENDBRANCH  24  26
ENDBRANCH  23  24
ENDBRANCH  22  23
ENDBRANCH  20  22
ENDBRANCH   1  20
BRANCH   6  28
HETATM   28  O   LIG     1      22.477  19.067  23.895  1.00  0.00    -0.395 OA
HETATM   29  H   LIG     1      21.547  19.225  23.586  1.00  0.00     0.210 HD
ENDBRANCH   6  28
BRANCH  10  30
HETATM   30  O   LIG     1      25.713  20.661  30.325  1.00  0.00    -0.396 OA
HETATM   31  H   LIG     1      26.578  20.174  30.353  1.00  0.00     0.210 HD
ENDBRANCH  10  30
TORSDOF 7
ENDMDL
MODEL 20
REMARK VINA RESULT:      -3.7      2.490      7.364
REMARK  7 active torsions:
REMARK  status: ('A' for Active; 'I' for Inactive)
REMARK    1  A    between atoms: C_2  and  C_3 
REMARK    2  A    between atoms: C_2  and  C_8 
REMARK    3  A    between atoms: C_3  and  C_4 
REMARK    4  A    between atoms: C_4  and  C_5 
REMARK    5  A    between atoms: C_5  and  O_6 
REMARK    6  A    between atoms: C_13  and  O_14 
REMARK    7  A    between atoms: C_18  and  O_19 
ROOT
HETATM    1  C   LIG     1      28.330  22.468  26.026  1.00  0.00    -0.002 C 
HETATM    2  C   LIG     1      29.488  22.345  24.988  1.00  0.00     0.006 C 
HETATM    3  C   LIG     1      28.948  21.566  23.794  1.00  0.00     0.006 C 
HETATM    4  C   LIG     1      27.495  21.976  23.794  1.00  0.00     0.001 C 
HETATM    5  C   LIG     1      26.531  21.406  22.716  1.00  0.00     0.024 C 
HETATM    6  C   LIG     1      26.801  19.971  22.170  1.00  0.00     0.123 C 
HETATM    7  C   LIG     1      25.647  19.470  21.240  1.00  0.00     0.037 C 
HETATM    8  C   LIG     1      24.778  20.641  20.734  1.00  0.00    -0.001 C 
HETATM    9  C   LIG     1      23.827  20.301  19.578  1.00  0.00     0.037 C 
HETATM   10  C   LIG     1      23.248  21.615  18.997  1.00  0.00     0.118 C 
HETATM   11  C   LIG     1      22.653  22.561  20.071  1.00  0.00     0.032 C 
HETATM   12  C   LIG     1      23.560  22.744  21.315  1.00  0.00     0.012 C 
HETATM   13  C   LIG     1      24.047  21.390  21.908  1.00  0.00    -0.036 C 
HETATM   14  C   LIG     1      22.810  20.593  22.431  1.00  0.00     0.016 C 
HETATM   15  C   LIG     1      25.044  21.555  23.135  1.00  0.00     0.001 C 
HETATM   16  C   LIG     1      24.837  22.800  24.031  1.00  0.00     0.007 C 
HETATM   17  C   LIG     1      25.690  22.774  25.342  1.00  0.00     0.010 C 
HETATM   18  C   LIG     1      27.031  21.945  25.263  1.00  0.00    -0.036 C 
HETATM   19  C   LIG     1      26.773  20.506  25.811  1.00  0.00     0.016 C 
ENDROOT
BRANCH   1  20
HETATM   20  C   LIG     1      28.260  23.864  26.737  1.00  0.00    -0.013 C 
HETATM   21  C   LIG     1      27.868  24.965  25.720  1.00  0.00     0.010 C 
BRANCH  20  22
HETATM   22  C   LIG     1      27.230  23.883  27.909  1.00  0.00     0.015 C 
BRANCH  22  23
HETATM   23  C   LIG     1      26.535  25.246  28.076  1.00  0.00     0.110 C 
BRANCH  23  24
HETATM   24  C   LIG     1      26.998  25.934  29.328  1.00  0.00     0.139 C 
HETATM   25  O   LIG     1      27.364  25.251  30.321  1.00  0.00    -0.650 OA
BRANCH  24  26
HETATM   26  O   LIG     1      27.041  27.324  29.404  1.00  0.00    -0.776 OA
HETATM   27  H   LIG     1      27.181  27.802  30.286  1.00  0.00     0.167 HD
ENDBRANCH  24  26
ENDBRANCH  23  24
ENDBRANCH  22  23
ENDBRANCH  20  22
ENDBRANCH   1  20
BRANCH   6  28
HETATM   28  O   LIG     1      26.977  19.065  23.225  1.00  0.00    -0.395 OA
HETATM   29  H   LIG     1      26.162  19.124  23.791  1.00  0.00     0.210 HD
ENDBRANCH   6  28
BRANCH  10  30
HETATM   30  O   LIG     1      22.296  21.337  18.003  1.00  0.00    -0.396 OA
HETATM   31  H   LIG     1      22.764  21.358  17.127  1.00  0.00     0.210 HD
ENDBRANCH  10  30
TORSDOF 7
ENDMDL
