REMARK  0 active torsions:
REMARK  status: ('A' for Active; 'I' for Inactive)
ROOT
HETATM    1  C   LIG     1       1.281  -1.359   0.015  1.00  0.00    -0.024 A 
HETATM    2  C   LIG     1       0.453  -2.492   0.047  1.00  0.00     0.013 A 
HETATM    3  C   LIG     1      -0.939  -2.352   0.059  1.00  0.00     0.013 A 
HETATM    4  C   LIG     1      -1.525  -1.077   0.039  1.00  0.00    -0.024 A 
HETATM    5  C   LIG     1      -2.920  -0.926   0.051  1.00  0.00     0.012 A 
HETATM    6  C   LIG     1      -3.490   0.351   0.030  1.00  0.00     0.002 A 
HETATM    7  C   LIG     1      -2.678   1.489  -0.002  1.00  0.00     0.012 A 
HETATM    8  C   LIG     1       2.678  -1.489   0.002  1.00  0.00     0.012 A 
HETATM    9  C   LIG     1       3.490  -0.351  -0.030  1.00  0.00     0.002 A 
HETATM   10  C   LIG     1       2.920   0.926  -0.051  1.00  0.00     0.012 A 
HETATM   11  C   LIG     1       1.525   1.077  -0.039  1.00  0.00    -0.024 A 
HETATM   12  C   LIG     1       0.939   2.352  -0.059  1.00  0.00     0.013 A 
HETATM   13  C   LIG     1      -0.453   2.492  -0.047  1.00  0.00     0.013 A 
HETATM   14  C   LIG     1      -1.281   1.359  -0.015  1.00  0.00    -0.024 A 
HETATM   15  C   LIG     1      -0.702   0.071   0.006  1.00  0.00    -0.004 A 
HETATM   16  C   LIG     1       0.702  -0.071  -0.006  1.00  0.00    -0.004 A 
ENDROOT
TORSDOF 0
