REMARK  6 active torsions:
REMARK  status: ('A' for Active; 'I' for Inactive)
REMARK    1  A    between atoms: C_3  and  C_4 
REMARK    2  A    between atoms: C_4  and  C_5 
REMARK    3  A    between atoms: C_5  and  C_6 
REMARK    4  A    between atoms: N_8  and  C_9 
REMARK    5  A    between atoms: C_12  and  O_13 
REMARK    6  A    between atoms: N_16  and  C_17 
ROOT
HETATM    1  O   LIG     1       1.691   1.660  -0.292  1.00  0.00    -0.270 OA
HETATM    2  C   LIG     1       1.103   0.602   0.057  1.00  0.00     0.257 A 
HETATM    3  C   LIG     1       1.802  -0.641   0.534  1.00  0.00     0.174 A 
HETATM    4  N   LIG     1      -0.316   0.461   0.069  1.00  0.00    -0.214 N 
HETATM    5  N   LIG     1      -0.623  -0.821   0.542  1.00  0.00    -0.214 N 
HETATM    6  C   LIG     1       0.602  -1.482   0.856  1.00  0.00     0.257 A 
HETATM    7  O   LIG     1       0.659  -2.620   1.393  1.00  0.00    -0.270 OA
ENDROOT
BRANCH   4   8
HETATM    8  C   LIG     1      -1.230   1.312  -0.645  1.00  0.00     0.060 A 
HETATM    9  C   LIG     1      -2.178   0.760  -1.522  1.00  0.00     0.034 A 
HETATM   10  C   LIG     1      -3.070   1.589  -2.209  1.00  0.00     0.039 A 
HETATM   11  C   LIG     1      -3.022   2.977  -2.027  1.00  0.00     0.065 A 
HETATM   12  C   LIG     1      -2.079   3.531  -1.157  1.00  0.00     0.039 A 
HETATM   13  C   LIG     1      -1.185   2.704  -0.469  1.00  0.00     0.034 A 
BRANCH  11  14
HETATM   14  O   LIG     1      -3.906   3.813  -2.706  1.00  0.00    -0.361 OA
HETATM   15  H   LIG     1      -4.606   3.442  -3.339  1.00  0.00     0.217 HD
ENDBRANCH  11  14
ENDBRANCH   4   8
BRANCH   5  16
HETATM   16  C   LIG     1      -1.926  -1.249   0.974  1.00  0.00     0.060 A 
HETATM   17  C   LIG     1      -2.795  -0.350   1.616  1.00  0.00     0.031 A 
HETATM   18  C   LIG     1      -4.065  -0.767   2.023  1.00  0.00     0.002 A 
HETATM   19  C   LIG     1      -4.477  -2.083   1.795  1.00  0.00     0.000 A 
HETATM   20  C   LIG     1      -3.617  -2.984   1.161  1.00  0.00     0.002 A 
HETATM   21  C   LIG     1      -2.345  -2.570   0.753  1.00  0.00     0.031 A 
ENDBRANCH   5  16
BRANCH   3  22
HETATM   22  C   LIG     1       2.652  -1.317  -0.561  1.00  0.00     0.024 C 
BRANCH  22  23
HETATM   23  C   LIG     1       3.911  -0.531  -0.969  1.00  0.00     0.001 C 
BRANCH  23  24
HETATM   24  C   LIG     1       4.917  -0.374   0.181  1.00  0.00    -0.005 C 
HETATM   25  C   LIG     1       6.229   0.227  -0.315  1.00  0.00     0.005 C 
ENDBRANCH  23  24
ENDBRANCH  22  23
ENDBRANCH   3  22
TORSDOF 6
