MODEL 1
REMARK VINA RESULT:      -7.5      0.000      0.000
REMARK  0 active torsions:
REMARK  status: ('A' for Active; 'I' for Inactive)
ROOT
HETATM    1  C   LIG     1      17.113  36.051  23.203  1.00  0.00    -0.024 A 
HETATM    2  C   LIG     1      16.818  35.009  22.310  1.00  0.00     0.013 A 
HETATM    3  C   LIG     1      17.109  35.140  20.947  1.00  0.00     0.013 A 
HETATM    4  C   LIG     1      17.699  36.316  20.457  1.00  0.00    -0.024 A 
HETATM    5  C   LIG     1      17.994  36.457  19.093  1.00  0.00     0.012 A 
HETATM    6  C   LIG     1      18.583  37.634  18.618  1.00  0.00     0.002 A 
HETATM    7  C   LIG     1      18.882  38.680  19.496  1.00  0.00     0.012 A 
HETATM    8  C   LIG     1      16.826  35.928  24.571  1.00  0.00     0.012 A 
HETATM    9  C   LIG     1      17.125  36.975  25.449  1.00  0.00     0.002 A 
HETATM   10  C   LIG     1      17.714  38.151  24.975  1.00  0.00     0.012 A 
HETATM   11  C   LIG     1      18.009  38.293  23.610  1.00  0.00    -0.024 A 
HETATM   12  C   LIG     1      18.599  39.468  23.120  1.00  0.00     0.013 A 
HETATM   13  C   LIG     1      18.890  39.600  21.758  1.00  0.00     0.013 A 
HETATM   14  C   LIG     1      18.595  38.558  20.864  1.00  0.00    -0.024 A 
HETATM   15  C   LIG     1      18.001  37.371  21.347  1.00  0.00    -0.004 A 
HETATM   16  C   LIG     1      17.707  37.238  22.721  1.00  0.00    -0.004 A 
ENDROOT
TORSDOF 0
ENDMDL
MODEL 2
REMARK VINA RESULT:      -7.5      0.076      2.984
REMARK  0 active torsions:
REMARK  status: ('A' for Active; 'I' for Inactive)
ROOT
HETATM    1  C   LIG     1      18.074  38.247  23.669  1.00  0.00    -0.024 A 
HETATM    2  C   LIG     1      18.683  39.414  23.182  1.00  0.00     0.013 A 
HETATM    3  C   LIG     1      18.962  39.551  21.817  1.00  0.00     0.013 A 
HETATM    4  C   LIG     1      18.635  38.524  20.919  1.00  0.00    -0.024 A 
HETATM    5  C   LIG     1      18.910  38.652  19.549  1.00  0.00     0.012 A 
HETATM    6  C   LIG     1      18.578  37.620  18.665  1.00  0.00     0.002 A 
HETATM    7  C   LIG     1      17.970  36.452  19.135  1.00  0.00     0.012 A 
HETATM    8  C   LIG     1      17.790  38.100  25.035  1.00  0.00     0.012 A 
HETATM    9  C   LIG     1      17.182  36.932  25.505  1.00  0.00     0.002 A 
HETATM   10  C   LIG     1      16.849  35.900  24.621  1.00  0.00     0.012 A 
HETATM   11  C   LIG     1      17.125  36.028  23.251  1.00  0.00    -0.024 A 
HETATM   12  C   LIG     1      16.798  35.001  22.353  1.00  0.00     0.013 A 
HETATM   13  C   LIG     1      17.076  35.138  20.989  1.00  0.00     0.013 A 
HETATM   14  C   LIG     1      17.686  36.305  20.501  1.00  0.00    -0.024 A 
HETATM   15  C   LIG     1      18.020  37.345  21.397  1.00  0.00    -0.004 A 
HETATM   16  C   LIG     1      17.739  37.207  22.773  1.00  0.00    -0.004 A 
ENDROOT
TORSDOF 0
ENDMDL
MODEL 3
REMARK VINA RESULT:      -7.5      0.083      5.069
REMARK  0 active torsions:
REMARK  status: ('A' for Active; 'I' for Inactive)
ROOT
HETATM    1  C   LIG     1      18.672  38.498  20.886  1.00  0.00    -0.024 A 
HETATM    2  C   LIG     1      19.017  39.526  21.777  1.00  0.00     0.013 A 
HETATM    3  C   LIG     1      18.729  39.408  23.141  1.00  0.00     0.013 A 
HETATM    4  C   LIG     1      18.092  38.259  23.635  1.00  0.00    -0.024 A 
HETATM    5  C   LIG     1      17.798  38.131  25.002  1.00  0.00     0.012 A 
HETATM    6  C   LIG     1      17.163  36.980  25.480  1.00  0.00     0.002 A 
HETATM    7  C   LIG     1      16.813  35.948  24.604  1.00  0.00     0.012 A 
HETATM    8  C   LIG     1      18.957  38.608  19.516  1.00  0.00     0.012 A 
HETATM    9  C   LIG     1      18.607  37.575  18.641  1.00  0.00     0.002 A 
HETATM   10  C   LIG     1      17.972  36.425  19.119  1.00  0.00     0.012 A 
HETATM   11  C   LIG     1      17.679  36.296  20.485  1.00  0.00    -0.024 A 
HETATM   12  C   LIG     1      17.041  35.148  20.979  1.00  0.00     0.013 A 
HETATM   13  C   LIG     1      16.753  35.029  22.343  1.00  0.00     0.013 A 
HETATM   14  C   LIG     1      17.098  36.057  23.235  1.00  0.00    -0.024 A 
HETATM   15  C   LIG     1      17.740  37.218  22.748  1.00  0.00    -0.004 A 
HETATM   16  C   LIG     1      18.030  37.338  21.372  1.00  0.00    -0.004 A 
ENDROOT
TORSDOF 0
ENDMDL
MODEL 4
REMARK VINA RESULT:      -7.5      0.016      4.098
REMARK  0 active torsions:
REMARK  status: ('A' for Active; 'I' for Inactive)
ROOT
HETATM    1  C   LIG     1      17.697  36.308  20.459  1.00  0.00    -0.024 A 
HETATM    2  C   LIG     1      17.103  35.137  20.957  1.00  0.00     0.013 A 
HETATM    3  C   LIG     1      16.813  35.015  22.320  1.00  0.00     0.013 A 
HETATM    4  C   LIG     1      17.111  36.060  23.207  1.00  0.00    -0.024 A 
HETATM    5  C   LIG     1      16.824  35.947  24.575  1.00  0.00     0.012 A 
HETATM    6  C   LIG     1      17.126  36.998  25.447  1.00  0.00     0.002 A 
HETATM    7  C   LIG     1      17.717  38.170  24.966  1.00  0.00     0.012 A 
HETATM    8  C   LIG     1      17.991  36.441  19.094  1.00  0.00     0.012 A 
HETATM    9  C   LIG     1      18.583  37.613  18.612  1.00  0.00     0.002 A 
HETATM   10  C   LIG     1      18.885  38.664  19.484  1.00  0.00     0.012 A 
HETATM   11  C   LIG     1      18.597  38.551  20.853  1.00  0.00    -0.024 A 
HETATM   12  C   LIG     1      18.896  39.597  21.740  1.00  0.00     0.013 A 
HETATM   13  C   LIG     1      18.605  39.474  23.103  1.00  0.00     0.013 A 
HETATM   14  C   LIG     1      18.012  38.303  23.601  1.00  0.00    -0.024 A 
HETATM   15  C   LIG     1      17.708  37.244  22.717  1.00  0.00    -0.004 A 
HETATM   16  C   LIG     1      18.001  37.367  21.342  1.00  0.00    -0.004 A 
ENDROOT
TORSDOF 0
ENDMDL
MODEL 5
REMARK VINA RESULT:      -6.8      6.911      9.982
REMARK  0 active torsions:
REMARK  status: ('A' for Active; 'I' for Inactive)
ROOT
HETATM    1  C   LIG     1      16.466  33.821  15.472  1.00  0.00    -0.024 A 
HETATM    2  C   LIG     1      15.903  34.244  16.686  1.00  0.00     0.013 A 
HETATM    3  C   LIG     1      14.861  33.519  17.274  1.00  0.00     0.013 A 
HETATM    4  C   LIG     1      14.365  32.360  16.657  1.00  0.00    -0.024 A 
HETATM    5  C   LIG     1      13.320  31.626  17.239  1.00  0.00     0.012 A 
HETATM    6  C   LIG     1      12.837  30.472  16.613  1.00  0.00     0.002 A 
HETATM    7  C   LIG     1      13.388  30.039  15.403  1.00  0.00     0.012 A 
HETATM    8  C   LIG     1      17.512  34.541  14.874  1.00  0.00     0.012 A 
HETATM    9  C   LIG     1      18.063  34.107  13.664  1.00  0.00     0.002 A 
HETATM   10  C   LIG     1      17.579  32.954  13.038  1.00  0.00     0.012 A 
HETATM   11  C   LIG     1      16.534  32.220  13.620  1.00  0.00    -0.024 A 
HETATM   12  C   LIG     1      16.038  31.061  13.003  1.00  0.00     0.013 A 
HETATM   13  C   LIG     1      14.996  30.336  13.591  1.00  0.00     0.013 A 
HETATM   14  C   LIG     1      14.434  30.759  14.806  1.00  0.00    -0.024 A 
HETATM   15  C   LIG     1      14.924  31.924  15.435  1.00  0.00    -0.004 A 
HETATM   16  C   LIG     1      15.975  32.656  14.842  1.00  0.00    -0.004 A 
ENDROOT
TORSDOF 0
ENDMDL
MODEL 6
REMARK VINA RESULT:      -6.8      6.907      9.451
REMARK  0 active torsions:
REMARK  status: ('A' for Active; 'I' for Inactive)
ROOT
HETATM    1  C   LIG     1      14.371  32.361  16.658  1.00  0.00    -0.024 A 
HETATM    2  C   LIG     1      14.871  33.518  17.276  1.00  0.00     0.013 A 
HETATM    3  C   LIG     1      15.915  34.241  16.688  1.00  0.00     0.013 A 
HETATM    4  C   LIG     1      16.476  33.818  15.473  1.00  0.00    -0.024 A 
HETATM    5  C   LIG     1      17.523  34.536  14.876  1.00  0.00     0.012 A 
HETATM    6  C   LIG     1      18.072  34.103  13.665  1.00  0.00     0.002 A 
HETATM    7  C   LIG     1      17.585  32.952  13.037  1.00  0.00     0.012 A 
HETATM    8  C   LIG     1      13.324  31.630  17.239  1.00  0.00     0.012 A 
HETATM    9  C   LIG     1      12.837  30.479  16.611  1.00  0.00     0.002 A 
HETATM   10  C   LIG     1      13.386  30.046  15.400  1.00  0.00     0.012 A 
HETATM   11  C   LIG     1      14.434  30.764  14.803  1.00  0.00    -0.024 A 
HETATM   12  C   LIG     1      14.995  30.341  13.588  1.00  0.00     0.013 A 
HETATM   13  C   LIG     1      16.039  31.064  13.000  1.00  0.00     0.013 A 
HETATM   14  C   LIG     1      16.538  32.221  13.618  1.00  0.00    -0.024 A 
HETATM   15  C   LIG     1      15.981  32.655  14.841  1.00  0.00    -0.004 A 
HETATM   16  C   LIG     1      14.928  31.927  15.435  1.00  0.00    -0.004 A 
ENDROOT
TORSDOF 0
ENDMDL
MODEL 7
REMARK VINA RESULT:      -6.8      6.902      9.659
REMARK  0 active torsions:
REMARK  status: ('A' for Active; 'I' for Inactive)
ROOT
HETATM    1  C   LIG     1      16.510  32.192  13.612  1.00  0.00    -0.024 A 
HETATM    2  C   LIG     1      15.992  31.033  13.013  1.00  0.00     0.013 A 
HETATM    3  C   LIG     1      14.950  30.325  13.622  1.00  0.00     0.013 A 
HETATM    4  C   LIG     1      14.409  30.766  14.840  1.00  0.00    -0.024 A 
HETATM    5  C   LIG     1      13.364  30.064  15.460  1.00  0.00     0.012 A 
HETATM    6  C   LIG     1      12.835  30.515  16.673  1.00  0.00     0.002 A 
HETATM    7  C   LIG     1      13.340  31.668  17.281  1.00  0.00     0.012 A 
HETATM    8  C   LIG     1      17.554  32.908  13.008  1.00  0.00     0.012 A 
HETATM    9  C   LIG     1      18.059  34.061  13.616  1.00  0.00     0.002 A 
HETATM   10  C   LIG     1      17.530  34.513  14.830  1.00  0.00     0.012 A 
HETATM   11  C   LIG     1      16.485  33.810  15.449  1.00  0.00    -0.024 A 
HETATM   12  C   LIG     1      15.944  34.251  16.667  1.00  0.00     0.013 A 
HETATM   13  C   LIG     1      14.902  33.544  17.276  1.00  0.00     0.013 A 
HETATM   14  C   LIG     1      14.384  32.385  16.677  1.00  0.00    -0.024 A 
HETATM   15  C   LIG     1      14.921  31.932  15.452  1.00  0.00    -0.004 A 
HETATM   16  C   LIG     1      15.973  32.645  14.837  1.00  0.00    -0.004 A 
ENDROOT
TORSDOF 0
ENDMDL
MODEL 8
REMARK VINA RESULT:      -5.8      1.158      3.715
REMARK  0 active torsions:
REMARK  status: ('A' for Active; 'I' for Inactive)
ROOT
HETATM    1  C   LIG     1      18.648  37.941  20.296  1.00  0.00    -0.024 A 
HETATM    2  C   LIG     1      18.662  37.270  19.063  1.00  0.00     0.013 A 
HETATM    3  C   LIG     1      17.811  36.182  18.839  1.00  0.00     0.013 A 
HETATM    4  C   LIG     1      16.933  35.748  19.844  1.00  0.00    -0.024 A 
HETATM    5  C   LIG     1      16.076  34.659  19.629  1.00  0.00     0.012 A 
HETATM    6  C   LIG     1      15.205  34.238  20.639  1.00  0.00     0.002 A 
HETATM    7  C   LIG     1      15.180  34.896  21.873  1.00  0.00     0.012 A 
HETATM    8  C   LIG     1      19.497  39.033  20.530  1.00  0.00     0.012 A 
HETATM    9  C   LIG     1      19.472  39.692  21.764  1.00  0.00     0.002 A 
HETATM   10  C   LIG     1      18.601  39.271  22.774  1.00  0.00     0.012 A 
HETATM   11  C   LIG     1      17.744  38.181  22.559  1.00  0.00    -0.024 A 
HETATM   12  C   LIG     1      16.866  37.747  23.564  1.00  0.00     0.013 A 
HETATM   13  C   LIG     1      16.015  36.659  23.340  1.00  0.00     0.013 A 
HETATM   14  C   LIG     1      16.029  35.988  22.107  1.00  0.00    -0.024 A 
HETATM   15  C   LIG     1      16.909  36.416  21.089  1.00  0.00    -0.004 A 
HETATM   16  C   LIG     1      17.768  37.513  21.314  1.00  0.00    -0.004 A 
ENDROOT
TORSDOF 0
ENDMDL
MODEL 9
REMARK VINA RESULT:      -5.8      1.140      3.732
REMARK  0 active torsions:
REMARK  status: ('A' for Active; 'I' for Inactive)
ROOT
HETATM    1  C   LIG     1      16.077  35.971  22.147  1.00  0.00    -0.024 A 
HETATM    2  C   LIG     1      16.094  36.640  23.381  1.00  0.00     0.013 A 
HETATM    3  C   LIG     1      16.948  37.730  23.584  1.00  0.00     0.013 A 
HETATM    4  C   LIG     1      17.798  38.168  22.557  1.00  0.00    -0.024 A 
HETATM    5  C   LIG     1      18.657  39.260  22.751  1.00  0.00     0.012 A 
HETATM    6  C   LIG     1      19.498  39.686  21.717  1.00  0.00     0.002 A 
HETATM    7  C   LIG     1      19.492  39.030  20.483  1.00  0.00     0.012 A 
HETATM    8  C   LIG     1      15.225  34.878  21.933  1.00  0.00     0.012 A 
HETATM    9  C   LIG     1      15.219  34.221  20.698  1.00  0.00     0.002 A 
HETATM   10  C   LIG     1      16.059  34.647  19.665  1.00  0.00     0.012 A 
HETATM   11  C   LIG     1      16.919  35.739  19.859  1.00  0.00    -0.024 A 
HETATM   12  C   LIG     1      17.769  36.177  18.832  1.00  0.00     0.013 A 
HETATM   13  C   LIG     1      18.622  37.267  19.035  1.00  0.00     0.013 A 
HETATM   14  C   LIG     1      18.639  37.936  20.269  1.00  0.00    -0.024 A 
HETATM   15  C   LIG     1      17.789  37.503  21.310  1.00  0.00    -0.004 A 
HETATM   16  C   LIG     1      16.928  36.404  21.106  1.00  0.00    -0.004 A 
ENDROOT
TORSDOF 0
ENDMDL
MODEL 10
REMARK VINA RESULT:      -5.7      1.215      3.820
REMARK  0 active torsions:
REMARK  status: ('A' for Active; 'I' for Inactive)
ROOT
HETATM    1  C   LIG     1      17.632  38.175  22.543  1.00  0.00    -0.024 A 
HETATM    2  C   LIG     1      16.702  37.751  23.505  1.00  0.00     0.013 A 
HETATM    3  C   LIG     1      15.849  36.674  23.240  1.00  0.00     0.013 A 
HETATM    4  C   LIG     1      15.913  36.004  22.009  1.00  0.00    -0.024 A 
HETATM    5  C   LIG     1      15.062  34.923  21.734  1.00  0.00     0.012 A 
HETATM    6  C   LIG     1      15.137  34.263  20.503  1.00  0.00     0.002 A 
HETATM    7  C   LIG     1      16.058  34.674  19.534  1.00  0.00     0.012 A 
HETATM    8  C   LIG     1      18.492  39.253  22.799  1.00  0.00     0.012 A 
HETATM    9  C   LIG     1      19.413  39.664  21.830  1.00  0.00     0.002 A 
HETATM   10  C   LIG     1      19.488  39.004  20.599  1.00  0.00     0.012 A 
HETATM   11  C   LIG     1      18.637  37.923  20.324  1.00  0.00    -0.024 A 
HETATM   12  C   LIG     1      18.701  37.253  19.093  1.00  0.00     0.013 A 
HETATM   13  C   LIG     1      17.848  36.176  18.828  1.00  0.00     0.013 A 
HETATM   14  C   LIG     1      16.918  35.752  19.790  1.00  0.00    -0.024 A 
HETATM   15  C   LIG     1      16.845  36.420  21.033  1.00  0.00    -0.004 A 
HETATM   16  C   LIG     1      17.705  37.507  21.300  1.00  0.00    -0.004 A 
ENDROOT
TORSDOF 0
ENDMDL
MODEL 11
REMARK VINA RESULT:      -5.6      7.165     10.146
REMARK  0 active torsions:
REMARK  status: ('A' for Active; 'I' for Inactive)
ROOT
HETATM    1  C   LIG     1      15.595  30.655  13.895  1.00  0.00    -0.024 A 
HETATM    2  C   LIG     1      16.675  31.465  13.509  1.00  0.00     0.013 A 
HETATM    3  C   LIG     1      16.950  32.653  14.196  1.00  0.00     0.013 A 
HETATM    4  C   LIG     1      16.150  33.049  15.279  1.00  0.00    -0.024 A 
HETATM    5  C   LIG     1      16.417  34.238  15.974  1.00  0.00     0.012 A 
HETATM    6  C   LIG     1      15.612  34.620  17.052  1.00  0.00     0.002 A 
HETATM    7  C   LIG     1      14.533  33.823  17.447  1.00  0.00     0.012 A 
HETATM    8  C   LIG     1      15.312  29.462  13.213  1.00  0.00     0.012 A 
HETATM    9  C   LIG     1      14.233  28.665  13.608  1.00  0.00     0.002 A 
HETATM   10  C   LIG     1      13.427  29.047  14.686  1.00  0.00     0.012 A 
HETATM   11  C   LIG     1      13.695  30.236  15.381  1.00  0.00    -0.024 A 
HETATM   12  C   LIG     1      12.895  30.632  16.464  1.00  0.00     0.013 A 
HETATM   13  C   LIG     1      13.170  31.819  17.150  1.00  0.00     0.013 A 
HETATM   14  C   LIG     1      14.249  32.630  16.765  1.00  0.00    -0.024 A 
HETATM   15  C   LIG     1      15.061  32.241  15.677  1.00  0.00    -0.004 A 
HETATM   16  C   LIG     1      14.784  31.044  14.983  1.00  0.00    -0.004 A 
ENDROOT
TORSDOF 0
ENDMDL
MODEL 12
REMARK VINA RESULT:      -5.2     16.390     16.845
REMARK  0 active torsions:
REMARK  status: ('A' for Active; 'I' for Inactive)
ROOT
HETATM    1  C   LIG     1      23.465  21.923  20.676  1.00  0.00    -0.024 A 
HETATM    2  C   LIG     1      22.843  21.602  21.893  1.00  0.00     0.013 A 
HETATM    3  C   LIG     1      23.483  21.869  23.108  1.00  0.00     0.013 A 
HETATM    4  C   LIG     1      24.755  22.461  23.125  1.00  0.00    -0.024 A 
HETATM    5  C   LIG     1      25.406  22.733  24.338  1.00  0.00     0.012 A 
HETATM    6  C   LIG     1      26.674  23.324  24.340  1.00  0.00     0.002 A 
HETATM    7  C   LIG     1      27.306  23.649  23.136  1.00  0.00     0.012 A 
HETATM    8  C   LIG     1      22.830  21.659  19.453  1.00  0.00     0.012 A 
HETATM    9  C   LIG     1      23.463  21.984  18.249  1.00  0.00     0.002 A 
HETATM   10  C   LIG     1      24.730  22.575  18.250  1.00  0.00     0.012 A 
HETATM   11  C   LIG     1      25.381  22.847  19.463  1.00  0.00    -0.024 A 
HETATM   12  C   LIG     1      26.653  23.439  19.481  1.00  0.00     0.013 A 
HETATM   13  C   LIG     1      27.293  23.706  20.696  1.00  0.00     0.013 A 
HETATM   14  C   LIG     1      26.671  23.386  21.912  1.00  0.00    -0.024 A 
HETATM   15  C   LIG     1      25.391  22.789  21.907  1.00  0.00    -0.004 A 
HETATM   16  C   LIG     1      24.745  22.519  20.682  1.00  0.00    -0.004 A 
ENDROOT
TORSDOF 0
ENDMDL
MODEL 13
REMARK VINA RESULT:      -5.2     16.365     16.446
REMARK  0 active torsions:
REMARK  status: ('A' for Active; 'I' for Inactive)
ROOT
HETATM    1  C   LIG     1      24.753  22.456  23.128  1.00  0.00    -0.024 A 
HETATM    2  C   LIG     1      23.488  21.849  23.112  1.00  0.00     0.013 A 
HETATM    3  C   LIG     1      22.841  21.592  21.898  1.00  0.00     0.013 A 
HETATM    4  C   LIG     1      23.450  21.937  20.682  1.00  0.00    -0.024 A 
HETATM    5  C   LIG     1      22.810  21.683  19.459  1.00  0.00     0.012 A 
HETATM    6  C   LIG     1      23.429  22.031  18.255  1.00  0.00     0.002 A 
HETATM    7  C   LIG     1      24.690  22.637  18.255  1.00  0.00     0.012 A 
HETATM    8  C   LIG     1      25.410  22.718  24.340  1.00  0.00     0.012 A 
HETATM    9  C   LIG     1      26.670  23.324  24.341  1.00  0.00     0.002 A 
HETATM   10  C   LIG     1      27.289  23.672  23.136  1.00  0.00     0.012 A 
HETATM   11  C   LIG     1      26.649  23.418  21.914  1.00  0.00    -0.024 A 
HETATM   12  C   LIG     1      27.258  23.763  20.697  1.00  0.00     0.013 A 
HETATM   13  C   LIG     1      26.612  23.506  19.483  1.00  0.00     0.013 A 
HETATM   14  C   LIG     1      25.346  22.899  19.467  1.00  0.00    -0.024 A 
HETATM   15  C   LIG     1      24.724  22.548  20.685  1.00  0.00    -0.004 A 
HETATM   16  C   LIG     1      25.375  22.807  21.910  1.00  0.00    -0.004 A 
ENDROOT
TORSDOF 0
ENDMDL
MODEL 14
REMARK VINA RESULT:      -5.2     16.406     16.639
REMARK  0 active torsions:
REMARK  status: ('A' for Active; 'I' for Inactive)
ROOT
HETATM    1  C   LIG     1      26.662  23.401  21.911  1.00  0.00    -0.024 A 
HETATM    2  C   LIG     1      27.279  23.747  20.699  1.00  0.00     0.013 A 
HETATM    3  C   LIG     1      26.647  23.478  19.480  1.00  0.00     0.013 A 
HETATM    4  C   LIG     1      25.387  22.860  19.455  1.00  0.00    -0.024 A 
HETATM    5  C   LIG     1      24.745  22.586  18.238  1.00  0.00     0.012 A 
HETATM    6  C   LIG     1      23.489  21.970  18.228  1.00  0.00     0.002 A 
HETATM    7  C   LIG     1      22.862  21.619  19.427  1.00  0.00     0.012 A 
HETATM    8  C   LIG     1      27.288  23.667  23.139  1.00  0.00     0.012 A 
HETATM    9  C   LIG     1      26.661  23.317  24.338  1.00  0.00     0.002 A 
HETATM   10  C   LIG     1      25.405  22.700  24.328  1.00  0.00     0.012 A 
HETATM   11  C   LIG     1      24.763  22.427  23.111  1.00  0.00    -0.024 A 
HETATM   12  C   LIG     1      23.504  21.808  23.086  1.00  0.00     0.013 A 
HETATM   13  C   LIG     1      22.871  21.539  21.867  1.00  0.00     0.013 A 
HETATM   14  C   LIG     1      23.488  21.885  20.655  1.00  0.00    -0.024 A 
HETATM   15  C   LIG     1      24.756  22.508  20.669  1.00  0.00    -0.004 A 
HETATM   16  C   LIG     1      25.394  22.779  21.897  1.00  0.00    -0.004 A 
ENDROOT
TORSDOF 0
ENDMDL
MODEL 15
REMARK VINA RESULT:      -5.2     16.365     16.964
REMARK  0 active torsions:
REMARK  status: ('A' for Active; 'I' for Inactive)
ROOT
HETATM    1  C   LIG     1      25.345  22.903  19.477  1.00  0.00    -0.024 A 
HETATM    2  C   LIG     1      26.611  23.509  19.500  1.00  0.00     0.013 A 
HETATM    3  C   LIG     1      27.254  23.762  20.716  1.00  0.00     0.013 A 
HETATM    4  C   LIG     1      26.641  23.413  21.930  1.00  0.00    -0.024 A 
HETATM    5  C   LIG     1      27.276  23.662  23.155  1.00  0.00     0.012 A 
HETATM    6  C   LIG     1      26.654  23.308  24.356  1.00  0.00     0.002 A 
HETATM    7  C   LIG     1      25.393  22.704  24.349  1.00  0.00     0.012 A 
HETATM    8  C   LIG     1      24.693  22.645  18.261  1.00  0.00     0.012 A 
HETATM    9  C   LIG     1      23.432  22.041  18.254  1.00  0.00     0.002 A 
HETATM   10  C   LIG     1      22.810  21.686  19.455  1.00  0.00     0.012 A 
HETATM   11  C   LIG     1      23.445  21.936  20.681  1.00  0.00    -0.024 A 
HETATM   12  C   LIG     1      22.832  21.587  21.894  1.00  0.00     0.013 A 
HETATM   13  C   LIG     1      23.475  21.839  23.111  1.00  0.00     0.013 A 
HETATM   14  C   LIG     1      24.741  22.445  23.134  1.00  0.00    -0.024 A 
HETATM   15  C   LIG     1      25.367  22.802  21.919  1.00  0.00    -0.004 A 
HETATM   16  C   LIG     1      24.719  22.547  20.691  1.00  0.00    -0.004 A 
ENDROOT
TORSDOF 0
ENDMDL
MODEL 16
REMARK VINA RESULT:      -5.2     16.101     18.223
REMARK  0 active torsions:
REMARK  status: ('A' for Active; 'I' for Inactive)
ROOT
HETATM    1  C   LIG     1      22.795  19.374  19.794  1.00  0.00    -0.024 A 
HETATM    2  C   LIG     1      22.504  18.119  20.351  1.00  0.00     0.013 A 
HETATM    3  C   LIG     1      22.539  17.933  21.737  1.00  0.00     0.013 A 
HETATM    4  C   LIG     1      22.865  19.000  22.589  1.00  0.00    -0.024 A 
HETATM    5  C   LIG     1      22.903  18.825  23.980  1.00  0.00     0.012 A 
HETATM    6  C   LIG     1      23.229  19.897  24.817  1.00  0.00     0.002 A 
HETATM    7  C   LIG     1      23.521  21.153  24.276  1.00  0.00     0.012 A 
HETATM    8  C   LIG     1      22.762  19.570  18.405  1.00  0.00     0.012 A 
HETATM    9  C   LIG     1      23.054  20.826  17.865  1.00  0.00     0.002 A 
HETATM   10  C   LIG     1      23.380  21.899  18.701  1.00  0.00     0.012 A 
HETATM   11  C   LIG     1      23.418  21.723  20.093  1.00  0.00    -0.024 A 
HETATM   12  C   LIG     1      23.744  22.790  20.944  1.00  0.00     0.013 A 
HETATM   13  C   LIG     1      23.779  22.605  22.331  1.00  0.00     0.013 A 
HETATM   14  C   LIG     1      23.488  21.349  22.888  1.00  0.00    -0.024 A 
HETATM   15  C   LIG     1      23.159  20.269  22.040  1.00  0.00    -0.004 A 
HETATM   16  C   LIG     1      23.124  20.455  20.642  1.00  0.00    -0.004 A 
ENDROOT
TORSDOF 0
ENDMDL
MODEL 17
REMARK VINA RESULT:      -5.2     16.172     18.426
REMARK  0 active torsions:
REMARK  status: ('A' for Active; 'I' for Inactive)
ROOT
HETATM    1  C   LIG     1      23.082  20.530  18.564  1.00  0.00    -0.024 A 
HETATM    2  C   LIG     1      23.589  21.825  18.371  1.00  0.00     0.013 A 
HETATM    3  C   LIG     1      24.030  22.582  19.462  1.00  0.00     0.013 A 
HETATM    4  C   LIG     1      23.971  22.057  20.762  1.00  0.00    -0.024 A 
HETATM    5  C   LIG     1      24.410  22.809  21.862  1.00  0.00     0.012 A 
HETATM    6  C   LIG     1      24.346  22.272  23.152  1.00  0.00     0.002 A 
HETATM    7  C   LIG     1      23.843  20.984  23.359  1.00  0.00     0.012 A 
HETATM    8  C   LIG     1      22.638  19.762  17.476  1.00  0.00     0.012 A 
HETATM    9  C   LIG     1      22.135  18.474  17.684  1.00  0.00     0.002 A 
HETATM   10  C   LIG     1      22.071  17.937  18.974  1.00  0.00     0.012 A 
HETATM   11  C   LIG     1      22.510  18.689  20.074  1.00  0.00    -0.024 A 
HETATM   12  C   LIG     1      22.451  18.164  21.374  1.00  0.00     0.013 A 
HETATM   13  C   LIG     1      22.892  18.922  22.465  1.00  0.00     0.013 A 
HETATM   14  C   LIG     1      23.399  20.216  22.272  1.00  0.00    -0.024 A 
HETATM   15  C   LIG     1      23.463  20.755  20.968  1.00  0.00    -0.004 A 
HETATM   16  C   LIG     1      23.018  19.991  19.868  1.00  0.00    -0.004 A 
ENDROOT
TORSDOF 0
ENDMDL
MODEL 18
REMARK VINA RESULT:      -5.2     16.313     16.822
REMARK  0 active torsions:
REMARK  status: ('A' for Active; 'I' for Inactive)
ROOT
HETATM    1  C   LIG     1      27.367  28.841  33.751  1.00  0.00    -0.024 A 
HETATM    2  C   LIG     1      26.496  27.747  33.638  1.00  0.00     0.013 A 
HETATM    3  C   LIG     1      26.453  26.994  32.459  1.00  0.00     0.013 A 
HETATM    4  C   LIG     1      27.282  27.323  31.376  1.00  0.00    -0.024 A 
HETATM    5  C   LIG     1      27.247  26.575  30.189  1.00  0.00     0.012 A 
HETATM    6  C   LIG     1      28.079  26.914  29.118  1.00  0.00     0.002 A 
HETATM    7  C   LIG     1      28.953  28.002  29.216  1.00  0.00     0.012 A 
HETATM    8  C   LIG     1      27.417  29.602  34.929  1.00  0.00     0.012 A 
HETATM    9  C   LIG     1      28.290  30.690  35.027  1.00  0.00     0.002 A 
HETATM   10  C   LIG     1      29.123  31.029  33.956  1.00  0.00     0.012 A 
HETATM   11  C   LIG     1      29.088  30.281  32.769  1.00  0.00    -0.024 A 
HETATM   12  C   LIG     1      29.916  30.610  31.686  1.00  0.00     0.013 A 
HETATM   13  C   LIG     1      29.874  29.857  30.507  1.00  0.00     0.013 A 
HETATM   14  C   LIG     1      29.003  28.763  30.394  1.00  0.00    -0.024 A 
HETATM   15  C   LIG     1      28.164  28.423  31.478  1.00  0.00    -0.004 A 
HETATM   16  C   LIG     1      28.206  29.182  32.667  1.00  0.00    -0.004 A 
ENDROOT
TORSDOF 0
ENDMDL
MODEL 19
REMARK VINA RESULT:      -5.1     16.123     16.544
REMARK  0 active torsions:
REMARK  status: ('A' for Active; 'I' for Inactive)
ROOT
HETATM    1  C   LIG     1      27.218  27.052  31.423  1.00  0.00    -0.024 A 
HETATM    2  C   LIG     1      27.143  26.357  30.206  1.00  0.00     0.013 A 
HETATM    3  C   LIG     1      27.911  26.763  29.109  1.00  0.00     0.013 A 
HETATM    4  C   LIG     1      28.768  27.870  29.213  1.00  0.00    -0.024 A 
HETATM    5  C   LIG     1      29.542  28.285  28.119  1.00  0.00     0.012 A 
HETATM    6  C   LIG     1      30.392  29.390  28.237  1.00  0.00     0.002 A 
HETATM    7  C   LIG     1      30.478  30.092  29.443  1.00  0.00     0.012 A 
HETATM    8  C   LIG     1      26.452  26.652  32.528  1.00  0.00     0.012 A 
HETATM    9  C   LIG     1      26.538  27.355  33.734  1.00  0.00     0.002 A 
HETATM   10  C   LIG     1      27.387  28.460  33.852  1.00  0.00     0.012 A 
HETATM   11  C   LIG     1      28.162  28.875  32.758  1.00  0.00    -0.024 A 
HETATM   12  C   LIG     1      29.018  29.982  32.862  1.00  0.00     0.013 A 
HETATM   13  C   LIG     1      29.787  30.388  31.765  1.00  0.00     0.013 A 
HETATM   14  C   LIG     1      29.711  29.692  30.548  1.00  0.00    -0.024 A 
HETATM   15  C   LIG     1      28.853  28.577  30.433  1.00  0.00    -0.004 A 
HETATM   16  C   LIG     1      28.077  28.167  31.538  1.00  0.00    -0.004 A 
ENDROOT
TORSDOF 0
ENDMDL
MODEL 20
REMARK VINA RESULT:      -4.9     16.325     16.957
REMARK  0 active torsions:
REMARK  status: ('A' for Active; 'I' for Inactive)
ROOT
HETATM    1  C   LIG     1      25.036  22.845  19.228  1.00  0.00    -0.024 A 
HETATM    2  C   LIG     1      23.871  22.140  18.887  1.00  0.00     0.013 A 
HETATM    3  C   LIG     1      23.125  21.484  19.872  1.00  0.00     0.013 A 
HETATM    4  C   LIG     1      23.531  21.524  21.215  1.00  0.00    -0.024 A 
HETATM    5  C   LIG     1      22.790  20.869  22.210  1.00  0.00     0.012 A 
HETATM    6  C   LIG     1      23.207  20.918  23.544  1.00  0.00     0.002 A 
HETATM    7  C   LIG     1      24.364  21.617  23.900  1.00  0.00     0.012 A 
HETATM    8  C   LIG     1      25.790  23.506  18.248  1.00  0.00     0.012 A 
HETATM    9  C   LIG     1      26.948  24.205  18.603  1.00  0.00     0.002 A 
HETATM   10  C   LIG     1      27.365  24.254  19.938  1.00  0.00     0.012 A 
HETATM   11  C   LIG     1      26.623  23.599  20.933  1.00  0.00    -0.024 A 
HETATM   12  C   LIG     1      27.030  23.639  22.276  1.00  0.00     0.013 A 
HETATM   13  C   LIG     1      26.283  22.983  23.261  1.00  0.00     0.013 A 
HETATM   14  C   LIG     1      25.119  22.278  22.919  1.00  0.00    -0.024 A 
HETATM   15  C   LIG     1      24.701  22.231  21.571  1.00  0.00    -0.004 A 
HETATM   16  C   LIG     1      25.453  22.892  20.577  1.00  0.00    -0.004 A 
ENDROOT
TORSDOF 0
ENDMDL
