MODEL 1
REMARK VINA RESULT:      -8.9      0.000      0.000
REMARK  6 active torsions:
REMARK  status: ('A' for Active; 'I' for Inactive)
REMARK    1  A    between atoms: C_3  and  C_4 
REMARK    2  A    between atoms: C_4  and  C_5 
REMARK    3  A    between atoms: C_5  and  C_6 
REMARK    4  A    between atoms: N_8  and  C_9 
REMARK    5  A    between atoms: C_12  and  O_13 
REMARK    6  A    between atoms: N_16  and  C_17 
ROOT
HETATM    1  O   LIG     1      14.359  34.360  21.969  1.00  0.00    -0.270 OA
HETATM    2  C   LIG     1      15.241  34.790  21.178  1.00  0.00     0.257 A 
HETATM    3  C   LIG     1      15.304  34.458  19.713  1.00  0.00     0.174 A 
HETATM    4  N   LIG     1      16.285  35.677  21.576  1.00  0.00    -0.214 N 
HETATM    5  N   LIG     1      17.057  35.976  20.446  1.00  0.00    -0.214 N 
HETATM    6  C   LIG     1      16.484  35.300  19.327  1.00  0.00     0.257 A 
HETATM    7  O   LIG     1      16.895  35.443  18.145  1.00  0.00    -0.270 OA
ENDROOT
BRANCH   4   8
HETATM    8  C   LIG     1      16.704  35.893  22.935  1.00  0.00     0.060 A 
HETATM    9  C   LIG     1      16.601  37.167  23.516  1.00  0.00     0.034 A 
HETATM   10  C   LIG     1      17.001  37.373  24.840  1.00  0.00     0.039 A 
HETATM   11  C   LIG     1      17.510  36.308  25.594  1.00  0.00     0.065 A 
HETATM   12  C   LIG     1      17.616  35.038  25.019  1.00  0.00     0.039 A 
HETATM   13  C   LIG     1      17.216  34.830  23.695  1.00  0.00     0.034 A 
BRANCH  11  14
HETATM   14  O   LIG     1      17.912  36.500  26.914  1.00  0.00    -0.361 OA
HETATM   15  H   LIG     1      18.224  37.406  27.246  1.00  0.00     0.217 HD
ENDBRANCH  11  14
ENDBRANCH   4   8
BRANCH   5  16
HETATM   16  C   LIG     1      18.014  37.046  20.362  1.00  0.00     0.060 A 
HETATM   17  C   LIG     1      19.198  36.887  19.622  1.00  0.00     0.031 A 
HETATM   18  C   LIG     1      20.119  37.933  19.533  1.00  0.00     0.002 A 
HETATM   19  C   LIG     1      19.868  39.145  20.183  1.00  0.00     0.000 A 
HETATM   20  C   LIG     1      18.695  39.309  20.925  1.00  0.00     0.002 A 
HETATM   21  C   LIG     1      17.771  38.263  21.016  1.00  0.00     0.031 A 
ENDBRANCH   5  16
BRANCH   3  22
HETATM   22  C   LIG     1      15.596  32.968  19.441  1.00  0.00     0.024 C 
BRANCH  22  23
HETATM   23  C   LIG     1      14.687  32.323  18.379  1.00  0.00     0.001 C 
BRANCH  23  24
HETATM   24  C   LIG     1      14.676  33.095  17.052  1.00  0.00    -0.005 C 
HETATM   25  C   LIG     1      15.763  32.585  16.110  1.00  0.00     0.005 C 
ENDBRANCH  23  24
ENDBRANCH  22  23
ENDBRANCH   3  22
TORSDOF 6
ENDMDL
MODEL 2
REMARK VINA RESULT:      -7.1      3.898      9.193
REMARK  6 active torsions:
REMARK  status: ('A' for Active; 'I' for Inactive)
REMARK    1  A    between atoms: C_3  and  C_4 
REMARK    2  A    between atoms: C_4  and  C_5 
REMARK    3  A    between atoms: C_5  and  C_6 
REMARK    4  A    between atoms: N_8  and  C_9 
REMARK    5  A    between atoms: C_12  and  O_13 
REMARK    6  A    between atoms: N_16  and  C_17 
ROOT
HETATM    1  O   LIG     1      15.884  34.841  17.080  1.00  0.00    -0.270 OA
HETATM    2  C   LIG     1      15.455  33.656  17.090  1.00  0.00     0.257 A 
HETATM    3  C   LIG     1      14.735  33.023  18.248  1.00  0.00     0.174 A 
HETATM    4  N   LIG     1      15.577  32.769  15.981  1.00  0.00    -0.214 N 
HETATM    5  N   LIG     1      14.965  31.556  16.322  1.00  0.00    -0.214 N 
HETATM    6  C   LIG     1      14.430  31.686  17.638  1.00  0.00     0.257 A 
HETATM    7  O   LIG     1      13.735  30.796  18.196  1.00  0.00    -0.270 OA
ENDROOT
BRANCH   4   8
HETATM    8  C   LIG     1      16.499  32.943  14.890  1.00  0.00     0.060 A 
HETATM    9  C   LIG     1      16.054  32.849  13.561  1.00  0.00     0.034 A 
HETATM   10  C   LIG     1      16.951  33.026  12.503  1.00  0.00     0.039 A 
HETATM   11  C   LIG     1      18.300  33.297  12.763  1.00  0.00     0.065 A 
HETATM   12  C   LIG     1      18.748  33.390  14.083  1.00  0.00     0.039 A 
HETATM   13  C   LIG     1      17.853  33.212  15.144  1.00  0.00     0.034 A 
BRANCH  11  14
HETATM   14  O   LIG     1      19.202  33.475  11.716  1.00  0.00    -0.361 OA
HETATM   15  H   LIG     1      20.088  32.982  11.690  1.00  0.00     0.217 HD
ENDBRANCH  11  14
ENDBRANCH   4   8
BRANCH   5  16
HETATM   16  C   LIG     1      14.621  30.517  15.390  1.00  0.00     0.060 A 
HETATM   17  C   LIG     1      15.626  29.787  14.733  1.00  0.00     0.031 A 
HETATM   18  C   LIG     1      15.287  28.769  13.838  1.00  0.00     0.002 A 
HETATM   19  C   LIG     1      13.944  28.473  13.590  1.00  0.00     0.000 A 
HETATM   20  C   LIG     1      12.939  29.197  14.236  1.00  0.00     0.002 A 
HETATM   21  C   LIG     1      13.274  30.216  15.132  1.00  0.00     0.031 A 
ENDBRANCH   5  16
BRANCH   3  22
HETATM   22  C   LIG     1      15.625  32.852  19.496  1.00  0.00     0.024 C 
BRANCH  22  23
HETATM   23  C   LIG     1      15.312  33.830  20.643  1.00  0.00     0.001 C 
BRANCH  23  24
HETATM   24  C   LIG     1      16.247  35.049  20.661  1.00  0.00    -0.005 C 
HETATM   25  C   LIG     1      16.939  35.190  22.014  1.00  0.00     0.005 C 
ENDBRANCH  23  24
ENDBRANCH  22  23
ENDBRANCH   3  22
TORSDOF 6
ENDMDL
MODEL 3
REMARK VINA RESULT:      -6.2      4.904      7.576
REMARK  6 active torsions:
REMARK  status: ('A' for Active; 'I' for Inactive)
REMARK    1  A    between atoms: C_3  and  C_4 
REMARK    2  A    between atoms: C_4  and  C_5 
REMARK    3  A    between atoms: C_5  and  C_6 
REMARK    4  A    between atoms: N_8  and  C_9 
REMARK    5  A    between atoms: C_12  and  O_13 
REMARK    6  A    between atoms: N_16  and  C_17 
ROOT
HETATM    1  O   LIG     1      12.306  30.780  16.453  1.00  0.00    -0.270 OA
HETATM    2  C   LIG     1      13.306  30.763  15.688  1.00  0.00     0.257 A 
HETATM    3  C   LIG     1      13.452  29.854  14.499  1.00  0.00     0.174 A 
HETATM    4  N   LIG     1      14.425  31.634  15.841  1.00  0.00    -0.214 N 
HETATM    5  N   LIG     1      15.328  31.370  14.804  1.00  0.00    -0.214 N 
HETATM    6  C   LIG     1      14.768  30.350  13.978  1.00  0.00     0.257 A 
HETATM    7  O   LIG     1      15.299  29.956  12.906  1.00  0.00    -0.270 OA
ENDROOT
BRANCH   4   8
HETATM    8  C   LIG     1      14.747  32.351  17.046  1.00  0.00     0.060 A 
HETATM    9  C   LIG     1      14.878  31.667  18.266  1.00  0.00     0.034 A 
HETATM   10  C   LIG     1      15.199  32.365  19.434  1.00  0.00     0.039 A 
HETATM   11  C   LIG     1      15.389  33.752  19.395  1.00  0.00     0.065 A 
HETATM   12  C   LIG     1      15.257  34.437  18.184  1.00  0.00     0.039 A 
HETATM   13  C   LIG     1      14.936  33.741  17.014  1.00  0.00     0.034 A 
BRANCH  11  14
HETATM   14  O   LIG     1      15.709  34.458  20.553  1.00  0.00    -0.361 OA
HETATM   15  H   LIG     1      15.370  35.401  20.710  1.00  0.00     0.217 HD
ENDBRANCH  11  14
ENDBRANCH   4   8
BRANCH   5  16
HETATM   16  C   LIG     1      16.430  32.218  14.436  1.00  0.00     0.060 A 
HETATM   17  C   LIG     1      17.553  32.330  15.273  1.00  0.00     0.031 A 
HETATM   18  C   LIG     1      18.627  33.146  14.905  1.00  0.00     0.002 A 
HETATM   19  C   LIG     1      18.588  33.856  13.702  1.00  0.00     0.000 A 
HETATM   20  C   LIG     1      17.472  33.752  12.866  1.00  0.00     0.002 A 
HETATM   21  C   LIG     1      16.396  32.938  13.232  1.00  0.00     0.031 A 
ENDBRANCH   5  16
BRANCH   3  22
HETATM   22  C   LIG     1      13.554  28.364  14.884  1.00  0.00     0.024 C 
BRANCH  22  23
HETATM   23  C   LIG     1      13.323  27.386  13.718  1.00  0.00     0.001 C 
BRANCH  23  24
HETATM   24  C   LIG     1      11.890  27.438  13.168  1.00  0.00    -0.005 C 
HETATM   25  C   LIG     1      11.532  26.143  12.445  1.00  0.00     0.005 C 
ENDBRANCH  23  24
ENDBRANCH  22  23
ENDBRANCH   3  22
TORSDOF 6
ENDMDL
