REMARK  5 active torsions:
REMARK  status: ('A' for Active; 'I' for Inactive)
REMARK    1  A    between atoms: C_1  and  C_3 
REMARK    2  A    between atoms: C_7  and  C_8 
REMARK    3  A    between atoms: C_8  and  C_10 
REMARK    4  A    between atoms: C_8  and  O_9 
REMARK    5  A    between atoms: C_17  and  O_18 
ROOT
HETATM    1  C   LIG     1       0.262  -1.784  -0.237  1.00  0.00     0.185 C 
ENDROOT
BRANCH   1   2
HETATM    2  C   LIG     1      -0.820  -0.671  -0.192  1.00  0.00     0.256 C 
HETATM    3  C   LIG     1      -1.568  -0.620   1.175  1.00  0.00     0.044 C 
HETATM    4  C   LIG     1      -3.088  -0.558   0.918  1.00  0.00    -0.001 C 
HETATM    5  C   LIG     1      -3.424   0.614  -0.042  1.00  0.00     0.040 C 
HETATM    6  C   LIG     1      -3.474  -1.868   0.206  1.00  0.00     0.035 C 
HETATM    7  C   LIG     1      -2.622   0.431  -1.366  1.00  0.00     0.282 C 
HETATM    8  N   LIG     1      -1.791  -0.799  -1.318  1.00  0.00     0.096 N 
HETATM    9  C   LIG     1      -2.689  -1.969  -1.127  1.00  0.00     0.273 C 
BRANCH   5  10
HETATM   10  C   LIG     1      -3.138   1.958   0.595  1.00  0.00    -0.030 C 
HETATM   11  C   LIG     1      -4.111   2.831   0.874  1.00  0.00     0.007 C 
ENDBRANCH   5  10
ENDBRANCH   1   2
BRANCH   1  12
HETATM   12  C   LIG     1       1.429  -1.474   0.698  1.00  0.00    -0.013 A 
HETATM   13  C   LIG     1       1.548  -2.244   1.869  1.00  0.00     0.030 A 
HETATM   14  C   LIG     1       2.576  -1.997   2.775  1.00  0.00     0.118 A 
HETATM   15  N   LIG     1       3.477  -1.015   2.533  1.00  0.00    -0.260 NA
HETATM   16  C   LIG     1       3.418  -0.246   1.415  1.00  0.00     0.067 A 
HETATM   17  C   LIG     1       4.382   0.748   1.221  1.00  0.00     0.035 A 
HETATM   18  C   LIG     1       2.394  -0.453   0.454  1.00  0.00     0.004 A 
HETATM   19  C   LIG     1       4.352   1.546   0.079  1.00  0.00     0.039 A 
HETATM   20  C   LIG     1       3.355   1.355  -0.892  1.00  0.00     0.069 A 
HETATM   21  C   LIG     1       2.389   0.360  -0.702  1.00  0.00     0.051 A 
BRANCH  20  22
HETATM   22  O   LIG     1       3.288   2.131  -2.060  1.00  0.00    -0.356 OA
HETATM   23  C   LIG     1       4.198   3.176  -2.386  1.00  0.00     0.210 C 
ENDBRANCH  20  22
ENDBRANCH   1  12
BRANCH   1  24
HETATM   24  O   LIG     1       0.717  -1.974  -1.552  1.00  0.00    -0.389 OA
HETATM   25  H   LIG     1       1.237  -2.820  -1.558  1.00  0.00     0.210 HD
ENDBRANCH   1  24
TORSDOF 5
