MODEL 1
REMARK VINA RESULT:      -7.3      0.000      0.000
REMARK  1 active torsions:
REMARK  status: ('A' for Active; 'I' for Inactive)
REMARK    1  A    between atoms: C_7  and  C_8 
ROOT
HETATM    1 CL   LIG     1      16.174  38.733  22.805  1.00  0.00    -0.083 Cl
HETATM    2  C   LIG     1      16.823  37.534  23.920  1.00  0.00     0.045 A 
HETATM    3  C   LIG     1      17.216  37.949  25.199  1.00  0.00     0.024 A 
HETATM    4  C   LIG     1      17.765  37.032  26.099  1.00  0.00     0.002 A 
HETATM    5  C   LIG     1      17.930  35.697  25.724  1.00  0.00     0.001 A 
HETATM    6  C   LIG     1      17.542  35.274  24.450  1.00  0.00     0.014 A 
HETATM    7  C   LIG     1      16.978  36.185  23.542  1.00  0.00    -0.003 A 
ENDROOT
BRANCH   7   8
HETATM    8  C   LIG     1      16.574  35.710  22.204  1.00  0.00    -0.003 A 
HETATM    9  C   LIG     1      15.551  34.755  22.096  1.00  0.00     0.014 A 
HETATM   10  C   LIG     1      15.152  34.287  20.842  1.00  0.00     0.001 A 
HETATM   11  C   LIG     1      15.765  34.775  19.686  1.00  0.00     0.002 A 
HETATM   12  C   LIG     1      16.775  35.736  19.781  1.00  0.00     0.024 A 
HETATM   13  C   LIG     1      17.183  36.210  21.034  1.00  0.00     0.045 A 
HETATM   14 CL   LIG     1      18.432  37.449  21.104  1.00  0.00    -0.083 Cl
ENDBRANCH   7   8
TORSDOF 1
ENDMDL
MODEL 2
REMARK VINA RESULT:      -7.3      0.076      4.629
REMARK  1 active torsions:
REMARK  status: ('A' for Active; 'I' for Inactive)
REMARK    1  A    between atoms: C_7  and  C_8 
ROOT
HETATM    1 CL   LIG     1      18.424  37.563  21.144  1.00  0.00    -0.083 Cl
HETATM    2  C   LIG     1      17.201  36.300  21.052  1.00  0.00     0.045 A 
HETATM    3  C   LIG     1      16.808  35.836  19.790  1.00  0.00     0.024 A 
HETATM    4  C   LIG     1      15.817  34.858  19.677  1.00  0.00     0.002 A 
HETATM    5  C   LIG     1      15.210  34.342  20.823  1.00  0.00     0.001 A 
HETATM    6  C   LIG     1      15.595  34.798  22.086  1.00  0.00     0.014 A 
HETATM    7  C   LIG     1      16.597  35.773  22.212  1.00  0.00    -0.003 A 
ENDROOT
BRANCH   7   8
HETATM    8  C   LIG     1      16.987  36.236  23.558  1.00  0.00    -0.003 A 
HETATM    9  C   LIG     1      17.560  35.323  24.458  1.00  0.00     0.014 A 
HETATM   10  C   LIG     1      17.934  35.735  25.739  1.00  0.00     0.001 A 
HETATM   11  C   LIG     1      17.746  37.063  26.129  1.00  0.00     0.002 A 
HETATM   12  C   LIG     1      17.189  37.982  25.238  1.00  0.00     0.024 A 
HETATM   13  C   LIG     1      16.809  37.579  23.952  1.00  0.00     0.045 A 
HETATM   14 CL   LIG     1      16.147  38.781  22.849  1.00  0.00    -0.083 Cl
ENDBRANCH   7   8
TORSDOF 1
ENDMDL
MODEL 3
REMARK VINA RESULT:      -6.8      2.252      4.505
REMARK  1 active torsions:
REMARK  status: ('A' for Active; 'I' for Inactive)
REMARK    1  A    between atoms: C_7  and  C_8 
ROOT
HETATM    1 CL   LIG     1      17.565  36.342  23.536  1.00  0.00    -0.083 Cl
HETATM    2  C   LIG     1      16.733  35.677  22.134  1.00  0.00     0.045 A 
HETATM    3  C   LIG     1      15.771  34.679  22.335  1.00  0.00     0.024 A 
HETATM    4  C   LIG     1      15.113  34.105  21.244  1.00  0.00     0.002 A 
HETATM    5  C   LIG     1      15.417  34.520  19.947  1.00  0.00     0.001 A 
HETATM    6  C   LIG     1      16.375  35.515  19.736  1.00  0.00     0.014 A 
HETATM    7  C   LIG     1      17.034  36.107  20.826  1.00  0.00    -0.003 A 
ENDROOT
BRANCH   7   8
HETATM    8  C   LIG     1      18.041  37.157  20.575  1.00  0.00    -0.003 A 
HETATM    9  C   LIG     1      19.133  36.874  19.739  1.00  0.00     0.014 A 
HETATM   10  C   LIG     1      20.100  37.849  19.489  1.00  0.00     0.001 A 
HETATM   11  C   LIG     1      19.982  39.116  20.064  1.00  0.00     0.002 A 
HETATM   12  C   LIG     1      18.893  39.412  20.887  1.00  0.00     0.024 A 
HETATM   13  C   LIG     1      17.918  38.441  21.145  1.00  0.00     0.045 A 
HETATM   14 CL   LIG     1      16.542  38.871  22.157  1.00  0.00    -0.083 Cl
ENDBRANCH   7   8
TORSDOF 1
ENDMDL
MODEL 4
REMARK VINA RESULT:      -6.8      2.280      3.712
REMARK  1 active torsions:
REMARK  status: ('A' for Active; 'I' for Inactive)
REMARK    1  A    between atoms: C_7  and  C_8 
ROOT
HETATM    1 CL   LIG     1      16.486  38.784  22.258  1.00  0.00    -0.083 Cl
HETATM    2  C   LIG     1      17.862  38.401  21.228  1.00  0.00     0.045 A 
HETATM    3  C   LIG     1      18.828  39.390  21.002  1.00  0.00     0.024 A 
HETATM    4  C   LIG     1      19.917  39.133  20.165  1.00  0.00     0.002 A 
HETATM    5  C   LIG     1      20.044  37.889  19.545  1.00  0.00     0.001 A 
HETATM    6  C   LIG     1      19.086  36.896  19.764  1.00  0.00     0.014 A 
HETATM    7  C   LIG     1      17.994  37.139  20.612  1.00  0.00    -0.003 A 
ENDROOT
BRANCH   7   8
HETATM    8  C   LIG     1      16.997  36.072  20.829  1.00  0.00    -0.003 A 
HETATM    9  C   LIG     1      16.329  35.525  19.722  1.00  0.00     0.014 A 
HETATM   10  C   LIG     1      15.379  34.516  19.899  1.00  0.00     0.001 A 
HETATM   11  C   LIG     1      15.094  34.041  21.181  1.00  0.00     0.002 A 
HETATM   12  C   LIG     1      15.763  34.570  22.288  1.00  0.00     0.024 A 
HETATM   13  C   LIG     1      16.716  35.582  22.121  1.00  0.00     0.045 A 
HETATM   14 CL   LIG     1      17.561  36.191  23.540  1.00  0.00    -0.083 Cl
ENDBRANCH   7   8
TORSDOF 1
ENDMDL
MODEL 5
REMARK VINA RESULT:      -6.3      2.385      4.637
REMARK  1 active torsions:
REMARK  status: ('A' for Active; 'I' for Inactive)
REMARK    1  A    between atoms: C_7  and  C_8 
ROOT
HETATM    1 CL   LIG     1      17.089  35.051  23.552  1.00  0.00    -0.083 Cl
HETATM    2  C   LIG     1      16.501  34.880  21.901  1.00  0.00     0.045 A 
HETATM    3  C   LIG     1      15.891  33.677  21.526  1.00  0.00     0.024 A 
HETATM    4  C   LIG     1      15.441  33.493  20.216  1.00  0.00     0.002 A 
HETATM    5  C   LIG     1      15.603  34.508  19.272  1.00  0.00     0.001 A 
HETATM    6  C   LIG     1      16.211  35.713  19.636  1.00  0.00     0.014 A 
HETATM    7  C   LIG     1      16.656  35.912  20.953  1.00  0.00    -0.003 A 
ENDROOT
BRANCH   7   8
HETATM    8  C   LIG     1      17.293  37.195  21.311  1.00  0.00    -0.003 A 
HETATM    9  C   LIG     1      16.717  37.988  22.317  1.00  0.00     0.014 A 
HETATM   10  C   LIG     1      17.298  39.207  22.673  1.00  0.00     0.001 A 
HETATM   11  C   LIG     1      18.461  39.641  22.033  1.00  0.00     0.002 A 
HETATM   12  C   LIG     1      19.048  38.855  21.040  1.00  0.00     0.024 A 
HETATM   13  C   LIG     1      18.473  37.631  20.675  1.00  0.00     0.045 A 
HETATM   14 CL   LIG     1      19.270  36.655  19.446  1.00  0.00    -0.083 Cl
ENDBRANCH   7   8
TORSDOF 1
ENDMDL
MODEL 6
REMARK VINA RESULT:      -6.3      2.281      5.271
REMARK  1 active torsions:
REMARK  status: ('A' for Active; 'I' for Inactive)
REMARK    1  A    between atoms: C_7  and  C_8 
ROOT
HETATM    1 CL   LIG     1      17.731  35.383  21.133  1.00  0.00    -0.083 Cl
HETATM    2  C   LIG     1      18.181  36.982  20.549  1.00  0.00     0.045 A 
HETATM    3  C   LIG     1      18.510  37.135  19.196  1.00  0.00     0.024 A 
HETATM    4  C   LIG     1      18.902  38.382  18.703  1.00  0.00     0.002 A 
HETATM    5  C   LIG     1      18.973  39.482  19.560  1.00  0.00     0.001 A 
HETATM    6  C   LIG     1      18.646  39.339  20.911  1.00  0.00     0.014 A 
HETATM    7  C   LIG     1      18.240  38.093  21.415  1.00  0.00    -0.003 A 
ENDROOT
BRANCH   7   8
HETATM    8  C   LIG     1      17.899  37.971  22.846  1.00  0.00    -0.003 A 
HETATM    9  C   LIG     1      18.897  38.189  23.809  1.00  0.00     0.014 A 
HETATM   10  C   LIG     1      18.601  38.076  25.169  1.00  0.00     0.001 A 
HETATM   11  C   LIG     1      17.305  37.752  25.579  1.00  0.00     0.002 A 
HETATM   12  C   LIG     1      16.302  37.545  24.629  1.00  0.00     0.024 A 
HETATM   13  C   LIG     1      16.589  37.655  23.263  1.00  0.00     0.045 A 
HETATM   14 CL   LIG     1      15.285  37.425  22.103  1.00  0.00    -0.083 Cl
ENDBRANCH   7   8
TORSDOF 1
ENDMDL
MODEL 7
REMARK VINA RESULT:      -6.3      2.265      3.239
REMARK  1 active torsions:
REMARK  status: ('A' for Active; 'I' for Inactive)
REMARK    1  A    between atoms: C_7  and  C_8 
ROOT
HETATM    1 CL   LIG     1      15.291  37.307  22.085  1.00  0.00    -0.083 Cl
HETATM    2  C   LIG     1      16.586  37.596  23.243  1.00  0.00     0.045 A 
HETATM    3  C   LIG     1      16.300  37.491  24.610  1.00  0.00     0.024 A 
HETATM    4  C   LIG     1      17.294  37.744  25.559  1.00  0.00     0.002 A 
HETATM    5  C   LIG     1      18.577  38.109  25.147  1.00  0.00     0.001 A 
HETATM    6  C   LIG     1      18.872  38.216  23.785  1.00  0.00     0.014 A 
HETATM    7  C   LIG     1      17.884  37.952  22.824  1.00  0.00    -0.003 A 
ENDROOT
BRANCH   7   8
HETATM    8  C   LIG     1      18.223  38.070  21.391  1.00  0.00    -0.003 A 
HETATM    9  C   LIG     1      18.611  39.319  20.880  1.00  0.00     0.014 A 
HETATM   10  C   LIG     1      18.933  39.458  19.528  1.00  0.00     0.001 A 
HETATM   11  C   LIG     1      18.878  38.352  18.678  1.00  0.00     0.002 A 
HETATM   12  C   LIG     1      18.505  37.102  19.179  1.00  0.00     0.024 A 
HETATM   13  C   LIG     1      18.179  36.953  20.533  1.00  0.00     0.045 A 
HETATM   14 CL   LIG     1      17.752  35.352  21.128  1.00  0.00    -0.083 Cl
ENDBRANCH   7   8
TORSDOF 1
ENDMDL
MODEL 8
REMARK VINA RESULT:      -6.1      1.430      4.854
REMARK  1 active torsions:
REMARK  status: ('A' for Active; 'I' for Inactive)
REMARK    1  A    between atoms: C_7  and  C_8 
ROOT
HETATM    1 CL   LIG     1      18.492  37.437  20.604  1.00  0.00    -0.083 Cl
HETATM    2  C   LIG     1      17.154  36.309  20.794  1.00  0.00     0.045 A 
HETATM    3  C   LIG     1      16.774  35.526  19.696  1.00  0.00     0.024 A 
HETATM    4  C   LIG     1      15.697  34.643  19.800  1.00  0.00     0.002 A 
HETATM    5  C   LIG     1      14.989  34.541  21.000  1.00  0.00     0.001 A 
HETATM    6  C   LIG     1      15.361  35.317  22.100  1.00  0.00     0.014 A 
HETATM    7  C   LIG     1      16.449  36.199  22.010  1.00  0.00    -0.003 A 
ENDROOT
BRANCH   7   8
HETATM    8  C   LIG     1      16.822  37.006  23.189  1.00  0.00    -0.003 A 
HETATM    9  C   LIG     1      16.728  38.406  23.118  1.00  0.00     0.014 A 
HETATM   10  C   LIG     1      17.077  39.192  24.218  1.00  0.00     0.001 A 
HETATM   11  C   LIG     1      17.516  38.589  25.399  1.00  0.00     0.002 A 
HETATM   12  C   LIG     1      17.601  37.197  25.484  1.00  0.00     0.024 A 
HETATM   13  C   LIG     1      17.254  36.400  24.386  1.00  0.00     0.045 A 
HETATM   14 CL   LIG     1      17.340  34.649  24.552  1.00  0.00    -0.083 Cl
ENDBRANCH   7   8
TORSDOF 1
ENDMDL
MODEL 9
REMARK VINA RESULT:      -6.0      4.956      7.157
REMARK  1 active torsions:
REMARK  status: ('A' for Active; 'I' for Inactive)
REMARK    1  A    between atoms: C_7  and  C_8 
ROOT
HETATM    1 CL   LIG     1      14.712  34.760  16.466  1.00  0.00    -0.083 Cl
HETATM    2  C   LIG     1      15.035  33.841  17.933  1.00  0.00     0.045 A 
HETATM    3  C   LIG     1      15.402  34.535  19.093  1.00  0.00     0.024 A 
HETATM    4  C   LIG     1      15.697  33.837  20.267  1.00  0.00     0.002 A 
HETATM    5  C   LIG     1      15.632  32.442  20.287  1.00  0.00     0.001 A 
HETATM    6  C   LIG     1      15.266  31.742  19.135  1.00  0.00     0.014 A 
HETATM    7  C   LIG     1      14.957  32.433  17.953  1.00  0.00    -0.003 A 
ENDROOT
BRANCH   7   8
HETATM    8  C   LIG     1      14.572  31.669  16.750  1.00  0.00    -0.003 A 
HETATM    9  C   LIG     1      13.301  31.074  16.694  1.00  0.00     0.014 A 
HETATM   10  C   LIG     1      12.913  30.343  15.569  1.00  0.00     0.001 A 
HETATM   11  C   LIG     1      13.787  30.206  14.489  1.00  0.00     0.002 A 
HETATM   12  C   LIG     1      15.049  30.804  14.529  1.00  0.00     0.024 A 
HETATM   13  C   LIG     1      15.448  31.538  15.653  1.00  0.00     0.045 A 
HETATM   14 CL   LIG     1      17.031  32.307  15.643  1.00  0.00    -0.083 Cl
ENDBRANCH   7   8
TORSDOF 1
ENDMDL
MODEL 10
REMARK VINA RESULT:      -5.8      2.649      4.510
REMARK  1 active torsions:
REMARK  status: ('A' for Active; 'I' for Inactive)
REMARK    1  A    between atoms: C_7  and  C_8 
ROOT
HETATM    1 CL   LIG     1      15.086  37.625  23.192  1.00  0.00    -0.083 Cl
HETATM    2  C   LIG     1      16.667  38.295  22.806  1.00  0.00     0.045 A 
HETATM    3  C   LIG     1      16.762  39.249  21.784  1.00  0.00     0.024 A 
HETATM    4  C   LIG     1      18.005  39.779  21.429  1.00  0.00     0.002 A 
HETATM    5  C   LIG     1      19.160  39.356  22.088  1.00  0.00     0.001 A 
HETATM    6  C   LIG     1      19.076  38.405  23.109  1.00  0.00     0.014 A 
HETATM    7  C   LIG     1      17.831  37.874  23.482  1.00  0.00    -0.003 A 
ENDROOT
BRANCH   7   8
HETATM    8  C   LIG     1      17.770  36.873  24.565  1.00  0.00    -0.003 A 
HETATM    9  C   LIG     1      18.078  37.264  25.877  1.00  0.00     0.014 A 
HETATM   10  C   LIG     1      18.031  36.336  26.920  1.00  0.00     0.001 A 
HETATM   11  C   LIG     1      17.670  35.011  26.661  1.00  0.00     0.002 A 
HETATM   12  C   LIG     1      17.350  34.615  25.361  1.00  0.00     0.024 A 
HETATM   13  C   LIG     1      17.395  35.538  24.309  1.00  0.00     0.045 A 
HETATM   14 CL   LIG     1      16.946  35.002  22.693  1.00  0.00    -0.083 Cl
ENDBRANCH   7   8
TORSDOF 1
ENDMDL
MODEL 11
REMARK VINA RESULT:      -5.6      1.480      2.083
REMARK  1 active torsions:
REMARK  status: ('A' for Active; 'I' for Inactive)
REMARK    1  A    between atoms: C_7  and  C_8 
ROOT
HETATM    1 CL   LIG     1      16.918  38.957  22.776  1.00  0.00    -0.083 Cl
HETATM    2  C   LIG     1      17.088  37.466  23.698  1.00  0.00     0.045 A 
HETATM    3  C   LIG     1      17.127  37.541  25.096  1.00  0.00     0.024 A 
HETATM    4  C   LIG     1      17.293  36.383  25.860  1.00  0.00     0.002 A 
HETATM    5  C   LIG     1      17.427  35.144  25.230  1.00  0.00     0.001 A 
HETATM    6  C   LIG     1      17.390  35.059  23.836  1.00  0.00     0.014 A 
HETATM    7  C   LIG     1      17.212  36.215  23.060  1.00  0.00    -0.003 A 
ENDROOT
BRANCH   7   8
HETATM    8  C   LIG     1      17.174  36.096  21.589  1.00  0.00    -0.003 A 
HETATM    9  C   LIG     1      18.195  36.688  20.828  1.00  0.00     0.014 A 
HETATM   10  C   LIG     1      18.181  36.593  19.434  1.00  0.00     0.001 A 
HETATM   11  C   LIG     1      17.153  35.901  18.790  1.00  0.00     0.002 A 
HETATM   12  C   LIG     1      16.139  35.298  19.539  1.00  0.00     0.024 A 
HETATM   13  C   LIG     1      16.144  35.389  20.936  1.00  0.00     0.045 A 
HETATM   14 CL   LIG     1      14.867  34.580  21.840  1.00  0.00    -0.083 Cl
ENDBRANCH   7   8
TORSDOF 1
ENDMDL
MODEL 12
REMARK VINA RESULT:      -5.6      1.472      4.718
REMARK  1 active torsions:
REMARK  status: ('A' for Active; 'I' for Inactive)
REMARK    1  A    between atoms: C_7  and  C_8 
ROOT
HETATM    1 CL   LIG     1      14.866  34.572  21.932  1.00  0.00    -0.083 Cl
HETATM    2  C   LIG     1      16.131  35.396  21.025  1.00  0.00     0.045 A 
HETATM    3  C   LIG     1      16.113  35.321  19.627  1.00  0.00     0.024 A 
HETATM    4  C   LIG     1      17.118  35.935  18.875  1.00  0.00     0.002 A 
HETATM    5  C   LIG     1      18.150  36.622  19.517  1.00  0.00     0.001 A 
HETATM    6  C   LIG     1      18.177  36.702  20.911  1.00  0.00     0.014 A 
HETATM    7  C   LIG     1      17.166  36.099  21.676  1.00  0.00    -0.003 A 
ENDROOT
BRANCH   7   8
HETATM    8  C   LIG     1      17.218  36.200  23.148  1.00  0.00    -0.003 A 
HETATM    9  C   LIG     1      17.382  35.033  23.910  1.00  0.00     0.014 A 
HETATM   10  C   LIG     1      17.431  35.101  25.304  1.00  0.00     0.001 A 
HETATM   11  C   LIG     1      17.324  36.336  25.948  1.00  0.00     0.002 A 
HETATM   12  C   LIG     1      17.173  37.505  25.198  1.00  0.00     0.024 A 
HETATM   13  C   LIG     1      17.122  37.447  23.801  1.00  0.00     0.045 A 
HETATM   14 CL   LIG     1      16.970  38.950  22.896  1.00  0.00    -0.083 Cl
ENDBRANCH   7   8
TORSDOF 1
ENDMDL
MODEL 13
REMARK VINA RESULT:      -5.4     16.558     17.470
REMARK  1 active torsions:
REMARK  status: ('A' for Active; 'I' for Inactive)
REMARK    1  A    between atoms: C_7  and  C_8 
ROOT
HETATM    1 CL   LIG     1      27.608  27.195  36.580  1.00  0.00    -0.083 Cl
HETATM    2  C   LIG     1      26.922  28.814  36.491  1.00  0.00     0.045 A 
HETATM    3  C   LIG     1      26.536  29.447  37.679  1.00  0.00     0.024 A 
HETATM    4  C   LIG     1      25.959  30.719  37.645  1.00  0.00     0.002 A 
HETATM    5  C   LIG     1      25.759  31.363  36.423  1.00  0.00     0.001 A 
HETATM    6  C   LIG     1      26.141  30.740  35.232  1.00  0.00     0.014 A 
HETATM    7  C   LIG     1      26.733  29.467  35.255  1.00  0.00    -0.003 A 
ENDROOT
BRANCH   7   8
HETATM    8  C   LIG     1      27.129  28.833  33.983  1.00  0.00    -0.003 A 
HETATM    9  C   LIG     1      26.269  27.897  33.387  1.00  0.00     0.014 A 
HETATM   10  C   LIG     1      26.622  27.280  32.184  1.00  0.00     0.001 A 
HETATM   11  C   LIG     1      27.832  27.598  31.564  1.00  0.00     0.002 A 
HETATM   12  C   LIG     1      28.689  28.537  32.142  1.00  0.00     0.024 A 
HETATM   13  C   LIG     1      28.345  29.160  33.348  1.00  0.00     0.045 A 
HETATM   14 CL   LIG     1      29.438  30.366  34.019  1.00  0.00    -0.083 Cl
ENDBRANCH   7   8
TORSDOF 1
ENDMDL
MODEL 14
REMARK VINA RESULT:      -5.3     16.523     17.926
REMARK  1 active torsions:
REMARK  status: ('A' for Active; 'I' for Inactive)
REMARK    1  A    between atoms: C_7  and  C_8 
ROOT
HETATM    1 CL   LIG     1      29.539  30.183  34.008  1.00  0.00    -0.083 Cl
HETATM    2  C   LIG     1      28.381  29.049  33.321  1.00  0.00     0.045 A 
HETATM    3  C   LIG     1      28.710  28.392  32.128  1.00  0.00     0.024 A 
HETATM    4  C   LIG     1      27.803  27.510  31.536  1.00  0.00     0.002 A 
HETATM    5  C   LIG     1      26.559  27.283  32.130  1.00  0.00     0.001 A 
HETATM    6  C   LIG     1      26.222  27.934  33.319  1.00  0.00     0.014 A 
HETATM    7  C   LIG     1      27.130  28.814  33.928  1.00  0.00    -0.003 A 
ENDROOT
BRANCH   7   8
HETATM    8  C   LIG     1      26.749  29.486  35.186  1.00  0.00    -0.003 A 
HETATM    9  C   LIG     1      26.177  30.767  35.132  1.00  0.00     0.014 A 
HETATM   10  C   LIG     1      25.810  31.426  36.307  1.00  0.00     0.001 A 
HETATM   11  C   LIG     1      26.005  30.810  37.545  1.00  0.00     0.002 A 
HETATM   12  C   LIG     1      26.563  29.531  37.610  1.00  0.00     0.024 A 
HETATM   13  C   LIG     1      26.934  28.862  36.437  1.00  0.00     0.045 A 
HETATM   14 CL   LIG     1      27.596  27.236  36.564  1.00  0.00    -0.083 Cl
ENDBRANCH   7   8
TORSDOF 1
ENDMDL
MODEL 15
REMARK VINA RESULT:      -5.3      5.482      8.867
REMARK  1 active torsions:
REMARK  status: ('A' for Active; 'I' for Inactive)
REMARK    1  A    between atoms: C_7  and  C_8 
ROOT
HETATM    1 CL   LIG     1      12.038  31.714  17.102  1.00  0.00    -0.083 Cl
HETATM    2  C   LIG     1      13.390  31.200  16.098  1.00  0.00     0.045 A 
HETATM    3  C   LIG     1      13.152  30.276  15.072  1.00  0.00     0.024 A 
HETATM    4  C   LIG     1      14.206  29.821  14.276  1.00  0.00     0.002 A 
HETATM    5  C   LIG     1      15.504  30.282  14.504  1.00  0.00     0.001 A 
HETATM    6  C   LIG     1      15.751  31.204  15.524  1.00  0.00     0.014 A 
HETATM    7  C   LIG     1      14.698  31.676  16.323  1.00  0.00    -0.003 A 
ENDROOT
BRANCH   7   8
HETATM    8  C   LIG     1      14.986  32.652  17.393  1.00  0.00    -0.003 A 
HETATM    9  C   LIG     1      15.232  33.991  17.050  1.00  0.00     0.014 A 
HETATM   10  C   LIG     1      15.510  34.933  18.043  1.00  0.00     0.001 A 
HETATM   11  C   LIG     1      15.539  34.548  19.385  1.00  0.00     0.002 A 
HETATM   12  C   LIG     1      15.284  33.220  19.737  1.00  0.00     0.024 A 
HETATM   13  C   LIG     1      15.005  32.268  18.749  1.00  0.00     0.045 A 
HETATM   14 CL   LIG     1      14.650  30.616  19.243  1.00  0.00    -0.083 Cl
ENDBRANCH   7   8
TORSDOF 1
ENDMDL
MODEL 16
REMARK VINA RESULT:      -5.3      2.242      4.671
REMARK  1 active torsions:
REMARK  status: ('A' for Active; 'I' for Inactive)
REMARK    1  A    between atoms: C_7  and  C_8 
ROOT
HETATM    1 CL   LIG     1      18.090  40.066  22.318  1.00  0.00    -0.083 Cl
HETATM    2  C   LIG     1      18.349  38.902  21.023  1.00  0.00     0.045 A 
HETATM    3  C   LIG     1      18.715  39.375  19.757  1.00  0.00     0.024 A 
HETATM    4  C   LIG     1      18.897  38.483  18.697  1.00  0.00     0.002 A 
HETATM    5  C   LIG     1      18.709  37.114  18.895  1.00  0.00     0.001 A 
HETATM    6  C   LIG     1      18.344  36.632  20.155  1.00  0.00     0.014 A 
HETATM    7  C   LIG     1      18.170  37.518  21.229  1.00  0.00    -0.003 A 
ENDROOT
BRANCH   7   8
HETATM    8  C   LIG     1      17.786  36.982  22.550  1.00  0.00    -0.003 A 
HETATM    9  C   LIG     1      18.074  37.731  23.703  1.00  0.00     0.014 A 
HETATM   10  C   LIG     1      17.724  37.245  24.965  1.00  0.00     0.001 A 
HETATM   11  C   LIG     1      17.079  36.012  25.086  1.00  0.00     0.002 A 
HETATM   12  C   LIG     1      16.778  35.265  23.944  1.00  0.00     0.024 A 
HETATM   13  C   LIG     1      17.125  35.743  22.675  1.00  0.00     0.045 A 
HETATM   14 CL   LIG     1      16.690  34.786  21.262  1.00  0.00    -0.083 Cl
ENDBRANCH   7   8
TORSDOF 1
ENDMDL
MODEL 17
REMARK VINA RESULT:      -5.0     16.763     17.552
REMARK  1 active torsions:
REMARK  status: ('A' for Active; 'I' for Inactive)
REMARK    1  A    between atoms: C_7  and  C_8 
ROOT
HETATM    1 CL   LIG     1      30.369  31.135  36.157  1.00  0.00    -0.083 Cl
HETATM    2  C   LIG     1      28.614  31.276  36.198  1.00  0.00     0.045 A 
HETATM    3  C   LIG     1      27.995  31.615  37.408  1.00  0.00     0.024 A 
HETATM    4  C   LIG     1      26.603  31.705  37.487  1.00  0.00     0.002 A 
HETATM    5  C   LIG     1      25.821  31.451  36.358  1.00  0.00     0.001 A 
HETATM    6  C   LIG     1      26.429  31.112  35.146  1.00  0.00     0.014 A 
HETATM    7  C   LIG     1      27.828  31.030  35.054  1.00  0.00    -0.003 A 
ENDROOT
BRANCH   7   8
HETATM    8  C   LIG     1      28.444  30.673  33.761  1.00  0.00    -0.003 A 
HETATM    9  C   LIG     1      28.933  31.693  32.929  1.00  0.00     0.014 A 
HETATM   10  C   LIG     1      29.518  31.382  31.700  1.00  0.00     0.001 A 
HETATM   11  C   LIG     1      29.626  30.050  31.294  1.00  0.00     0.002 A 
HETATM   12  C   LIG     1      29.155  29.026  32.120  1.00  0.00     0.024 A 
HETATM   13  C   LIG     1      28.566  29.328  33.353  1.00  0.00     0.045 A 
HETATM   14 CL   LIG     1      28.022  28.004  34.378  1.00  0.00    -0.083 Cl
ENDBRANCH   7   8
TORSDOF 1
ENDMDL
MODEL 18
REMARK VINA RESULT:      -5.0     16.001     17.390
REMARK  1 active torsions:
REMARK  status: ('A' for Active; 'I' for Inactive)
REMARK    1  A    between atoms: C_7  and  C_8 
ROOT
HETATM    1 CL   LIG     1      27.325  21.051  17.497  1.00  0.00    -0.083 Cl
HETATM    2  C   LIG     1      25.590  20.996  17.795  1.00  0.00     0.045 A 
HETATM    3  C   LIG     1      24.858  19.910  17.299  1.00  0.00     0.024 A 
HETATM    4  C   LIG     1      23.475  19.848  17.488  1.00  0.00     0.002 A 
HETATM    5  C   LIG     1      22.815  20.873  18.168  1.00  0.00     0.001 A 
HETATM    6  C   LIG     1      23.537  21.961  18.667  1.00  0.00     0.014 A 
HETATM    7  C   LIG     1      24.929  22.027  18.492  1.00  0.00    -0.003 A 
ENDROOT
BRANCH   7   8
HETATM    8  C   LIG     1      25.668  23.186  19.031  1.00  0.00    -0.003 A 
HETATM    9  C   LIG     1      25.810  24.336  18.238  1.00  0.00     0.014 A 
HETATM   10  C   LIG     1      26.508  25.445  18.722  1.00  0.00     0.001 A 
HETATM   11  C   LIG     1      27.061  25.418  20.004  1.00  0.00     0.002 A 
HETATM   12  C   LIG     1      26.914  24.284  20.806  1.00  0.00     0.024 A 
HETATM   13  C   LIG     1      26.218  23.167  20.329  1.00  0.00     0.045 A 
HETATM   14 CL   LIG     1      26.024  21.774  21.389  1.00  0.00    -0.083 Cl
ENDBRANCH   7   8
TORSDOF 1
ENDMDL
MODEL 19
REMARK VINA RESULT:      -5.0     16.011     16.933
REMARK  1 active torsions:
REMARK  status: ('A' for Active; 'I' for Inactive)
REMARK    1  A    between atoms: C_7  and  C_8 
ROOT
HETATM    1 CL   LIG     1      26.050  21.798  21.398  1.00  0.00    -0.083 Cl
HETATM    2  C   LIG     1      26.242  23.185  20.331  1.00  0.00     0.045 A 
HETATM    3  C   LIG     1      26.933  24.307  20.805  1.00  0.00     0.024 A 
HETATM    4  C   LIG     1      27.078  25.438  19.997  1.00  0.00     0.002 A 
HETATM    5  C   LIG     1      26.528  25.456  18.714  1.00  0.00     0.001 A 
HETATM    6  C   LIG     1      25.837  24.341  18.232  1.00  0.00     0.014 A 
HETATM    7  C   LIG     1      25.695  23.195  19.031  1.00  0.00    -0.003 A 
ENDROOT
BRANCH   7   8
HETATM    8  C   LIG     1      24.962  22.031  18.497  1.00  0.00    -0.003 A 
HETATM    9  C   LIG     1      23.573  21.953  18.680  1.00  0.00     0.014 A 
HETATM   10  C   LIG     1      22.856  20.860  18.187  1.00  0.00     0.001 A 
HETATM   11  C   LIG     1      23.520  19.840  17.501  1.00  0.00     0.002 A 
HETATM   12  C   LIG     1      24.900  19.914  17.303  1.00  0.00     0.024 A 
HETATM   13  C   LIG     1      25.628  21.005  17.794  1.00  0.00     0.045 A 
HETATM   14 CL   LIG     1      27.360  21.075  17.486  1.00  0.00    -0.083 Cl
ENDBRANCH   7   8
TORSDOF 1
ENDMDL
MODEL 20
REMARK VINA RESULT:      -5.0     15.445     16.339
REMARK  1 active torsions:
REMARK  status: ('A' for Active; 'I' for Inactive)
REMARK    1  A    between atoms: C_7  and  C_8 
ROOT
HETATM    1 CL   LIG     1      26.974  21.871  21.679  1.00  0.00    -0.083 Cl
HETATM    2  C   LIG     1      26.956  23.392  20.792  1.00  0.00     0.045 A 
HETATM    3  C   LIG     1      27.875  24.387  21.146  1.00  0.00     0.024 A 
HETATM    4  C   LIG     1      27.870  25.619  20.486  1.00  0.00     0.002 A 
HETATM    5  C   LIG     1      26.941  25.864  19.473  1.00  0.00     0.001 A 
HETATM    6  C   LIG     1      26.020  24.878  19.112  1.00  0.00     0.014 A 
HETATM    7  C   LIG     1      26.025  23.633  19.761  1.00  0.00    -0.003 A 
ENDROOT
BRANCH   7   8
HETATM    8  C   LIG     1      25.042  22.607  19.359  1.00  0.00    -0.003 A 
HETATM    9  C   LIG     1      25.298  21.821  18.224  1.00  0.00     0.014 A 
HETATM   10  C   LIG     1      24.383  20.846  17.821  1.00  0.00     0.001 A 
HETATM   11  C   LIG     1      23.209  20.643  18.550  1.00  0.00     0.002 A 
HETATM   12  C   LIG     1      22.951  21.411  19.688  1.00  0.00     0.024 A 
HETATM   13  C   LIG     1      23.861  22.392  20.100  1.00  0.00     0.045 A 
HETATM   14 CL   LIG     1      23.513  23.310  21.562  1.00  0.00    -0.083 Cl
ENDBRANCH   7   8
TORSDOF 1
ENDMDL
