REMARK  1 active torsions:
REMARK  status: ('A' for Active; 'I' for Inactive)
REMARK    1  A    between atoms: C_7  and  C_8 
ROOT
HETATM    1 CL   LIG     1       0.679  -1.693   2.178  1.00  0.00    -0.083 Cl
HETATM    2  C   LIG     1       1.472  -0.653   0.999  1.00  0.00     0.045 A 
HETATM    3  C   LIG     1       2.866  -0.526   1.045  1.00  0.00     0.024 A 
HETATM    4  C   LIG     1       3.527   0.315   0.146  1.00  0.00     0.002 A 
HETATM    5  C   LIG     1       2.798   1.038  -0.800  1.00  0.00     0.001 A 
HETATM    6  C   LIG     1       1.407   0.918  -0.854  1.00  0.00     0.014 A 
HETATM    7  C   LIG     1       0.734   0.067   0.037  1.00  0.00    -0.003 A 
ENDROOT
BRANCH   7   8
HETATM    8  C   LIG     1      -0.736  -0.043  -0.043  1.00  0.00    -0.003 A 
HETATM    9  C   LIG     1      -1.528   1.030   0.396  1.00  0.00     0.014 A 
HETATM   10  C   LIG     1      -2.921   0.950   0.334  1.00  0.00     0.001 A 
HETATM   11  C   LIG     1      -3.534  -0.198  -0.173  1.00  0.00     0.002 A 
HETATM   12  C   LIG     1      -2.755  -1.266  -0.624  1.00  0.00     0.024 A 
HETATM   13  C   LIG     1      -1.358  -1.196  -0.565  1.00  0.00     0.045 A 
HETATM   14 CL   LIG     1      -0.416  -2.550  -1.181  1.00  0.00    -0.083 Cl
ENDBRANCH   7   8
TORSDOF 1
