MODEL 1
REMARK VINA RESULT:      -7.3      0.000      0.000
REMARK  4 active torsions:
REMARK  status: ('A' for Active; 'I' for Inactive)
REMARK    1  A    between atoms: C_2  and  C_5 
REMARK    2  A    between atoms: C_2  and  O_3 
REMARK    3  A    between atoms: C_10  and  C_11 
REMARK    4  A    between atoms: C_11  and  O_12 
ROOT
HETATM    1  C   LIG     1      17.876  37.016  20.989  1.00  0.00     0.055 A 
HETATM    2  C   LIG     1      18.671  36.823  19.844  1.00  0.00     0.018 A 
HETATM    3  C   LIG     1      19.431  37.868  19.318  1.00  0.00     0.001 A 
HETATM    4  C   LIG     1      19.410  39.121  19.926  1.00  0.00     0.001 A 
HETATM    5  C   LIG     1      18.647  39.329  21.075  1.00  0.00     0.018 A 
HETATM    6  C   LIG     1      17.891  38.284  21.635  1.00  0.00     0.055 A 
ENDROOT
BRANCH   1   7
HETATM    7  C   LIG     1      17.008  35.898  21.425  1.00  0.00     0.294 C 
HETATM    8  O   LIG     1      17.169  35.370  22.560  1.00  0.00    -0.259 OA
BRANCH   7   9
HETATM    9  O   LIG     1      15.968  35.470  20.593  1.00  0.00    -0.322 OA
HETATM   10  C   LIG     1      15.626  34.097  20.438  1.00  0.00     0.213 C 
ENDBRANCH   7   9
ENDBRANCH   1   7
BRANCH   6  11
HETATM   11  C   LIG     1      17.196  38.543  22.917  1.00  0.00     0.294 C 
HETATM   12  O   LIG     1      15.995  38.932  22.924  1.00  0.00    -0.259 OA
BRANCH  11  13
HETATM   13  O   LIG     1      17.861  38.299  24.124  1.00  0.00    -0.322 OA
HETATM   14  C   LIG     1      17.182  37.893  25.305  1.00  0.00     0.213 C 
ENDBRANCH  11  13
ENDBRANCH   6  11
TORSDOF 4
ENDMDL
MODEL 2
REMARK VINA RESULT:      -7.3      0.024      3.782
REMARK  4 active torsions:
REMARK  status: ('A' for Active; 'I' for Inactive)
REMARK    1  A    between atoms: C_2  and  C_5 
REMARK    2  A    between atoms: C_2  and  O_3 
REMARK    3  A    between atoms: C_10  and  C_11 
REMARK    4  A    between atoms: C_11  and  O_12 
ROOT
HETATM    1  C   LIG     1      17.898  38.278  21.631  1.00  0.00     0.055 A 
HETATM    2  C   LIG     1      18.655  39.327  21.079  1.00  0.00     0.018 A 
HETATM    3  C   LIG     1      19.420  39.127  19.930  1.00  0.00     0.001 A 
HETATM    4  C   LIG     1      19.441  37.878  19.313  1.00  0.00     0.001 A 
HETATM    5  C   LIG     1      18.680  36.829  19.830  1.00  0.00     0.018 A 
HETATM    6  C   LIG     1      17.884  37.015  20.975  1.00  0.00     0.055 A 
ENDROOT
BRANCH   1   7
HETATM    7  C   LIG     1      17.202  38.528  22.914  1.00  0.00     0.294 C 
HETATM    8  O   LIG     1      15.993  38.891  22.925  1.00  0.00    -0.259 OA
BRANCH   7   9
HETATM    9  O   LIG     1      17.877  38.301  24.119  1.00  0.00    -0.322 OA
HETATM   10  C   LIG     1      17.206  37.914  25.312  1.00  0.00     0.213 C 
ENDBRANCH   7   9
ENDBRANCH   1   7
BRANCH   6  11
HETATM   11  C   LIG     1      17.015  35.894  21.402  1.00  0.00     0.294 C 
HETATM   12  O   LIG     1      17.175  35.359  22.534  1.00  0.00    -0.259 OA
BRANCH  11  13
HETATM   13  O   LIG     1      15.978  35.469  20.565  1.00  0.00    -0.322 OA
HETATM   14  C   LIG     1      15.634  34.098  20.406  1.00  0.00     0.213 C 
ENDBRANCH  11  13
ENDBRANCH   6  11
TORSDOF 4
ENDMDL
MODEL 3
REMARK VINA RESULT:      -7.3      1.690      3.841
REMARK  4 active torsions:
REMARK  status: ('A' for Active; 'I' for Inactive)
REMARK    1  A    between atoms: C_2  and  C_5 
REMARK    2  A    between atoms: C_2  and  O_3 
REMARK    3  A    between atoms: C_10  and  C_11 
REMARK    4  A    between atoms: C_11  and  O_12 
ROOT
HETATM    1  C   LIG     1      17.140  35.825  23.844  1.00  0.00     0.055 A 
HETATM    2  C   LIG     1      17.391  34.839  24.815  1.00  0.00     0.018 A 
HETATM    3  C   LIG     1      17.841  35.189  26.088  1.00  0.00     0.001 A 
HETATM    4  C   LIG     1      18.049  36.528  26.412  1.00  0.00     0.001 A 
HETATM    5  C   LIG     1      17.784  37.524  25.472  1.00  0.00     0.018 A 
HETATM    6  C   LIG     1      17.308  37.196  24.190  1.00  0.00     0.055 A 
ENDROOT
BRANCH   1   7
HETATM    7  C   LIG     1      16.774  35.377  22.481  1.00  0.00     0.294 C 
HETATM    8  O   LIG     1      17.601  35.477  21.533  1.00  0.00    -0.259 OA
BRANCH   7   9
HETATM    9  O   LIG     1      15.524  34.787  22.262  1.00  0.00    -0.322 OA
HETATM   10  C   LIG     1      15.195  34.112  21.054  1.00  0.00     0.213 C 
ENDBRANCH   7   9
ENDBRANCH   1   7
BRANCH   6  11
HETATM   11  C   LIG     1      16.941  38.308  23.283  1.00  0.00     0.294 C 
HETATM   12  O   LIG     1      15.731  38.636  23.135  1.00  0.00    -0.259 OA
BRANCH  11  13
HETATM   13  O   LIG     1      17.949  39.030  22.636  1.00  0.00    -0.322 OA
HETATM   14  C   LIG     1      18.169  38.952  21.233  1.00  0.00     0.213 C 
ENDBRANCH  11  13
ENDBRANCH   6  11
TORSDOF 4
ENDMDL
MODEL 4
REMARK VINA RESULT:      -7.3      1.690      5.061
REMARK  4 active torsions:
REMARK  status: ('A' for Active; 'I' for Inactive)
REMARK    1  A    between atoms: C_2  and  C_5 
REMARK    2  A    between atoms: C_2  and  O_3 
REMARK    3  A    between atoms: C_10  and  C_11 
REMARK    4  A    between atoms: C_11  and  O_12 
ROOT
HETATM    1  C   LIG     1      17.247  37.193  24.193  1.00  0.00     0.055 A 
HETATM    2  C   LIG     1      17.719  37.542  25.471  1.00  0.00     0.018 A 
HETATM    3  C   LIG     1      18.033  36.558  26.409  1.00  0.00     0.001 A 
HETATM    4  C   LIG     1      17.881  35.212  26.087  1.00  0.00     0.001 A 
HETATM    5  C   LIG     1      17.436  34.842  24.817  1.00  0.00     0.018 A 
HETATM    6  C   LIG     1      17.135  35.817  23.848  1.00  0.00     0.055 A 
ENDROOT
BRANCH   1   7
HETATM    7  C   LIG     1      16.824  38.287  23.289  1.00  0.00     0.294 C 
HETATM    8  O   LIG     1      15.599  38.532  23.112  1.00  0.00    -0.259 OA
BRANCH   7   9
HETATM    9  O   LIG     1      17.795  39.088  22.676  1.00  0.00    -0.322 OA
HETATM   10  C   LIG     1      18.244  38.864  21.344  1.00  0.00     0.213 C 
ENDBRANCH   7   9
ENDBRANCH   1   7
BRANCH   6  11
HETATM   11  C   LIG     1      16.778  35.352  22.488  1.00  0.00     0.294 C 
HETATM   12  O   LIG     1      17.613  35.438  21.545  1.00  0.00    -0.259 OA
BRANCH  11  13
HETATM   13  O   LIG     1      15.528  34.762  22.268  1.00  0.00    -0.322 OA
HETATM   14  C   LIG     1      15.191  34.115  21.047  1.00  0.00     0.213 C 
ENDBRANCH  11  13
ENDBRANCH   6  11
TORSDOF 4
ENDMDL
MODEL 5
REMARK VINA RESULT:      -6.8      6.597      8.874
REMARK  4 active torsions:
REMARK  status: ('A' for Active; 'I' for Inactive)
REMARK    1  A    between atoms: C_2  and  C_5 
REMARK    2  A    between atoms: C_2  and  O_3 
REMARK    3  A    between atoms: C_10  and  C_11 
REMARK    4  A    between atoms: C_11  and  O_12 
ROOT
HETATM    1  C   LIG     1      15.653  31.823  14.899  1.00  0.00     0.055 A 
HETATM    2  C   LIG     1      15.325  30.804  13.986  1.00  0.00     0.018 A 
HETATM    3  C   LIG     1      14.239  29.960  14.218  1.00  0.00     0.001 A 
HETATM    4  C   LIG     1      13.462  30.120  15.364  1.00  0.00     0.001 A 
HETATM    5  C   LIG     1      13.755  31.138  16.271  1.00  0.00     0.018 A 
HETATM    6  C   LIG     1      14.832  32.015  16.046  1.00  0.00     0.055 A 
ENDROOT
BRANCH   1   7
HETATM    7  C   LIG     1      16.884  32.606  14.649  1.00  0.00     0.294 C 
HETATM    8  O   LIG     1      17.927  32.390  15.326  1.00  0.00    -0.259 OA
BRANCH   7   9
HETATM    9  O   LIG     1      16.903  33.548  13.614  1.00  0.00    -0.322 OA
HETATM   10  C   LIG     1      18.101  33.937  12.952  1.00  0.00     0.213 C 
ENDBRANCH   7   9
ENDBRANCH   1   7
BRANCH   6  11
HETATM   11  C   LIG     1      15.016  33.141  16.990  1.00  0.00     0.294 C 
HETATM   12  O   LIG     1      14.519  34.273  16.736  1.00  0.00    -0.259 OA
BRANCH  11  13
HETATM   13  O   LIG     1      15.695  32.927  18.195  1.00  0.00    -0.322 OA
HETATM   14  C   LIG     1      15.075  32.336  19.330  1.00  0.00     0.213 C 
ENDBRANCH  11  13
ENDBRANCH   6  11
TORSDOF 4
ENDMDL
MODEL 6
REMARK VINA RESULT:      -6.8      6.625      9.304
REMARK  4 active torsions:
REMARK  status: ('A' for Active; 'I' for Inactive)
REMARK    1  A    between atoms: C_2  and  C_5 
REMARK    2  A    between atoms: C_2  and  O_3 
REMARK    3  A    between atoms: C_10  and  C_11 
REMARK    4  A    between atoms: C_11  and  O_12 
ROOT
HETATM    1  C   LIG     1      14.887  31.996  16.003  1.00  0.00     0.055 A 
HETATM    2  C   LIG     1      13.829  31.089  16.197  1.00  0.00     0.018 A 
HETATM    3  C   LIG     1      13.567  30.087  15.263  1.00  0.00     0.001 A 
HETATM    4  C   LIG     1      14.356  29.973  14.121  1.00  0.00     0.001 A 
HETATM    5  C   LIG     1      15.425  30.847  13.919  1.00  0.00     0.018 A 
HETATM    6  C   LIG     1      15.721  31.850  14.859  1.00  0.00     0.055 A 
ENDROOT
BRANCH   1   7
HETATM    7  C   LIG     1      15.036  33.103  16.974  1.00  0.00     0.294 C 
HETATM    8  O   LIG     1      14.519  34.231  16.741  1.00  0.00    -0.259 OA
BRANCH   7   9
HETATM    9  O   LIG     1      15.706  32.874  18.182  1.00  0.00    -0.322 OA
HETATM   10  C   LIG     1      15.062  32.314  19.320  1.00  0.00     0.213 C 
ENDBRANCH   7   9
ENDBRANCH   1   7
BRANCH   6  11
HETATM   11  C   LIG     1      16.936  32.668  14.637  1.00  0.00     0.294 C 
HETATM   12  O   LIG     1      17.980  32.454  15.314  1.00  0.00    -0.259 OA
BRANCH  11  13
HETATM   13  O   LIG     1      16.939  33.641  13.632  1.00  0.00    -0.322 OA
HETATM   14  C   LIG     1      18.073  33.894  12.813  1.00  0.00     0.213 C 
ENDBRANCH  11  13
ENDBRANCH   6  11
TORSDOF 4
ENDMDL
MODEL 7
REMARK VINA RESULT:      -6.5      1.961      4.129
REMARK  4 active torsions:
REMARK  status: ('A' for Active; 'I' for Inactive)
REMARK    1  A    between atoms: C_2  and  C_5 
REMARK    2  A    between atoms: C_2  and  O_3 
REMARK    3  A    between atoms: C_10  and  C_11 
REMARK    4  A    between atoms: C_11  and  O_12 
ROOT
HETATM    1  C   LIG     1      17.268  35.812  24.102  1.00  0.00     0.055 A 
HETATM    2  C   LIG     1      17.270  34.742  25.015  1.00  0.00     0.018 A 
HETATM    3  C   LIG     1      17.770  34.906  26.307  1.00  0.00     0.001 A 
HETATM    4  C   LIG     1      18.275  36.141  26.709  1.00  0.00     0.001 A 
HETATM    5  C   LIG     1      18.262  37.223  25.828  1.00  0.00     0.018 A 
HETATM    6  C   LIG     1      17.742  37.085  24.528  1.00  0.00     0.055 A 
ENDROOT
BRANCH   1   7
HETATM    7  C   LIG     1      16.830  35.538  22.715  1.00  0.00     0.294 C 
HETATM    8  O   LIG     1      15.609  35.352  22.456  1.00  0.00    -0.259 OA
BRANCH   7   9
HETATM    9  O   LIG     1      17.773  35.545  21.681  1.00  0.00    -0.322 OA
HETATM   10  C   LIG     1      17.623  36.341  20.511  1.00  0.00     0.213 C 
ENDBRANCH   7   9
ENDBRANCH   1   7
BRANCH   6  11
HETATM   11  C   LIG     1      17.655  38.301  23.686  1.00  0.00     0.294 C 
HETATM   12  O   LIG     1      18.663  38.703  23.041  1.00  0.00    -0.259 OA
BRANCH  11  13
HETATM   13  O   LIG     1      16.432  38.969  23.565  1.00  0.00    -0.322 OA
HETATM   14  C   LIG     1      15.639  38.909  22.386  1.00  0.00     0.213 C 
ENDBRANCH  11  13
ENDBRANCH   6  11
TORSDOF 4
ENDMDL
MODEL 8
REMARK VINA RESULT:      -6.4      8.171     10.499
REMARK  4 active torsions:
REMARK  status: ('A' for Active; 'I' for Inactive)
REMARK    1  A    between atoms: C_2  and  C_5 
REMARK    2  A    between atoms: C_2  and  O_3 
REMARK    3  A    between atoms: C_10  and  C_11 
REMARK    4  A    between atoms: C_11  and  O_12 
ROOT
HETATM    1  C   LIG     1      15.377  31.954  15.539  1.00  0.00     0.055 A 
HETATM    2  C   LIG     1      14.728  32.632  16.587  1.00  0.00     0.018 A 
HETATM    3  C   LIG     1      13.481  32.210  17.046  1.00  0.00     0.001 A 
HETATM    4  C   LIG     1      12.860  31.105  16.467  1.00  0.00     0.001 A 
HETATM    5  C   LIG     1      13.495  30.404  15.442  1.00  0.00     0.018 A 
HETATM    6  C   LIG     1      14.763  30.798  14.978  1.00  0.00     0.055 A 
ENDROOT
BRANCH   1   7
HETATM    7  C   LIG     1      16.643  32.523  15.025  1.00  0.00     0.294 C 
HETATM    8  O   LIG     1      17.751  32.151  15.502  1.00  0.00    -0.259 OA
BRANCH   7   9
HETATM    9  O   LIG     1      16.608  33.436  13.964  1.00  0.00    -0.322 OA
HETATM   10  C   LIG     1      17.728  33.673  13.119  1.00  0.00     0.213 C 
ENDBRANCH   7   9
ENDBRANCH   1   7
BRANCH   6  11
HETATM   11  C   LIG     1      15.427  29.942  13.968  1.00  0.00     0.294 C 
HETATM   12  O   LIG     1      15.793  30.429  12.862  1.00  0.00    -0.259 OA
BRANCH  11  13
HETATM   13  O   LIG     1      15.698  28.604  14.269  1.00  0.00    -0.322 OA
HETATM   14  C   LIG     1      15.278  27.530  13.437  1.00  0.00     0.213 C 
ENDBRANCH  11  13
ENDBRANCH   6  11
TORSDOF 4
ENDMDL
MODEL 9
REMARK VINA RESULT:      -6.4      8.171     10.051
REMARK  4 active torsions:
REMARK  status: ('A' for Active; 'I' for Inactive)
REMARK    1  A    between atoms: C_2  and  C_5 
REMARK    2  A    between atoms: C_2  and  O_3 
REMARK    3  A    between atoms: C_10  and  C_11 
REMARK    4  A    between atoms: C_11  and  O_12 
ROOT
HETATM    1  C   LIG     1      14.761  30.797  14.978  1.00  0.00     0.055 A 
HETATM    2  C   LIG     1      13.494  30.404  15.445  1.00  0.00     0.018 A 
HETATM    3  C   LIG     1      12.861  31.107  16.470  1.00  0.00     0.001 A 
HETATM    4  C   LIG     1      13.483  32.212  17.046  1.00  0.00     0.001 A 
HETATM    5  C   LIG     1      14.730  32.634  16.584  1.00  0.00     0.018 A 
HETATM    6  C   LIG     1      15.376  31.953  15.536  1.00  0.00     0.055 A 
ENDROOT
BRANCH   1   7
HETATM    7  C   LIG     1      15.423  29.940  13.968  1.00  0.00     0.294 C 
HETATM    8  O   LIG     1      15.797  30.425  12.865  1.00  0.00    -0.259 OA
BRANCH   7   9
HETATM    9  O   LIG     1      15.685  28.598  14.270  1.00  0.00    -0.322 OA
HETATM   10  C   LIG     1      15.294  27.530  13.415  1.00  0.00     0.213 C 
ENDBRANCH   7   9
ENDBRANCH   1   7
BRANCH   6  11
HETATM   11  C   LIG     1      16.642  32.522  15.020  1.00  0.00     0.294 C 
HETATM   12  O   LIG     1      17.749  32.154  15.502  1.00  0.00    -0.259 OA
BRANCH  11  13
HETATM   13  O   LIG     1      16.607  33.428  13.954  1.00  0.00    -0.322 OA
HETATM   14  C   LIG     1      17.755  33.739  13.174  1.00  0.00     0.213 C 
ENDBRANCH  11  13
ENDBRANCH   6  11
TORSDOF 4
ENDMDL
MODEL 10
REMARK VINA RESULT:      -6.0      1.908      4.127
REMARK  4 active torsions:
REMARK  status: ('A' for Active; 'I' for Inactive)
REMARK    1  A    between atoms: C_2  and  C_5 
REMARK    2  A    between atoms: C_2  and  O_3 
REMARK    3  A    between atoms: C_10  and  C_11 
REMARK    4  A    between atoms: C_11  and  O_12 
ROOT
HETATM    1  C   LIG     1      18.353  37.769  20.696  1.00  0.00     0.055 A 
HETATM    2  C   LIG     1      18.734  39.054  21.121  1.00  0.00     0.018 A 
HETATM    3  C   LIG     1      18.146  39.639  22.242  1.00  0.00     0.001 A 
HETATM    4  C   LIG     1      17.167  38.952  22.957  1.00  0.00     0.001 A 
HETATM    5  C   LIG     1      16.790  37.666  22.567  1.00  0.00     0.018 A 
HETATM    6  C   LIG     1      17.387  37.048  21.453  1.00  0.00     0.055 A 
ENDROOT
BRANCH   1   7
HETATM    7  C   LIG     1      18.934  37.256  19.434  1.00  0.00     0.294 C 
HETATM    8  O   LIG     1      19.795  36.333  19.457  1.00  0.00    -0.259 OA
BRANCH   7   9
HETATM    9  O   LIG     1      18.479  37.761  18.211  1.00  0.00    -0.322 OA
HETATM   10  C   LIG     1      18.895  39.022  17.700  1.00  0.00     0.213 C 
ENDBRANCH   7   9
ENDBRANCH   1   7
BRANCH   6  11
HETATM   11  C   LIG     1      17.021  35.642  21.165  1.00  0.00     0.294 C 
HETATM   12  O   LIG     1      17.247  34.738  22.016  1.00  0.00    -0.259 OA
BRANCH  11  13
HETATM   13  O   LIG     1      16.368  35.331  19.967  1.00  0.00    -0.322 OA
HETATM   14  C   LIG     1      15.563  34.170  19.811  1.00  0.00     0.213 C 
ENDBRANCH  11  13
ENDBRANCH   6  11
TORSDOF 4
ENDMDL
MODEL 11
REMARK VINA RESULT:      -6.0      2.088      4.162
REMARK  4 active torsions:
REMARK  status: ('A' for Active; 'I' for Inactive)
REMARK    1  A    between atoms: C_2  and  C_5 
REMARK    2  A    between atoms: C_2  and  O_3 
REMARK    3  A    between atoms: C_10  and  C_11 
REMARK    4  A    between atoms: C_11  and  O_12 
ROOT
HETATM    1  C   LIG     1      17.213  36.704  23.679  1.00  0.00     0.055 A 
HETATM    2  C   LIG     1      17.263  35.299  23.649  1.00  0.00     0.018 A 
HETATM    3  C   LIG     1      16.910  34.596  22.497  1.00  0.00     0.001 A 
HETATM    4  C   LIG     1      16.502  35.284  21.357  1.00  0.00     0.001 A 
HETATM    5  C   LIG     1      16.467  36.679  21.356  1.00  0.00     0.018 A 
HETATM    6  C   LIG     1      16.840  37.408  22.499  1.00  0.00     0.055 A 
ENDROOT
BRANCH   1   7
HETATM    7  C   LIG     1      17.490  37.380  24.967  1.00  0.00     0.294 C 
HETATM    8  O   LIG     1      16.714  38.277  25.397  1.00  0.00    -0.259 OA
BRANCH   7   9
HETATM    9  O   LIG     1      18.587  36.974  25.735  1.00  0.00    -0.322 OA
HETATM   10  C   LIG     1      18.462  36.095  26.847  1.00  0.00     0.213 C 
ENDBRANCH   7   9
ENDBRANCH   1   7
BRANCH   6  11
HETATM   11  C   LIG     1      16.888  38.885  22.392  1.00  0.00     0.294 C 
HETATM   12  O   LIG     1      15.856  39.574  22.622  1.00  0.00    -0.259 OA
BRANCH  11  13
HETATM   13  O   LIG     1      18.100  39.515  22.091  1.00  0.00    -0.322 OA
HETATM   14  C   LIG     1      19.014  39.001  21.130  1.00  0.00     0.213 C 
ENDBRANCH  11  13
ENDBRANCH   6  11
TORSDOF 4
ENDMDL
MODEL 12
REMARK VINA RESULT:      -5.7      2.014      3.876
REMARK  4 active torsions:
REMARK  status: ('A' for Active; 'I' for Inactive)
REMARK    1  A    between atoms: C_2  and  C_5 
REMARK    2  A    between atoms: C_2  and  O_3 
REMARK    3  A    between atoms: C_10  and  C_11 
REMARK    4  A    between atoms: C_11  and  O_12 
ROOT
HETATM    1  C   LIG     1      16.894  37.342  22.414  1.00  0.00     0.055 A 
HETATM    2  C   LIG     1      16.658  36.713  21.178  1.00  0.00     0.018 A 
HETATM    3  C   LIG     1      16.636  35.323  21.077  1.00  0.00     0.001 A 
HETATM    4  C   LIG     1      16.849  34.537  22.207  1.00  0.00     0.001 A 
HETATM    5  C   LIG     1      17.062  35.139  23.448  1.00  0.00     0.018 A 
HETATM    6  C   LIG     1      17.065  36.540  23.577  1.00  0.00     0.055 A 
ENDROOT
BRANCH   1   7
HETATM    7  C   LIG     1      17.017  38.818  22.427  1.00  0.00     0.294 C 
HETATM    8  O   LIG     1      16.012  39.540  22.674  1.00  0.00    -0.259 OA
BRANCH   7   9
HETATM    9  O   LIG     1      18.271  39.406  22.222  1.00  0.00    -0.322 OA
HETATM   10  C   LIG     1      18.892  39.459  20.944  1.00  0.00     0.213 C 
ENDBRANCH   7   9
ENDBRANCH   1   7
BRANCH   6  11
HETATM   11  C   LIG     1      17.183  37.108  24.939  1.00  0.00     0.294 C 
HETATM   12  O   LIG     1      16.927  38.327  25.145  1.00  0.00    -0.259 OA
BRANCH  11  13
HETATM   13  O   LIG     1      17.525  36.272  26.008  1.00  0.00    -0.322 OA
HETATM   14  C   LIG     1      18.717  36.443  26.764  1.00  0.00     0.213 C 
ENDBRANCH  11  13
ENDBRANCH   6  11
TORSDOF 4
ENDMDL
MODEL 13
REMARK VINA RESULT:      -5.0      2.216      3.680
REMARK  4 active torsions:
REMARK  status: ('A' for Active; 'I' for Inactive)
REMARK    1  A    between atoms: C_2  and  C_5 
REMARK    2  A    between atoms: C_2  and  O_3 
REMARK    3  A    between atoms: C_10  and  C_11 
REMARK    4  A    between atoms: C_11  and  O_12 
ROOT
HETATM    1  C   LIG     1      16.926  36.796  21.331  1.00  0.00     0.055 A 
HETATM    2  C   LIG     1      16.014  37.097  22.359  1.00  0.00     0.018 A 
HETATM    3  C   LIG     1      16.164  38.249  23.131  1.00  0.00     0.001 A 
HETATM    4  C   LIG     1      17.227  39.117  22.891  1.00  0.00     0.001 A 
HETATM    5  C   LIG     1      18.130  38.851  21.862  1.00  0.00     0.018 A 
HETATM    6  C   LIG     1      17.985  37.707  21.056  1.00  0.00     0.055 A 
ENDROOT
BRANCH   1   7
HETATM    7  C   LIG     1      16.774  35.502  20.628  1.00  0.00     0.294 C 
HETATM    8  O   LIG     1      17.096  34.423  21.198  1.00  0.00    -0.259 OA
BRANCH   7   9
HETATM    9  O   LIG     1      16.213  35.477  19.345  1.00  0.00    -0.322 OA
HETATM   10  C   LIG     1      15.417  34.395  18.877  1.00  0.00     0.213 C 
ENDBRANCH   7   9
ENDBRANCH   1   7
BRANCH   6  11
HETATM   11  C   LIG     1      18.912  37.545  19.912  1.00  0.00     0.294 C 
HETATM   12  O   LIG     1      19.272  36.394  19.542  1.00  0.00    -0.259 OA
BRANCH  11  13
HETATM   13  O   LIG     1      19.340  38.675  19.207  1.00  0.00    -0.322 OA
HETATM   14  C   LIG     1      18.836  39.012  17.920  1.00  0.00     0.213 C 
ENDBRANCH  11  13
ENDBRANCH   6  11
TORSDOF 4
ENDMDL
MODEL 14
REMARK VINA RESULT:      -5.0      1.640      4.316
REMARK  4 active torsions:
REMARK  status: ('A' for Active; 'I' for Inactive)
REMARK    1  A    between atoms: C_2  and  C_5 
REMARK    2  A    between atoms: C_2  and  O_3 
REMARK    3  A    between atoms: C_10  and  C_11 
REMARK    4  A    between atoms: C_11  and  O_12 
ROOT
HETATM    1  C   LIG     1      16.342  36.342  22.044  1.00  0.00     0.055 A 
HETATM    2  C   LIG     1      15.332  35.392  22.285  1.00  0.00     0.018 A 
HETATM    3  C   LIG     1      14.985  34.457  21.310  1.00  0.00     0.001 A 
HETATM    4  C   LIG     1      15.637  34.456  20.079  1.00  0.00     0.001 A 
HETATM    5  C   LIG     1      16.657  35.374  19.827  1.00  0.00     0.018 A 
HETATM    6  C   LIG     1      17.040  36.310  20.804  1.00  0.00     0.055 A 
ENDROOT
BRANCH   1   7
HETATM    7  C   LIG     1      16.580  37.375  23.078  1.00  0.00     0.294 C 
HETATM    8  O   LIG     1      15.814  38.373  23.171  1.00  0.00    -0.259 OA
BRANCH   7   9
HETATM    9  O   LIG     1      17.629  37.207  23.990  1.00  0.00    -0.322 OA
HETATM   10  C   LIG     1      17.471  36.507  25.219  1.00  0.00     0.213 C 
ENDBRANCH   7   9
ENDBRANCH   1   7
BRANCH   6  11
HETATM   11  C   LIG     1      18.204  37.178  20.512  1.00  0.00     0.294 C 
HETATM   12  O   LIG     1      19.181  36.732  19.850  1.00  0.00    -0.259 OA
BRANCH  11  13
HETATM   13  O   LIG     1      18.187  38.515  20.923  1.00  0.00    -0.322 OA
HETATM   14  C   LIG     1      19.024  39.507  20.341  1.00  0.00     0.213 C 
ENDBRANCH  11  13
ENDBRANCH   6  11
TORSDOF 4
ENDMDL
MODEL 15
REMARK VINA RESULT:      -5.0      1.678      2.238
REMARK  4 active torsions:
REMARK  status: ('A' for Active; 'I' for Inactive)
REMARK    1  A    between atoms: C_2  and  C_5 
REMARK    2  A    between atoms: C_2  and  O_3 
REMARK    3  A    between atoms: C_10  and  C_11 
REMARK    4  A    between atoms: C_11  and  O_12 
ROOT
HETATM    1  C   LIG     1      17.042  36.992  21.785  1.00  0.00     0.055 A 
HETATM    2  C   LIG     1      17.478  37.896  20.801  1.00  0.00     0.018 A 
HETATM    3  C   LIG     1      18.303  38.970  21.133  1.00  0.00     0.001 A 
HETATM    4  C   LIG     1      18.706  39.159  22.453  1.00  0.00     0.001 A 
HETATM    5  C   LIG     1      18.304  38.262  23.442  1.00  0.00     0.018 A 
HETATM    6  C   LIG     1      17.491  37.159  23.126  1.00  0.00     0.055 A 
ENDROOT
BRANCH   1   7
HETATM    7  C   LIG     1      16.077  35.943  21.384  1.00  0.00     0.294 C 
HETATM    8  O   LIG     1      14.869  36.015  21.742  1.00  0.00    -0.259 OA
BRANCH   7   9
HETATM    9  O   LIG     1      16.500  34.899  20.553  1.00  0.00    -0.322 OA
HETATM   10  C   LIG     1      15.719  33.732  20.329  1.00  0.00     0.213 C 
ENDBRANCH   7   9
ENDBRANCH   1   7
BRANCH   6  11
HETATM   11  C   LIG     1      17.197  36.185  24.202  1.00  0.00     0.294 C 
HETATM   12  O   LIG     1      17.089  34.955  23.937  1.00  0.00    -0.259 OA
BRANCH  11  13
HETATM   13  O   LIG     1      17.098  36.629  25.525  1.00  0.00    -0.322 OA
HETATM   14  C   LIG     1      18.229  36.760  26.377  1.00  0.00     0.213 C 
ENDBRANCH  11  13
ENDBRANCH   6  11
TORSDOF 4
ENDMDL
MODEL 16
REMARK VINA RESULT:      -4.8      1.926      4.250
REMARK  4 active torsions:
REMARK  status: ('A' for Active; 'I' for Inactive)
REMARK    1  A    between atoms: C_2  and  C_5 
REMARK    2  A    between atoms: C_2  and  O_3 
REMARK    3  A    between atoms: C_10  and  C_11 
REMARK    4  A    between atoms: C_11  and  O_12 
ROOT
HETATM    1  C   LIG     1      17.372  37.075  22.582  1.00  0.00     0.055 A 
HETATM    2  C   LIG     1      16.713  35.947  23.104  1.00  0.00     0.018 A 
HETATM    3  C   LIG     1      16.357  34.883  22.276  1.00  0.00     0.001 A 
HETATM    4  C   LIG     1      16.653  34.926  20.915  1.00  0.00     0.001 A 
HETATM    5  C   LIG     1      17.326  36.025  20.381  1.00  0.00     0.018 A 
HETATM    6  C   LIG     1      17.715  37.100  21.201  1.00  0.00     0.055 A 
ENDROOT
BRANCH   1   7
HETATM    7  C   LIG     1      17.618  38.216  23.494  1.00  0.00     0.294 C 
HETATM    8  O   LIG     1      18.719  38.324  24.100  1.00  0.00    -0.259 OA
BRANCH   7   9
HETATM    9  O   LIG     1      16.640  39.208  23.634  1.00  0.00    -0.322 OA
HETATM   10  C   LIG     1      15.504  39.291  22.781  1.00  0.00     0.213 C 
ENDBRANCH   7   9
ENDBRANCH   1   7
BRANCH   6  11
HETATM   11  C   LIG     1      18.525  38.178  20.589  1.00  0.00     0.294 C 
HETATM   12  O   LIG     1      18.215  39.389  20.770  1.00  0.00    -0.259 OA
BRANCH  11  13
HETATM   13  O   LIG     1      19.671  37.849  19.858  1.00  0.00    -0.322 OA
HETATM   14  C   LIG     1      20.522  38.833  19.283  1.00  0.00     0.213 C 
ENDBRANCH  11  13
ENDBRANCH   6  11
TORSDOF 4
ENDMDL
