REMARK  8 active torsions:
REMARK  status: ('A' for Active; 'I' for Inactive)
REMARK    1  A    between atoms: C_2  and  C_3 
REMARK    2  A    between atoms: C_2  and  O_15 
REMARK    3  A    between atoms: C_8  and  C_9 
REMARK    4  A    between atoms: C_9  and  O_10 
REMARK    5  A    between atoms: O_10  and  C_11 
REMARK    6  A    between atoms: C_11  and  C_12 
REMARK    7  A    between atoms: O_15  and  C_16 
REMARK    8  A    between atoms: C_16  and  C_17 
ROOT
HETATM    1  C   LIG     1      -0.122  -0.912   0.903  1.00  0.00     0.055 A 
HETATM    2  C   LIG     1       0.298  -1.894   1.823  1.00  0.00     0.018 A 
HETATM    3  C   LIG     1       1.175  -1.574   2.861  1.00  0.00     0.001 A 
HETATM    4  C   LIG     1       1.644  -0.271   3.004  1.00  0.00     0.001 A 
HETATM    5  C   LIG     1       1.250   0.716   2.101  1.00  0.00     0.018 A 
HETATM    6  C   LIG     1       0.387   0.409   1.037  1.00  0.00     0.055 A 
ENDROOT
BRANCH   1   7
HETATM    7  C   LIG     1      -1.101  -1.293  -0.152  1.00  0.00     0.294 C 
HETATM    8  O   LIG     1      -1.335  -2.512  -0.383  1.00  0.00    -0.259 OA
BRANCH   7   9
HETATM    9  O   LIG     1      -1.777  -0.310  -0.882  1.00  0.00    -0.314 OA
BRANCH   9  10
HETATM   10  C   LIG     1      -2.709  -0.615  -1.913  1.00  0.00     0.206 C 
BRANCH  10  11
HETATM   11  C   LIG     1      -3.215   0.656  -2.524  1.00  0.00    -0.011 C 
HETATM   12  C   LIG     1      -3.898   1.550  -1.804  1.00  0.00     0.009 C 
ENDBRANCH  10  11
ENDBRANCH   9  10
ENDBRANCH   7   9
ENDBRANCH   1   7
BRANCH   6  13
HETATM   13  C   LIG     1       0.066   1.491   0.085  1.00  0.00     0.294 C 
HETATM   14  O   LIG     1      -0.633   2.461   0.478  1.00  0.00    -0.259 OA
BRANCH  13  15
HETATM   15  O   LIG     1       0.537   1.489  -1.237  1.00  0.00    -0.314 OA
BRANCH  15  16
HETATM   16  C   LIG     1       1.481   0.554  -1.757  1.00  0.00     0.206 C 
BRANCH  16  17
HETATM   17  C   LIG     1       2.830   0.765  -1.128  1.00  0.00    -0.011 C 
HETATM   18  C   LIG     1       3.458  -0.206  -0.459  1.00  0.00     0.009 C 
ENDBRANCH  16  17
ENDBRANCH  15  16
ENDBRANCH  13  15
ENDBRANCH   6  13
TORSDOF 8
