REMARK  4 active torsions:
REMARK  status: ('A' for Active; 'I' for Inactive)
REMARK    1  A    between atoms: C_2  and  C_5 
REMARK    2  A    between atoms: C_2  and  O_3 
REMARK    3  A    between atoms: C_10  and  C_11 
REMARK    4  A    between atoms: C_11  and  O_12 
ROOT
HETATM    1  C   LIG     1      -0.903  -0.186   0.090  1.00  0.00     0.055 A 
HETATM    2  C   LIG     1      -2.074  -0.804   0.565  1.00  0.00     0.018 A 
HETATM    3  C   LIG     1      -2.005  -1.878   1.452  1.00  0.00     0.001 A 
HETATM    4  C   LIG     1      -0.767  -2.353   1.879  1.00  0.00     0.001 A 
HETATM    5  C   LIG     1       0.407  -1.741   1.439  1.00  0.00     0.018 A 
HETATM    6  C   LIG     1       0.360  -0.642   0.562  1.00  0.00     0.055 A 
ENDROOT
BRANCH   1   7
HETATM    7  C   LIG     1      -1.046   0.872  -0.936  1.00  0.00     0.294 C 
HETATM    8  O   LIG     1      -0.191   0.988  -1.857  1.00  0.00    -0.259 OA
BRANCH   7   9
HETATM    9  O   LIG     1      -2.169   1.707  -0.912  1.00  0.00    -0.322 OA
HETATM   10  C   LIG     1      -2.385   2.729  -1.878  1.00  0.00     0.213 C 
ENDBRANCH   7   9
ENDBRANCH   1   7
BRANCH   6  11
HETATM   11  C   LIG     1       1.637   0.029   0.226  1.00  0.00     0.294 C 
HETATM   12  O   LIG     1       1.677   1.281   0.070  1.00  0.00    -0.259 OA
BRANCH  11  13
HETATM   13  O   LIG     1       2.811  -0.727   0.140  1.00  0.00    -0.322 OA
HETATM   14  C   LIG     1       4.076  -0.148  -0.155  1.00  0.00     0.213 C 
ENDBRANCH  11  13
ENDBRANCH   6  11
TORSDOF 4
