MODEL 1
REMARK VINA RESULT:      -8.1      0.000      0.000
REMARK  7 active torsions:
REMARK  status: ('A' for Active; 'I' for Inactive)
REMARK    1  A    between atoms: C_2  and  C_3 
REMARK    2  A    between atoms: C_2  and  O_10 
REMARK    3  A    between atoms: C_8  and  N_9 
REMARK    4  A    between atoms: O_10  and  C_11 
REMARK    5  A    between atoms: C_11  and  C_12 
REMARK    6  A    between atoms: C_12  and  C_13 
REMARK    7  A    between atoms: C_13  and  C_14 
ROOT
HETATM    1  C   LIG     1      17.781  37.359  21.220  1.00  0.00     0.039 A 
HETATM    2  C   LIG     1      18.403  36.714  20.134  1.00  0.00     0.020 A 
HETATM    3  C   LIG     1      19.306  37.406  19.322  1.00  0.00     0.030 A 
HETATM    4  C   LIG     1      18.082  38.708  21.474  1.00  0.00     0.020 A 
HETATM    5  C   LIG     1      18.986  39.398  20.660  1.00  0.00     0.030 A 
HETATM    6  C   LIG     1      19.602  38.751  19.581  1.00  0.00     0.025 A 
ENDROOT
BRANCH   1   7
HETATM    7  C   LIG     1      16.825  36.632  22.084  1.00  0.00     0.293 C 
HETATM    8  O   LIG     1      15.880  35.974  21.568  1.00  0.00    -0.259 OA
BRANCH   7   9
HETATM    9  O   LIG     1      16.968  36.681  23.476  1.00  0.00    -0.318 OA
BRANCH   9  10
HETATM   10  C   LIG     1      16.391  37.699  24.292  1.00  0.00     0.179 C 
BRANCH  10  11
HETATM   11  C   LIG     1      17.387  38.147  25.370  1.00  0.00     0.027 C 
BRANCH  11  12
HETATM   12  C   LIG     1      18.564  37.172  25.532  1.00  0.00     0.002 C 
BRANCH  12  13
HETATM   13  C   LIG     1      18.397  36.240  26.742  1.00  0.00    -0.004 C 
HETATM   14  C   LIG     1      18.103  34.811  26.297  1.00  0.00     0.005 C 
ENDBRANCH  12  13
ENDBRANCH  11  12
ENDBRANCH  10  11
ENDBRANCH   9  10
ENDBRANCH   7   9
ENDBRANCH   1   7
BRANCH   6  15
HETATM   15  N   LIG     1      20.526  39.458  18.749  1.00  0.00    -0.399 N 
HETATM   16  H   LIG     1      20.548  39.295  17.717  1.00  0.00     0.156 HD
HETATM   17  H   LIG     1      21.194  40.149  19.158  1.00  0.00     0.156 HD
ENDBRANCH   6  15
TORSDOF 7
ENDMDL
MODEL 2
REMARK VINA RESULT:      -7.7      2.813      3.530
REMARK  7 active torsions:
REMARK  status: ('A' for Active; 'I' for Inactive)
REMARK    1  A    between atoms: C_2  and  C_3 
REMARK    2  A    between atoms: C_2  and  O_10 
REMARK    3  A    between atoms: C_8  and  N_9 
REMARK    4  A    between atoms: O_10  and  C_11 
REMARK    5  A    between atoms: C_11  and  C_12 
REMARK    6  A    between atoms: C_12  and  C_13 
REMARK    7  A    between atoms: C_13  and  C_14 
ROOT
HETATM    1  C   LIG     1      16.376  37.192  22.308  1.00  0.00     0.039 A 
HETATM    2  C   LIG     1      15.053  36.754  22.114  1.00  0.00     0.020 A 
HETATM    3  C   LIG     1      14.773  35.719  21.219  1.00  0.00     0.030 A 
HETATM    4  C   LIG     1      17.411  36.571  21.588  1.00  0.00     0.020 A 
HETATM    5  C   LIG     1      17.128  35.534  20.693  1.00  0.00     0.030 A 
HETATM    6  C   LIG     1      15.809  35.103  20.504  1.00  0.00     0.025 A 
ENDROOT
BRANCH   1   7
HETATM    7  C   LIG     1      16.679  38.288  23.255  1.00  0.00     0.293 C 
HETATM    8  O   LIG     1      17.216  39.352  22.840  1.00  0.00    -0.259 OA
BRANCH   7   9
HETATM    9  O   LIG     1      16.375  38.138  24.614  1.00  0.00    -0.318 OA
BRANCH   9  10
HETATM   10  C   LIG     1      17.320  38.349  25.661  1.00  0.00     0.179 C 
BRANCH  10  11
HETATM   11  C   LIG     1      18.443  37.307  25.586  1.00  0.00     0.027 C 
BRANCH  11  12
HETATM   12  C   LIG     1      18.381  36.286  26.733  1.00  0.00     0.002 C 
BRANCH  12  13
HETATM   13  C   LIG     1      18.188  34.846  26.233  1.00  0.00    -0.004 C 
HETATM   14  C   LIG     1      17.284  34.809  25.004  1.00  0.00     0.005 C 
ENDBRANCH  12  13
ENDBRANCH  11  12
ENDBRANCH  10  11
ENDBRANCH   9  10
ENDBRANCH   7   9
ENDBRANCH   1   7
BRANCH   6  15
HETATM   15  N   LIG     1      15.521  34.043  19.588  1.00  0.00    -0.399 N 
HETATM   16  H   LIG     1      15.432  33.058  19.923  1.00  0.00     0.156 HD
HETATM   17  H   LIG     1      15.394  34.235  18.570  1.00  0.00     0.156 HD
ENDBRANCH   6  15
TORSDOF 7
ENDMDL
MODEL 3
REMARK VINA RESULT:      -7.6      1.020      1.620
REMARK  7 active torsions:
REMARK  status: ('A' for Active; 'I' for Inactive)
REMARK    1  A    between atoms: C_2  and  C_3 
REMARK    2  A    between atoms: C_2  and  O_10 
REMARK    3  A    between atoms: C_8  and  N_9 
REMARK    4  A    between atoms: O_10  and  C_11 
REMARK    5  A    between atoms: C_11  and  C_12 
REMARK    6  A    between atoms: C_12  and  C_13 
REMARK    7  A    between atoms: C_13  and  C_14 
ROOT
HETATM    1  C   LIG     1      17.491  37.500  21.421  1.00  0.00     0.039 A 
HETATM    2  C   LIG     1      18.124  36.741  20.420  1.00  0.00     0.020 A 
HETATM    3  C   LIG     1      19.115  37.313  19.618  1.00  0.00     0.030 A 
HETATM    4  C   LIG     1      17.871  38.841  21.601  1.00  0.00     0.020 A 
HETATM    5  C   LIG     1      18.863  39.411  20.798  1.00  0.00     0.030 A 
HETATM    6  C   LIG     1      19.490  38.650  19.802  1.00  0.00     0.025 A 
ENDROOT
BRANCH   1   7
HETATM    7  C   LIG     1      16.441  36.900  22.275  1.00  0.00     0.293 C 
HETATM    8  O   LIG     1      15.550  37.632  22.790  1.00  0.00    -0.259 OA
BRANCH   7   9
HETATM    9  O   LIG     1      16.443  35.521  22.515  1.00  0.00    -0.318 OA
BRANCH   9  10
HETATM   10  C   LIG     1      17.300  34.887  23.464  1.00  0.00     0.179 C 
BRANCH  10  11
HETATM   11  C   LIG     1      16.884  35.261  24.892  1.00  0.00     0.027 C 
BRANCH  11  12
HETATM   12  C   LIG     1      18.058  35.216  25.882  1.00  0.00     0.002 C 
BRANCH  12  13
HETATM   13  C   LIG     1      18.423  36.603  26.431  1.00  0.00    -0.004 C 
HETATM   14  C   LIG     1      17.557  37.688  25.798  1.00  0.00     0.005 C 
ENDBRANCH  12  13
ENDBRANCH  11  12
ENDBRANCH  10  11
ENDBRANCH   9  10
ENDBRANCH   7   9
ENDBRANCH   1   7
BRANCH   6  15
HETATM   15  N   LIG     1      20.504  39.234  18.981  1.00  0.00    -0.399 N 
HETATM   16  H   LIG     1      20.604  40.272  18.911  1.00  0.00     0.156 HD
HETATM   17  H   LIG     1      21.163  38.634  18.436  1.00  0.00     0.156 HD
ENDBRANCH   6  15
TORSDOF 7
ENDMDL
MODEL 4
REMARK VINA RESULT:      -7.1      2.764      4.677
REMARK  7 active torsions:
REMARK  status: ('A' for Active; 'I' for Inactive)
REMARK    1  A    between atoms: C_2  and  C_3 
REMARK    2  A    between atoms: C_2  and  O_10 
REMARK    3  A    between atoms: C_8  and  N_9 
REMARK    4  A    between atoms: O_10  and  C_11 
REMARK    5  A    between atoms: C_11  and  C_12 
REMARK    6  A    between atoms: C_12  and  C_13 
REMARK    7  A    between atoms: C_13  and  C_14 
ROOT
HETATM    1  C   LIG     1      17.609  37.177  21.238  1.00  0.00     0.039 A 
HETATM    2  C   LIG     1      18.259  36.600  20.131  1.00  0.00     0.020 A 
HETATM    3  C   LIG     1      19.168  37.345  19.376  1.00  0.00     0.030 A 
HETATM    4  C   LIG     1      17.889  38.513  21.572  1.00  0.00     0.020 A 
HETATM    5  C   LIG     1      18.798  39.257  20.814  1.00  0.00     0.030 A 
HETATM    6  C   LIG     1      19.442  38.677  19.713  1.00  0.00     0.025 A 
ENDROOT
BRANCH   1   7
HETATM    7  C   LIG     1      16.647  36.392  22.043  1.00  0.00     0.293 C 
HETATM    8  O   LIG     1      16.893  36.141  23.256  1.00  0.00    -0.259 OA
BRANCH   7   9
HETATM    9  O   LIG     1      15.466  35.922  21.455  1.00  0.00    -0.318 OA
BRANCH   9  10
HETATM   10  C   LIG     1      15.125  34.540  21.365  1.00  0.00     0.179 C 
BRANCH  10  11
HETATM   11  C   LIG     1      15.705  33.929  20.083  1.00  0.00     0.027 C 
BRANCH  11  12
HETATM   12  C   LIG     1      15.467  32.414  19.988  1.00  0.00     0.002 C 
BRANCH  12  13
HETATM   13  C   LIG     1      14.716  32.012  18.710  1.00  0.00    -0.004 C 
HETATM   14  C   LIG     1      15.061  32.945  17.554  1.00  0.00     0.005 C 
ENDBRANCH  12  13
ENDBRANCH  11  12
ENDBRANCH  10  11
ENDBRANCH   9  10
ENDBRANCH   7   9
ENDBRANCH   1   7
BRANCH   6  15
HETATM   15  N   LIG     1      20.372  39.440  18.939  1.00  0.00    -0.399 N 
HETATM   16  H   LIG     1      20.181  39.657  17.935  1.00  0.00     0.156 HD
HETATM   17  H   LIG     1      21.259  39.793  19.363  1.00  0.00     0.156 HD
ENDBRANCH   6  15
TORSDOF 7
ENDMDL
MODEL 5
REMARK VINA RESULT:      -7.0      3.006      5.048
REMARK  7 active torsions:
REMARK  status: ('A' for Active; 'I' for Inactive)
REMARK    1  A    between atoms: C_2  and  C_3 
REMARK    2  A    between atoms: C_2  and  O_10 
REMARK    3  A    between atoms: C_8  and  N_9 
REMARK    4  A    between atoms: O_10  and  C_11 
REMARK    5  A    between atoms: C_11  and  C_12 
REMARK    6  A    between atoms: C_12  and  C_13 
REMARK    7  A    between atoms: C_13  and  C_14 
ROOT
HETATM    1  C   LIG     1      16.313  36.857  22.700  1.00  0.00     0.039 A 
HETATM    2  C   LIG     1      17.135  35.717  22.628  1.00  0.00     0.020 A 
HETATM    3  C   LIG     1      16.755  34.616  21.855  1.00  0.00     0.030 A 
HETATM    4  C   LIG     1      15.106  36.872  21.981  1.00  0.00     0.020 A 
HETATM    5  C   LIG     1      14.728  35.770  21.208  1.00  0.00     0.030 A 
HETATM    6  C   LIG     1      15.550  34.637  21.141  1.00  0.00     0.025 A 
ENDROOT
BRANCH   1   7
HETATM    7  C   LIG     1      16.711  38.026  23.516  1.00  0.00     0.293 C 
HETATM    8  O   LIG     1      16.546  38.008  24.767  1.00  0.00    -0.259 OA
BRANCH   7   9
HETATM    9  O   LIG     1      17.264  39.153  22.895  1.00  0.00    -0.318 OA
BRANCH   9  10
HETATM   10  C   LIG     1      18.572  39.179  22.329  1.00  0.00     0.179 C 
BRANCH  10  11
HETATM   11  C   LIG     1      18.491  39.276  20.800  1.00  0.00     0.027 C 
BRANCH  11  12
HETATM   12  C   LIG     1      19.847  39.033  20.118  1.00  0.00     0.002 C 
BRANCH  12  13
HETATM   13  C   LIG     1      19.929  37.659  19.437  1.00  0.00    -0.004 C 
HETATM   14  C   LIG     1      18.610  36.903  19.566  1.00  0.00     0.005 C 
ENDBRANCH  12  13
ENDBRANCH  11  12
ENDBRANCH  10  11
ENDBRANCH   9  10
ENDBRANCH   7   9
ENDBRANCH   1   7
BRANCH   6  15
HETATM   15  N   LIG     1      15.162  33.511  20.350  1.00  0.00    -0.399 N 
HETATM   16  H   LIG     1      15.756  32.653  20.315  1.00  0.00     0.156 HD
HETATM   17  H   LIG     1      14.278  33.526  19.794  1.00  0.00     0.156 HD
ENDBRANCH   6  15
TORSDOF 7
ENDMDL
MODEL 6
REMARK VINA RESULT:      -6.8      7.100      8.433
REMARK  7 active torsions:
REMARK  status: ('A' for Active; 'I' for Inactive)
REMARK    1  A    between atoms: C_2  and  C_3 
REMARK    2  A    between atoms: C_2  and  O_10 
REMARK    3  A    between atoms: C_8  and  N_9 
REMARK    4  A    between atoms: O_10  and  C_11 
REMARK    5  A    between atoms: C_11  and  C_12 
REMARK    6  A    between atoms: C_12  and  C_13 
REMARK    7  A    between atoms: C_13  and  C_14 
ROOT
HETATM    1  C   LIG     1      14.682  32.104  16.223  1.00  0.00     0.039 A 
HETATM    2  C   LIG     1      15.458  31.641  15.144  1.00  0.00     0.020 A 
HETATM    3  C   LIG     1      15.019  30.568  14.364  1.00  0.00     0.030 A 
HETATM    4  C   LIG     1      13.458  31.472  16.501  1.00  0.00     0.020 A 
HETATM    5  C   LIG     1      13.021  30.399  15.720  1.00  0.00     0.030 A 
HETATM    6  C   LIG     1      13.798  29.941  14.648  1.00  0.00     0.025 A 
ENDROOT
BRANCH   1   7
HETATM    7  C   LIG     1      15.141  33.241  17.052  1.00  0.00     0.293 C 
HETATM    8  O   LIG     1      14.959  34.426  16.656  1.00  0.00    -0.259 OA
BRANCH   7   9
HETATM    9  O   LIG     1      15.783  32.999  18.272  1.00  0.00    -0.318 OA
BRANCH   9  10
HETATM   10  C   LIG     1      15.093  32.847  19.510  1.00  0.00     0.179 C 
BRANCH  10  11
HETATM   11  C   LIG     1      15.748  33.709  20.597  1.00  0.00     0.027 C 
BRANCH  11  12
HETATM   12  C   LIG     1      15.893  35.181  20.177  1.00  0.00     0.002 C 
BRANCH  12  13
HETATM   13  C   LIG     1      16.762  35.990  21.152  1.00  0.00    -0.004 C 
HETATM   14  C   LIG     1      16.942  35.248  22.473  1.00  0.00     0.005 C 
ENDBRANCH  12  13
ENDBRANCH  11  12
ENDBRANCH  10  11
ENDBRANCH   9  10
ENDBRANCH   7   9
ENDBRANCH   1   7
BRANCH   6  15
HETATM   15  N   LIG     1      13.350  28.844  13.849  1.00  0.00    -0.399 N 
HETATM   16  H   LIG     1      12.332  28.700  13.661  1.00  0.00     0.156 HD
HETATM   17  H   LIG     1      14.031  28.166  13.439  1.00  0.00     0.156 HD
ENDBRANCH   6  15
TORSDOF 7
ENDMDL
MODEL 7
REMARK VINA RESULT:      -6.4      3.770      5.804
REMARK  7 active torsions:
REMARK  status: ('A' for Active; 'I' for Inactive)
REMARK    1  A    between atoms: C_2  and  C_3 
REMARK    2  A    between atoms: C_2  and  O_10 
REMARK    3  A    between atoms: C_8  and  N_9 
REMARK    4  A    between atoms: O_10  and  C_11 
REMARK    5  A    between atoms: C_11  and  C_12 
REMARK    6  A    between atoms: C_12  and  C_13 
REMARK    7  A    between atoms: C_13  and  C_14 
ROOT
HETATM    1  C   LIG     1      17.106  36.220  21.031  1.00  0.00     0.039 A 
HETATM    2  C   LIG     1      18.026  36.304  19.970  1.00  0.00     0.020 A 
HETATM    3  C   LIG     1      18.800  37.454  19.792  1.00  0.00     0.030 A 
HETATM    4  C   LIG     1      16.978  37.310  21.909  1.00  0.00     0.020 A 
HETATM    5  C   LIG     1      17.752  38.460  21.729  1.00  0.00     0.030 A 
HETATM    6  C   LIG     1      18.667  38.538  20.670  1.00  0.00     0.025 A 
ENDROOT
BRANCH   1   7
HETATM    7  C   LIG     1      16.285  35.004  21.226  1.00  0.00     0.293 C 
HETATM    8  O   LIG     1      15.776  34.759  22.355  1.00  0.00    -0.259 OA
BRANCH   7   9
HETATM    9  O   LIG     1      16.081  34.124  20.157  1.00  0.00    -0.318 OA
BRANCH   9  10
HETATM   10  C   LIG     1      15.243  32.972  20.233  1.00  0.00     0.179 C 
BRANCH  10  11
HETATM   11  C   LIG     1      15.305  32.179  18.921  1.00  0.00     0.027 C 
BRANCH  11  12
HETATM   12  C   LIG     1      15.071  33.060  17.684  1.00  0.00     0.002 C 
BRANCH  12  13
HETATM   13  C   LIG     1      13.881  32.585  16.836  1.00  0.00    -0.004 C 
HETATM   14  C   LIG     1      13.711  31.072  16.929  1.00  0.00     0.005 C 
ENDBRANCH  12  13
ENDBRANCH  11  12
ENDBRANCH  10  11
ENDBRANCH   9  10
ENDBRANCH   7   9
ENDBRANCH   1   7
BRANCH   6  15
HETATM   15  N   LIG     1      19.459  39.715  20.487  1.00  0.00    -0.399 N 
HETATM   16  H   LIG     1      19.424  40.495  21.181  1.00  0.00     0.156 HD
HETATM   17  H   LIG     1      20.085  39.814  19.658  1.00  0.00     0.156 HD
ENDBRANCH   6  15
TORSDOF 7
ENDMDL
MODEL 8
REMARK VINA RESULT:      -6.4      3.169      4.418
REMARK  7 active torsions:
REMARK  status: ('A' for Active; 'I' for Inactive)
REMARK    1  A    between atoms: C_2  and  C_3 
REMARK    2  A    between atoms: C_2  and  O_10 
REMARK    3  A    between atoms: C_8  and  N_9 
REMARK    4  A    between atoms: O_10  and  C_11 
REMARK    5  A    between atoms: C_11  and  C_12 
REMARK    6  A    between atoms: C_12  and  C_13 
REMARK    7  A    between atoms: C_13  and  C_14 
ROOT
HETATM    1  C   LIG     1      17.419  36.093  20.450  1.00  0.00     0.039 A 
HETATM    2  C   LIG     1      17.248  35.743  21.802  1.00  0.00     0.020 A 
HETATM    3  C   LIG     1      16.160  34.962  22.201  1.00  0.00     0.030 A 
HETATM    4  C   LIG     1      16.478  35.643  19.507  1.00  0.00     0.020 A 
HETATM    5  C   LIG     1      15.391  34.862  19.908  1.00  0.00     0.030 A 
HETATM    6  C   LIG     1      15.226  34.518  21.256  1.00  0.00     0.025 A 
ENDROOT
BRANCH   1   7
HETATM    7  C   LIG     1      18.570  36.918  20.021  1.00  0.00     0.293 C 
HETATM    8  O   LIG     1      19.600  36.367  19.544  1.00  0.00    -0.259 OA
BRANCH   7   9
HETATM    9  O   LIG     1      18.516  38.311  20.154  1.00  0.00    -0.318 OA
BRANCH   9  10
HETATM   10  C   LIG     1      19.021  39.016  21.286  1.00  0.00     0.179 C 
BRANCH  10  11
HETATM   11  C   LIG     1      17.959  39.082  22.391  1.00  0.00     0.027 C 
BRANCH  11  12
HETATM   12  C   LIG     1      18.468  38.537  23.736  1.00  0.00     0.002 C 
BRANCH  12  13
HETATM   13  C   LIG     1      17.327  38.197  24.706  1.00  0.00    -0.004 C 
HETATM   14  C   LIG     1      17.656  36.955  25.527  1.00  0.00     0.005 C 
ENDBRANCH  12  13
ENDBRANCH  11  12
ENDBRANCH  10  11
ENDBRANCH   9  10
ENDBRANCH   7   9
ENDBRANCH   1   7
BRANCH   6  15
HETATM   15  N   LIG     1      14.112  33.718  21.665  1.00  0.00    -0.399 N 
HETATM   16  H   LIG     1      13.825  32.880  21.112  1.00  0.00     0.156 HD
HETATM   17  H   LIG     1      13.567  33.959  22.522  1.00  0.00     0.156 HD
ENDBRANCH   6  15
TORSDOF 7
ENDMDL
MODEL 9
REMARK VINA RESULT:      -6.2      3.879      6.064
REMARK  7 active torsions:
REMARK  status: ('A' for Active; 'I' for Inactive)
REMARK    1  A    between atoms: C_2  and  C_3 
REMARK    2  A    between atoms: C_2  and  O_10 
REMARK    3  A    between atoms: C_8  and  N_9 
REMARK    4  A    between atoms: O_10  and  C_11 
REMARK    5  A    between atoms: C_11  and  C_12 
REMARK    6  A    between atoms: C_12  and  C_13 
REMARK    7  A    between atoms: C_13  and  C_14 
ROOT
HETATM    1  C   LIG     1      17.160  36.591  21.852  1.00  0.00     0.039 A 
HETATM    2  C   LIG     1      17.191  37.986  22.035  1.00  0.00     0.020 A 
HETATM    3  C   LIG     1      17.189  38.532  23.321  1.00  0.00     0.030 A 
HETATM    4  C   LIG     1      17.128  35.757  22.982  1.00  0.00     0.020 A 
HETATM    5  C   LIG     1      17.126  36.305  24.268  1.00  0.00     0.030 A 
HETATM    6  C   LIG     1      17.157  37.695  24.444  1.00  0.00     0.025 A 
ENDROOT
BRANCH   1   7
HETATM    7  C   LIG     1      17.162  36.007  20.492  1.00  0.00     0.293 C 
HETATM    8  O   LIG     1      18.146  36.197  19.724  1.00  0.00    -0.259 OA
BRANCH   7   9
HETATM    9  O   LIG     1      16.068  35.248  20.058  1.00  0.00    -0.318 OA
BRANCH   9  10
HETATM   10  C   LIG     1      15.569  34.111  20.759  1.00  0.00     0.179 C 
BRANCH  10  11
HETATM   11  C   LIG     1      15.893  32.824  19.988  1.00  0.00     0.027 C 
BRANCH  11  12
HETATM   12  C   LIG     1      14.648  31.963  19.722  1.00  0.00     0.002 C 
BRANCH  12  13
HETATM   13  C   LIG     1      14.432  31.683  18.228  1.00  0.00    -0.004 C 
HETATM   14  C   LIG     1      14.762  32.911  17.385  1.00  0.00     0.005 C 
ENDBRANCH  12  13
ENDBRANCH  11  12
ENDBRANCH  10  11
ENDBRANCH   9  10
ENDBRANCH   7   9
ENDBRANCH   1   7
BRANCH   6  15
HETATM   15  N   LIG     1      17.156  38.254  25.760  1.00  0.00    -0.399 N 
HETATM   16  H   LIG     1      17.383  39.262  25.912  1.00  0.00     0.156 HD
HETATM   17  H   LIG     1      16.927  37.665  26.592  1.00  0.00     0.156 HD
ENDBRANCH   6  15
TORSDOF 7
ENDMDL
MODEL 10
REMARK VINA RESULT:      -6.2      8.831     11.026
REMARK  7 active torsions:
REMARK  status: ('A' for Active; 'I' for Inactive)
REMARK    1  A    between atoms: C_2  and  C_3 
REMARK    2  A    between atoms: C_2  and  O_10 
REMARK    3  A    between atoms: C_8  and  N_9 
REMARK    4  A    between atoms: O_10  and  C_11 
REMARK    5  A    between atoms: C_11  and  C_12 
REMARK    6  A    between atoms: C_12  and  C_13 
REMARK    7  A    between atoms: C_13  and  C_14 
ROOT
HETATM    1  C   LIG     1      15.712  32.556  15.526  1.00  0.00     0.039 A 
HETATM    2  C   LIG     1      15.406  31.403  14.781  1.00  0.00     0.020 A 
HETATM    3  C   LIG     1      14.321  30.596  15.137  1.00  0.00     0.030 A 
HETATM    4  C   LIG     1      14.910  32.885  16.632  1.00  0.00     0.020 A 
HETATM    5  C   LIG     1      13.825  32.077  16.986  1.00  0.00     0.030 A 
HETATM    6  C   LIG     1      13.526  30.929  16.241  1.00  0.00     0.025 A 
ENDROOT
BRANCH   1   7
HETATM    7  C   LIG     1      16.859  33.415  15.153  1.00  0.00     0.293 C 
HETATM    8  O   LIG     1      16.909  34.611  15.553  1.00  0.00    -0.259 OA
BRANCH   7   9
HETATM    9  O   LIG     1      17.883  32.899  14.351  1.00  0.00    -0.318 OA
BRANCH   9  10
HETATM   10  C   LIG     1      18.822  33.713  13.651  1.00  0.00     0.179 C 
BRANCH  10  11
HETATM   11  C   LIG     1      18.832  33.354  12.159  1.00  0.00     0.027 C 
BRANCH  11  12
HETATM   12  C   LIG     1      20.254  33.194  11.597  1.00  0.00     0.002 C 
BRANCH  12  13
HETATM   13  C   LIG     1      21.036  34.516  11.581  1.00  0.00    -0.004 C 
HETATM   14  C   LIG     1      21.971  34.615  12.782  1.00  0.00     0.005 C 
ENDBRANCH  12  13
ENDBRANCH  11  12
ENDBRANCH  10  11
ENDBRANCH   9  10
ENDBRANCH   7   9
ENDBRANCH   1   7
BRANCH   6  15
HETATM   15  N   LIG     1      12.416  30.104  16.604  1.00  0.00    -0.399 N 
HETATM   16  H   LIG     1      11.440  30.475  16.572  1.00  0.00     0.156 HD
HETATM   17  H   LIG     1      12.561  29.115  16.907  1.00  0.00     0.156 HD
ENDBRANCH   6  15
TORSDOF 7
ENDMDL
MODEL 11
REMARK VINA RESULT:      -6.1      9.373     11.299
REMARK  7 active torsions:
REMARK  status: ('A' for Active; 'I' for Inactive)
REMARK    1  A    between atoms: C_2  and  C_3 
REMARK    2  A    between atoms: C_2  and  O_10 
REMARK    3  A    between atoms: C_8  and  N_9 
REMARK    4  A    between atoms: O_10  and  C_11 
REMARK    5  A    between atoms: C_11  and  C_12 
REMARK    6  A    between atoms: C_12  and  C_13 
REMARK    7  A    between atoms: C_13  and  C_14 
ROOT
HETATM    1  C   LIG     1      16.665  32.743  13.917  1.00  0.00     0.039 A 
HETATM    2  C   LIG     1      15.962  31.643  13.391  1.00  0.00     0.020 A 
HETATM    3  C   LIG     1      15.035  30.953  14.177  1.00  0.00     0.030 A 
HETATM    4  C   LIG     1      16.418  33.137  15.243  1.00  0.00     0.020 A 
HETATM    5  C   LIG     1      15.490  32.447  16.027  1.00  0.00     0.030 A 
HETATM    6  C   LIG     1      14.794  31.351  15.499  1.00  0.00     0.025 A 
ENDROOT
BRANCH   1   7
HETATM    7  C   LIG     1      17.648  33.478  13.090  1.00  0.00     0.293 C 
HETATM    8  O   LIG     1      17.664  34.740  13.099  1.00  0.00    -0.259 OA
BRANCH   7   9
HETATM    9  O   LIG     1      18.554  32.769  12.291  1.00  0.00    -0.318 OA
BRANCH   9  10
HETATM   10  C   LIG     1      19.406  33.386  11.328  1.00  0.00     0.179 C 
BRANCH  10  11
HETATM   11  C   LIG     1      20.863  33.360  11.810  1.00  0.00     0.027 C 
BRANCH  11  12
HETATM   12  C   LIG     1      21.224  34.581  12.671  1.00  0.00     0.002 C 
BRANCH  12  13
HETATM   13  C   LIG     1      22.572  34.421  13.389  1.00  0.00    -0.004 C 
HETATM   14  C   LIG     1      23.342  35.738  13.413  1.00  0.00     0.005 C 
ENDBRANCH  12  13
ENDBRANCH  11  12
ENDBRANCH  10  11
ENDBRANCH   9  10
ENDBRANCH   7   9
ENDBRANCH   1   7
BRANCH   6  15
HETATM   15  N   LIG     1      13.844  30.645  16.302  1.00  0.00    -0.399 N 
HETATM   16  H   LIG     1      13.972  29.630  16.512  1.00  0.00     0.156 HD
HETATM   17  H   LIG     1      13.007  31.132  16.693  1.00  0.00     0.156 HD
ENDBRANCH   6  15
TORSDOF 7
ENDMDL
MODEL 12
REMARK VINA RESULT:      -6.0      8.617     10.906
REMARK  7 active torsions:
REMARK  status: ('A' for Active; 'I' for Inactive)
REMARK    1  A    between atoms: C_2  and  C_3 
REMARK    2  A    between atoms: C_2  and  O_10 
REMARK    3  A    between atoms: C_8  and  N_9 
REMARK    4  A    between atoms: O_10  and  C_11 
REMARK    5  A    between atoms: C_11  and  C_12 
REMARK    6  A    between atoms: C_12  and  C_13 
REMARK    7  A    between atoms: C_13  and  C_14 
ROOT
HETATM    1  C   LIG     1      15.475  31.905  15.051  1.00  0.00     0.039 A 
HETATM    2  C   LIG     1      14.463  30.982  15.372  1.00  0.00     0.020 A 
HETATM    3  C   LIG     1      13.943  30.924  16.668  1.00  0.00     0.030 A 
HETATM    4  C   LIG     1      15.953  32.768  16.052  1.00  0.00     0.020 A 
HETATM    5  C   LIG     1      15.430  32.708  17.347  1.00  0.00     0.030 A 
HETATM    6  C   LIG     1      14.424  31.786  17.662  1.00  0.00     0.025 A 
ENDROOT
BRANCH   1   7
HETATM    7  C   LIG     1      16.029  31.973  13.680  1.00  0.00     0.293 C 
HETATM    8  O   LIG     1      16.110  30.926  12.978  1.00  0.00    -0.259 OA
BRANCH   7   9
HETATM    9  O   LIG     1      16.470  33.198  13.166  1.00  0.00    -0.318 OA
BRANCH   9  10
HETATM   10  C   LIG     1      17.786  33.710  13.367  1.00  0.00     0.179 C 
BRANCH  10  11
HETATM   11  C   LIG     1      18.699  33.306  12.202  1.00  0.00     0.027 C 
BRANCH  11  12
HETATM   12  C   LIG     1      19.898  34.253  12.033  1.00  0.00     0.002 C 
BRANCH  12  13
HETATM   13  C   LIG     1      21.130  33.796  12.828  1.00  0.00    -0.004 C 
HETATM   14  C   LIG     1      22.166  34.911  12.925  1.00  0.00     0.005 C 
ENDBRANCH  12  13
ENDBRANCH  11  12
ENDBRANCH  10  11
ENDBRANCH   9  10
ENDBRANCH   7   9
ENDBRANCH   1   7
BRANCH   6  15
HETATM   15  N   LIG     1      13.890  31.726  18.987  1.00  0.00    -0.399 N 
HETATM   16  H   LIG     1      13.661  30.808  19.430  1.00  0.00     0.156 HD
HETATM   17  H   LIG     1      13.721  32.598  19.536  1.00  0.00     0.156 HD
ENDBRANCH   6  15
TORSDOF 7
ENDMDL
MODEL 13
REMARK VINA RESULT:      -5.9      4.645      6.776
REMARK  7 active torsions:
REMARK  status: ('A' for Active; 'I' for Inactive)
REMARK    1  A    between atoms: C_2  and  C_3 
REMARK    2  A    between atoms: C_2  and  O_10 
REMARK    3  A    between atoms: C_8  and  N_9 
REMARK    4  A    between atoms: O_10  and  C_11 
REMARK    5  A    between atoms: C_11  and  C_12 
REMARK    6  A    between atoms: C_12  and  C_13 
REMARK    7  A    between atoms: C_13  and  C_14 
ROOT
HETATM    1  C   LIG     1      16.375  35.749  20.552  1.00  0.00     0.039 A 
HETATM    2  C   LIG     1      15.738  36.065  21.766  1.00  0.00     0.020 A 
HETATM    3  C   LIG     1      16.265  37.048  22.608  1.00  0.00     0.030 A 
HETATM    4  C   LIG     1      17.549  36.437  20.199  1.00  0.00     0.020 A 
HETATM    5  C   LIG     1      18.075  37.419  21.043  1.00  0.00     0.030 A 
HETATM    6  C   LIG     1      17.436  37.730  22.251  1.00  0.00     0.025 A 
ENDROOT
BRANCH   1   7
HETATM    7  C   LIG     1      15.820  34.710  19.655  1.00  0.00     0.293 C 
HETATM    8  O   LIG     1      15.823  34.887  18.405  1.00  0.00    -0.259 OA
BRANCH   7   9
HETATM    9  O   LIG     1      15.286  33.535  20.197  1.00  0.00    -0.318 OA
BRANCH   9  10
HETATM   10  C   LIG     1      15.637  32.228  19.746  1.00  0.00     0.179 C 
BRANCH  10  11
HETATM   11  C   LIG     1      14.452  31.577  19.022  1.00  0.00     0.027 C 
BRANCH  11  12
HETATM   12  C   LIG     1      14.426  31.897  17.519  1.00  0.00     0.002 C 
BRANCH  12  13
HETATM   13  C   LIG     1      13.535  30.931  16.724  1.00  0.00    -0.004 C 
HETATM   14  C   LIG     1      14.163  30.589  15.376  1.00  0.00     0.005 C 
ENDBRANCH  12  13
ENDBRANCH  11  12
ENDBRANCH  10  11
ENDBRANCH   9  10
ENDBRANCH   7   9
ENDBRANCH   1   7
BRANCH   6  15
HETATM   15  N   LIG     1      17.975  38.735  23.114  1.00  0.00    -0.399 N 
HETATM   16  H   LIG     1      17.345  39.353  23.672  1.00  0.00     0.156 HD
HETATM   17  H   LIG     1      19.008  38.868  23.201  1.00  0.00     0.156 HD
ENDBRANCH   6  15
TORSDOF 7
ENDMDL
MODEL 14
REMARK VINA RESULT:      -5.8      7.633      9.085
REMARK  7 active torsions:
REMARK  status: ('A' for Active; 'I' for Inactive)
REMARK    1  A    between atoms: C_2  and  C_3 
REMARK    2  A    between atoms: C_2  and  O_10 
REMARK    3  A    between atoms: C_8  and  N_9 
REMARK    4  A    between atoms: O_10  and  C_11 
REMARK    5  A    between atoms: C_11  and  C_12 
REMARK    6  A    between atoms: C_12  and  C_13 
REMARK    7  A    between atoms: C_13  and  C_14 
ROOT
HETATM    1  C   LIG     1      14.895  31.939  15.720  1.00  0.00     0.039 A 
HETATM    2  C   LIG     1      13.671  31.489  16.250  1.00  0.00     0.020 A 
HETATM    3  C   LIG     1      13.012  30.396  15.681  1.00  0.00     0.030 A 
HETATM    4  C   LIG     1      15.444  31.271  14.613  1.00  0.00     0.020 A 
HETATM    5  C   LIG     1      14.784  30.177  14.046  1.00  0.00     0.030 A 
HETATM    6  C   LIG     1      13.565  29.734  14.576  1.00  0.00     0.025 A 
ENDROOT
BRANCH   1   7
HETATM    7  C   LIG     1      15.598  33.096  16.319  1.00  0.00     0.293 C 
HETATM    8  O   LIG     1      16.394  33.782  15.621  1.00  0.00    -0.259 OA
BRANCH   7   9
HETATM    9  O   LIG     1      15.382  33.422  17.664  1.00  0.00    -0.318 OA
BRANCH   9  10
HETATM   10  C   LIG     1      15.658  34.707  18.217  1.00  0.00     0.179 C 
BRANCH  10  11
HETATM   11  C   LIG     1      15.381  34.709  19.726  1.00  0.00     0.027 C 
BRANCH  11  12
HETATM   12  C   LIG     1      15.790  33.392  20.406  1.00  0.00     0.002 C 
BRANCH  12  13
HETATM   13  C   LIG     1      14.600  32.444  20.621  1.00  0.00    -0.004 C 
HETATM   14  C   LIG     1      14.903  31.052  20.076  1.00  0.00     0.005 C 
ENDBRANCH  12  13
ENDBRANCH  11  12
ENDBRANCH  10  11
ENDBRANCH   9  10
ENDBRANCH   7   9
ENDBRANCH   1   7
BRANCH   6  15
HETATM   15  N   LIG     1      12.890  28.615  13.995  1.00  0.00    -0.399 N 
HETATM   16  H   LIG     1      12.065  28.184  14.469  1.00  0.00     0.156 HD
HETATM   17  H   LIG     1      13.210  28.209  13.088  1.00  0.00     0.156 HD
ENDBRANCH   6  15
TORSDOF 7
ENDMDL
MODEL 15
REMARK VINA RESULT:      -5.8      9.416     10.602
REMARK  7 active torsions:
REMARK  status: ('A' for Active; 'I' for Inactive)
REMARK    1  A    between atoms: C_2  and  C_3 
REMARK    2  A    between atoms: C_2  and  O_10 
REMARK    3  A    between atoms: C_8  and  N_9 
REMARK    4  A    between atoms: O_10  and  C_11 
REMARK    5  A    between atoms: C_11  and  C_12 
REMARK    6  A    between atoms: C_12  and  C_13 
REMARK    7  A    between atoms: C_13  and  C_14 
ROOT
HETATM    1  C   LIG     1      18.441  33.798  12.994  1.00  0.00     0.039 A 
HETATM    2  C   LIG     1      17.956  34.424  11.832  1.00  0.00     0.020 A 
HETATM    3  C   LIG     1      18.840  34.877  10.849  1.00  0.00     0.030 A 
HETATM    4  C   LIG     1      19.827  33.633  13.151  1.00  0.00     0.020 A 
HETATM    5  C   LIG     1      20.711  34.086  12.166  1.00  0.00     0.030 A 
HETATM    6  C   LIG     1      20.222  34.710  11.011  1.00  0.00     0.025 A 
ENDROOT
BRANCH   1   7
HETATM    7  C   LIG     1      17.509  33.315  14.038  1.00  0.00     0.293 C 
HETATM    8  O   LIG     1      17.876  33.279  15.245  1.00  0.00    -0.259 OA
BRANCH   7   9
HETATM    9  O   LIG     1      16.222  32.892  13.682  1.00  0.00    -0.318 OA
BRANCH   9  10
HETATM   10  C   LIG     1      15.897  31.542  13.359  1.00  0.00     0.179 C 
BRANCH  10  11
HETATM   11  C   LIG     1      15.549  30.758  14.630  1.00  0.00     0.027 C 
BRANCH  11  12
HETATM   12  C   LIG     1      14.187  30.051  14.536  1.00  0.00     0.002 C 
BRANCH  12  13
HETATM   13  C   LIG     1      13.188  30.551  15.591  1.00  0.00    -0.004 C 
HETATM   14  C   LIG     1      13.902  31.295  16.714  1.00  0.00     0.005 C 
ENDBRANCH  12  13
ENDBRANCH  11  12
ENDBRANCH  10  11
ENDBRANCH   9  10
ENDBRANCH   7   9
ENDBRANCH   1   7
BRANCH   6  15
HETATM   15  N   LIG     1      21.126  35.173  10.005  1.00  0.00    -0.399 N 
HETATM   16  H   LIG     1      22.084  34.765   9.918  1.00  0.00     0.156 HD
HETATM   17  H   LIG     1      20.845  35.927   9.338  1.00  0.00     0.156 HD
ENDBRANCH   6  15
TORSDOF 7
ENDMDL
MODEL 16
REMARK VINA RESULT:      -5.7      1.924      3.499
REMARK  7 active torsions:
REMARK  status: ('A' for Active; 'I' for Inactive)
REMARK    1  A    between atoms: C_2  and  C_3 
REMARK    2  A    between atoms: C_2  and  O_10 
REMARK    3  A    between atoms: C_8  and  N_9 
REMARK    4  A    between atoms: O_10  and  C_11 
REMARK    5  A    between atoms: C_11  and  C_12 
REMARK    6  A    between atoms: C_12  and  C_13 
REMARK    7  A    between atoms: C_13  and  C_14 
ROOT
HETATM    1  C   LIG     1      17.714  38.080  21.774  1.00  0.00     0.039 A 
HETATM    2  C   LIG     1      18.319  39.348  21.853  1.00  0.00     0.020 A 
HETATM    3  C   LIG     1      19.206  39.773  20.860  1.00  0.00     0.030 A 
HETATM    4  C   LIG     1      18.015  37.249  20.681  1.00  0.00     0.020 A 
HETATM    5  C   LIG     1      18.902  37.677  19.689  1.00  0.00     0.030 A 
HETATM    6  C   LIG     1      19.502  38.940  19.773  1.00  0.00     0.025 A 
ENDROOT
BRANCH   1   7
HETATM    7  C   LIG     1      16.774  37.624  22.822  1.00  0.00     0.293 C 
HETATM    8  O   LIG     1      15.658  38.197  22.962  1.00  0.00    -0.259 OA
BRANCH   7   9
HETATM    9  O   LIG     1      17.128  36.560  23.661  1.00  0.00    -0.318 OA
BRANCH   9  10
HETATM   10  C   LIG     1      16.721  35.211  23.439  1.00  0.00     0.179 C 
BRANCH  10  11
HETATM   11  C   LIG     1      17.395  34.651  22.180  1.00  0.00     0.027 C 
BRANCH  11  12
HETATM   12  C   LIG     1      16.381  34.183  21.123  1.00  0.00     0.002 C 
BRANCH  12  13
HETATM   13  C   LIG     1      14.933  34.534  21.498  1.00  0.00    -0.004 C 
HETATM   14  C   LIG     1      14.470  35.796  20.778  1.00  0.00     0.005 C 
ENDBRANCH  12  13
ENDBRANCH  11  12
ENDBRANCH  10  11
ENDBRANCH   9  10
ENDBRANCH   7   9
ENDBRANCH   1   7
BRANCH   6  15
HETATM   15  N   LIG     1      20.409  39.376  18.757  1.00  0.00    -0.399 N 
HETATM   16  H   LIG     1      20.130  40.115  18.073  1.00  0.00     0.156 HD
HETATM   17  H   LIG     1      21.366  38.965  18.682  1.00  0.00     0.156 HD
ENDBRANCH   6  15
TORSDOF 7
ENDMDL
MODEL 17
REMARK VINA RESULT:      -5.6      9.767     12.058
REMARK  7 active torsions:
REMARK  status: ('A' for Active; 'I' for Inactive)
REMARK    1  A    between atoms: C_2  and  C_3 
REMARK    2  A    between atoms: C_2  and  O_10 
REMARK    3  A    between atoms: C_8  and  N_9 
REMARK    4  A    between atoms: O_10  and  C_11 
REMARK    5  A    between atoms: C_11  and  C_12 
REMARK    6  A    between atoms: C_12  and  C_13 
REMARK    7  A    between atoms: C_13  and  C_14 
ROOT
HETATM    1  C   LIG     1      15.498  31.247  14.786  1.00  0.00     0.039 A 
HETATM    2  C   LIG     1      14.326  31.191  15.563  1.00  0.00     0.020 A 
HETATM    3  C   LIG     1      13.353  30.221  15.307  1.00  0.00     0.030 A 
HETATM    4  C   LIG     1      15.675  30.313  13.751  1.00  0.00     0.020 A 
HETATM    5  C   LIG     1      14.700  29.344  13.498  1.00  0.00     0.030 A 
HETATM    6  C   LIG     1      13.534  29.293  14.274  1.00  0.00     0.025 A 
ENDROOT
BRANCH   1   7
HETATM    7  C   LIG     1      16.533  32.271  15.052  1.00  0.00     0.293 C 
HETATM    8  O   LIG     1      16.677  32.736  16.217  1.00  0.00    -0.259 OA
BRANCH   7   9
HETATM    9  O   LIG     1      17.347  32.727  14.008  1.00  0.00    -0.318 OA
BRANCH   9  10
HETATM   10  C   LIG     1      18.024  33.982  14.026  1.00  0.00     0.179 C 
BRANCH  10  11
HETATM   11  C   LIG     1      18.880  34.145  12.763  1.00  0.00     0.027 C 
BRANCH  11  12
HETATM   12  C   LIG     1      18.922  32.870  11.907  1.00  0.00     0.002 C 
BRANCH  12  13
HETATM   13  C   LIG     1      19.897  32.982  10.726  1.00  0.00    -0.004 C 
HETATM   14  C   LIG     1      20.570  31.644  10.440  1.00  0.00     0.005 C 
ENDBRANCH  12  13
ENDBRANCH  11  12
ENDBRANCH  10  11
ENDBRANCH   9  10
ENDBRANCH   7   9
ENDBRANCH   1   7
BRANCH   6  15
HETATM   15  N   LIG     1      12.538  28.301  14.013  1.00  0.00    -0.399 N 
HETATM   16  H   LIG     1      11.741  28.158  14.674  1.00  0.00     0.156 HD
HETATM   17  H   LIG     1      12.588  27.703  13.158  1.00  0.00     0.156 HD
ENDBRANCH   6  15
TORSDOF 7
ENDMDL
MODEL 18
REMARK VINA RESULT:      -5.4      6.761      9.395
REMARK  7 active torsions:
REMARK  status: ('A' for Active; 'I' for Inactive)
REMARK    1  A    between atoms: C_2  and  C_3 
REMARK    2  A    between atoms: C_2  and  O_10 
REMARK    3  A    between atoms: C_8  and  N_9 
REMARK    4  A    between atoms: O_10  and  C_11 
REMARK    5  A    between atoms: C_11  and  C_12 
REMARK    6  A    between atoms: C_12  and  C_13 
REMARK    7  A    between atoms: C_13  and  C_14 
ROOT
HETATM    1  C   LIG     1      14.409  32.137  17.621  1.00  0.00     0.039 A 
HETATM    2  C   LIG     1      14.749  31.744  18.929  1.00  0.00     0.020 A 
HETATM    3  C   LIG     1      15.346  32.651  19.808  1.00  0.00     0.030 A 
HETATM    4  C   LIG     1      14.678  33.455  17.214  1.00  0.00     0.020 A 
HETATM    5  C   LIG     1      15.276  34.361  18.096  1.00  0.00     0.030 A 
HETATM    6  C   LIG     1      15.613  33.964  19.397  1.00  0.00     0.025 A 
ENDROOT
BRANCH   1   7
HETATM    7  C   LIG     1      13.775  31.181  16.685  1.00  0.00     0.293 C 
HETATM    8  O   LIG     1      13.043  30.254  17.129  1.00  0.00    -0.259 OA
BRANCH   7   9
HETATM    9  O   LIG     1      13.996  31.305  15.308  1.00  0.00    -0.318 OA
BRANCH   9  10
HETATM   10  C   LIG     1      15.115  30.731  14.634  1.00  0.00     0.179 C 
BRANCH  10  11
HETATM   11  C   LIG     1      15.990  31.831  14.021  1.00  0.00     0.027 C 
BRANCH  11  12
HETATM   12  C   LIG     1      17.077  32.331  14.987  1.00  0.00     0.002 C 
BRANCH  12  13
HETATM   13  C   LIG     1      17.556  33.751  14.652  1.00  0.00    -0.004 C 
HETATM   14  C   LIG     1      17.831  33.901  13.159  1.00  0.00     0.005 C 
ENDBRANCH  12  13
ENDBRANCH  11  12
ENDBRANCH  10  11
ENDBRANCH   9  10
ENDBRANCH   7   9
ENDBRANCH   1   7
BRANCH   6  15
HETATM   15  N   LIG     1      16.224  34.891  20.297  1.00  0.00    -0.399 N 
HETATM   16  H   LIG     1      16.989  34.586  20.940  1.00  0.00     0.156 HD
HETATM   17  H   LIG     1      15.916  35.889  20.328  1.00  0.00     0.156 HD
ENDBRANCH   6  15
TORSDOF 7
ENDMDL
MODEL 19
REMARK VINA RESULT:      -5.1      6.178      7.494
REMARK  7 active torsions:
REMARK  status: ('A' for Active; 'I' for Inactive)
REMARK    1  A    between atoms: C_2  and  C_3 
REMARK    2  A    between atoms: C_2  and  O_10 
REMARK    3  A    between atoms: C_8  and  N_9 
REMARK    4  A    between atoms: O_10  and  C_11 
REMARK    5  A    between atoms: C_11  and  C_12 
REMARK    6  A    between atoms: C_12  and  C_13 
REMARK    7  A    between atoms: C_13  and  C_14 
ROOT
HETATM    1  C   LIG     1      15.053  32.010  16.899  1.00  0.00     0.039 A 
HETATM    2  C   LIG     1      14.353  31.068  16.123  1.00  0.00     0.020 A 
HETATM    3  C   LIG     1      14.646  30.910  14.766  1.00  0.00     0.030 A 
HETATM    4  C   LIG     1      16.052  32.788  16.288  1.00  0.00     0.020 A 
HETATM    5  C   LIG     1      16.344  32.627  14.931  1.00  0.00     0.030 A 
HETATM    6  C   LIG     1      15.643  31.688  14.163  1.00  0.00     0.025 A 
ENDROOT
BRANCH   1   7
HETATM    7  C   LIG     1      14.748  32.182  18.337  1.00  0.00     0.293 C 
HETATM    8  O   LIG     1      13.954  31.388  18.914  1.00  0.00    -0.259 OA
BRANCH   7   9
HETATM    9  O   LIG     1      15.337  33.231  19.054  1.00  0.00    -0.318 OA
BRANCH   9  10
HETATM   10  C   LIG     1      15.789  33.110  20.401  1.00  0.00     0.179 C 
BRANCH  10  11
HETATM   11  C   LIG     1      16.345  34.450  20.900  1.00  0.00     0.027 C 
BRANCH  11  12
HETATM   12  C   LIG     1      15.403  35.629  20.605  1.00  0.00     0.002 C 
BRANCH  12  13
HETATM   13  C   LIG     1      14.939  36.348  21.881  1.00  0.00    -0.004 C 
HETATM   14  C   LIG     1      16.049  37.224  22.452  1.00  0.00     0.005 C 
ENDBRANCH  12  13
ENDBRANCH  11  12
ENDBRANCH  10  11
ENDBRANCH   9  10
ENDBRANCH   7   9
ENDBRANCH   1   7
BRANCH   6  15
HETATM   15  N   LIG     1      15.942  31.525  12.774  1.00  0.00    -0.399 N 
HETATM   16  H   LIG     1      16.879  31.788  12.395  1.00  0.00     0.156 HD
HETATM   17  H   LIG     1      15.230  31.140  12.115  1.00  0.00     0.156 HD
ENDBRANCH   6  15
TORSDOF 7
ENDMDL
