REMARK  7 active torsions:
REMARK  status: ('A' for Active; 'I' for Inactive)
REMARK    1  A    between atoms: C_2  and  C_3 
REMARK    2  A    between atoms: C_2  and  O_10 
REMARK    3  A    between atoms: C_8  and  N_9 
REMARK    4  A    between atoms: O_10  and  C_11 
REMARK    5  A    between atoms: C_11  and  C_12 
REMARK    6  A    between atoms: C_12  and  C_13 
REMARK    7  A    between atoms: C_13  and  C_14 
ROOT
HETATM    1  C   LIG     1       2.360  -0.407   0.033  1.00  0.00     0.039 A 
HETATM    2  C   LIG     1       3.276  -1.384   0.465  1.00  0.00     0.020 A 
HETATM    3  C   LIG     1       4.600  -1.038   0.748  1.00  0.00     0.030 A 
HETATM    4  C   LIG     1       2.797   0.921  -0.108  1.00  0.00     0.020 A 
HETATM    5  C   LIG     1       4.122   1.265   0.176  1.00  0.00     0.030 A 
HETATM    6  C   LIG     1       5.030   0.288   0.605  1.00  0.00     0.025 A 
ENDROOT
BRANCH   1   7
HETATM    7  C   LIG     1       0.956  -0.767  -0.267  1.00  0.00     0.293 C 
HETATM    8  O   LIG     1       0.568  -1.961  -0.137  1.00  0.00    -0.259 OA
BRANCH   7   9
HETATM    9  O   LIG     1       0.062   0.219  -0.702  1.00  0.00    -0.318 OA
BRANCH   9  10
HETATM   10  C   LIG     1      -1.319  -0.027  -0.960  1.00  0.00     0.179 C 
BRANCH  10  11
HETATM   11  C   LIG     1      -2.100  -0.120   0.357  1.00  0.00     0.027 C 
BRANCH  11  12
HETATM   12  C   LIG     1      -3.575  -0.498   0.146  1.00  0.00     0.002 C 
BRANCH  12  13
HETATM   13  C   LIG     1      -4.392   0.639  -0.486  1.00  0.00    -0.004 C 
HETATM   14  C   LIG     1      -5.872   0.277  -0.558  1.00  0.00     0.005 C 
ENDBRANCH  12  13
ENDBRANCH  11  12
ENDBRANCH  10  11
ENDBRANCH   9  10
ENDBRANCH   7   9
ENDBRANCH   1   7
BRANCH   6  15
HETATM   15  N   LIG     1       6.385   0.641   0.895  1.00  0.00    -0.399 N 
HETATM   16  H   LIG     1       6.714   1.627   0.791  1.00  0.00     0.156 HD
HETATM   17  H   LIG     1       7.069  -0.080   1.216  1.00  0.00     0.156 HD
ENDBRANCH   6  15
TORSDOF 7
