REMARK  0 active torsions:
REMARK  status: ('A' for Active; 'I' for Inactive)
ROOT
HETATM    1  C   LIG     1       0.660   0.361   0.224  1.00  0.00     0.011 A 
HETATM    2  C   LIG     1       1.133  -0.911  -0.023  1.00  0.00     0.087 A 
HETATM    3  C   LIG     1       2.498  -1.171  -0.112  1.00  0.00     0.038 A 
HETATM    4  C   LIG     1       3.387  -0.092   0.058  1.00  0.00     0.003 A 
HETATM    5  C   LIG     1       2.897   1.210   0.312  1.00  0.00     0.001 A 
HETATM    6  C   LIG     1       1.513   1.449   0.398  1.00  0.00     0.015 A 
HETATM    7  O   LIG     1       0.142  -1.771  -0.151  1.00  0.00    -0.309 OA
HETATM    8  C   LIG     1      -0.973  -1.085   0.009  1.00  0.00     0.087 A 
HETATM    9  C   LIG     1      -0.709   0.248   0.245  1.00  0.00     0.011 A 
HETATM   10  C   LIG     1      -1.723   1.181   0.447  1.00  0.00     0.015 A 
HETATM   11  C   LIG     1      -3.051   0.718   0.403  1.00  0.00     0.001 A 
HETATM   12  C   LIG     1      -3.328  -0.647   0.161  1.00  0.00     0.003 A 
HETATM   13  C   LIG     1      -2.280  -1.566  -0.039  1.00  0.00     0.038 A 
ENDROOT
TORSDOF 0
