MODEL 1
REMARK VINA RESULT:      -7.4      0.000      0.000
REMARK  0 active torsions:
REMARK  status: ('A' for Active; 'I' for Inactive)
ROOT
HETATM    1  C   LIG     1      17.687  37.222  22.467  1.00  0.00     0.011 A 
HETATM    2  C   LIG     1      17.820  38.417  23.142  1.00  0.00     0.087 A 
HETATM    3  C   LIG     1      17.490  38.528  24.490  1.00  0.00     0.038 A 
HETATM    4  C   LIG     1      17.014  37.378  25.148  1.00  0.00     0.003 A 
HETATM    5  C   LIG     1      16.881  36.154  24.452  1.00  0.00     0.001 A 
HETATM    6  C   LIG     1      17.221  36.066  23.090  1.00  0.00     0.015 A 
HETATM    7  O   LIG     1      18.278  39.364  22.347  1.00  0.00    -0.309 OA
HETATM    8  C   LIG     1      18.449  38.810  21.163  1.00  0.00     0.087 A 
HETATM    9  C   LIG     1      18.096  37.477  21.180  1.00  0.00     0.011 A 
HETATM   10  C   LIG     1      18.187  36.670  20.049  1.00  0.00     0.015 A 
HETATM   11  C   LIG     1      18.658  37.263  18.863  1.00  0.00     0.001 A 
HETATM   12  C   LIG     1      19.021  38.629  18.838  1.00  0.00     0.003 A 
HETATM   13  C   LIG     1      18.918  39.419  20.000  1.00  0.00     0.038 A 
ENDROOT
TORSDOF 0
ENDMDL
MODEL 2
REMARK VINA RESULT:      -7.4      0.037      4.313
REMARK  0 active torsions:
REMARK  status: ('A' for Active; 'I' for Inactive)
ROOT
HETATM    1  C   LIG     1      18.097  37.468  21.171  1.00  0.00     0.011 A 
HETATM    2  C   LIG     1      18.463  38.798  21.171  1.00  0.00     0.087 A 
HETATM    3  C   LIG     1      18.936  39.419  20.019  1.00  0.00     0.038 A 
HETATM    4  C   LIG     1      19.032  38.646  18.845  1.00  0.00     0.003 A 
HETATM    5  C   LIG     1      18.655  37.283  18.850  1.00  0.00     0.001 A 
HETATM    6  C   LIG     1      18.179  36.677  20.027  1.00  0.00     0.015 A 
HETATM    7  O   LIG     1      18.299  39.336  22.364  1.00  0.00    -0.309 OA
HETATM    8  C   LIG     1      17.831  38.382  23.145  1.00  0.00     0.087 A 
HETATM    9  C   LIG     1      17.686  37.197  22.453  1.00  0.00     0.011 A 
HETATM   10  C   LIG     1      17.208  36.038  23.059  1.00  0.00     0.015 A 
HETATM   11  C   LIG     1      16.869  36.109  24.423  1.00  0.00     0.001 A 
HETATM   12  C   LIG     1      17.016  37.320  25.137  1.00  0.00     0.003 A 
HETATM   13  C   LIG     1      17.502  38.476  24.496  1.00  0.00     0.038 A 
ENDROOT
TORSDOF 0
ENDMDL
MODEL 3
REMARK VINA RESULT:      -7.3      1.157      4.819
REMARK  0 active torsions:
REMARK  status: ('A' for Active; 'I' for Inactive)
ROOT
HETATM    1  C   LIG     1      18.212  38.108  21.241  1.00  0.00     0.011 A 
HETATM    2  C   LIG     1      18.189  37.030  20.380  1.00  0.00     0.087 A 
HETATM    3  C   LIG     1      18.597  37.154  19.055  1.00  0.00     0.038 A 
HETATM    4  C   LIG     1      19.037  38.417  18.615  1.00  0.00     0.003 A 
HETATM    5  C   LIG     1      19.060  39.519  19.501  1.00  0.00     0.001 A 
HETATM    6  C   LIG     1      18.643  39.371  20.837  1.00  0.00     0.015 A 
HETATM    7  O   LIG     1      17.746  35.947  20.986  1.00  0.00    -0.309 OA
HETATM    8  C   LIG     1      17.479  36.295  22.230  1.00  0.00     0.087 A 
HETATM    9  C   LIG     1      17.751  37.631  22.443  1.00  0.00     0.011 A 
HETATM   10  C   LIG     1      17.551  38.240  23.679  1.00  0.00     0.015 A 
HETATM   11  C   LIG     1      17.055  37.442  24.726  1.00  0.00     0.001 A 
HETATM   12  C   LIG     1      16.773  36.073  24.513  1.00  0.00     0.003 A 
HETATM   13  C   LIG     1      16.986  35.485  23.251  1.00  0.00     0.038 A 
ENDROOT
TORSDOF 0
ENDMDL
MODEL 4
REMARK VINA RESULT:      -7.3      1.151      2.202
REMARK  0 active torsions:
REMARK  status: ('A' for Active; 'I' for Inactive)
ROOT
HETATM    1  C   LIG     1      17.750  37.683  22.459  1.00  0.00     0.011 A 
HETATM    2  C   LIG     1      17.482  36.341  22.285  1.00  0.00     0.087 A 
HETATM    3  C   LIG     1      16.999  35.559  23.331  1.00  0.00     0.038 A 
HETATM    4  C   LIG     1      16.791  36.180  24.578  1.00  0.00     0.003 A 
HETATM    5  C   LIG     1      17.067  37.556  24.750  1.00  0.00     0.001 A 
HETATM    6  C   LIG     1      17.555  38.327  23.679  1.00  0.00     0.015 A 
HETATM    7  O   LIG     1      17.743  35.959  21.051  1.00  0.00    -0.309 OA
HETATM    8  C   LIG     1      18.178  37.028  20.412  1.00  0.00     0.087 A 
HETATM    9  C   LIG     1      18.203  38.129  21.241  1.00  0.00     0.011 A 
HETATM   10  C   LIG     1      18.625  39.381  20.800  1.00  0.00     0.015 A 
HETATM   11  C   LIG     1      19.033  39.494  19.458  1.00  0.00     0.001 A 
HETATM   12  C   LIG     1      19.010  38.368  18.603  1.00  0.00     0.003 A 
HETATM   13  C   LIG     1      18.577  37.116  19.080  1.00  0.00     0.038 A 
ENDROOT
TORSDOF 0
ENDMDL
MODEL 5
REMARK VINA RESULT:      -7.2      2.073      2.904
REMARK  0 active torsions:
REMARK  status: ('A' for Active; 'I' for Inactive)
ROOT
HETATM    1  C   LIG     1      17.365  35.642  24.342  1.00  0.00     0.011 A 
HETATM    2  C   LIG     1      17.723  36.964  24.504  1.00  0.00     0.087 A 
HETATM    3  C   LIG     1      18.159  37.450  25.734  1.00  0.00     0.038 A 
HETATM    4  C   LIG     1      18.225  36.548  26.814  1.00  0.00     0.003 A 
HETATM    5  C   LIG     1      17.858  35.193  26.642  1.00  0.00     0.001 A 
HETATM    6  C   LIG     1      17.420  34.725  25.389  1.00  0.00     0.015 A 
HETATM    7  O   LIG     1      17.589  37.636  23.378  1.00  0.00    -0.309 OA
HETATM    8  C   LIG     1      17.150  36.776  22.479  1.00  0.00     0.087 A 
HETATM    9  C   LIG     1      16.993  35.519  23.025  1.00  0.00     0.011 A 
HETATM   10  C   LIG     1      16.540  34.436  22.277  1.00  0.00     0.015 A 
HETATM   11  C   LIG     1      16.241  34.662  20.920  1.00  0.00     0.001 A 
HETATM   12  C   LIG     1      16.399  35.948  20.355  1.00  0.00     0.003 A 
HETATM   13  C   LIG     1      16.860  37.023  21.138  1.00  0.00     0.038 A 
ENDROOT
TORSDOF 0
ENDMDL
MODEL 6
REMARK VINA RESULT:      -7.1      1.769      5.134
REMARK  0 active torsions:
REMARK  status: ('A' for Active; 'I' for Inactive)
ROOT
HETATM    1  C   LIG     1      18.028  37.696  23.540  1.00  0.00     0.011 A 
HETATM    2  C   LIG     1      17.406  36.949  22.561  1.00  0.00     0.087 A 
HETATM    3  C   LIG     1      17.270  37.429  21.261  1.00  0.00     0.038 A 
HETATM    4  C   LIG     1      17.789  38.706  20.973  1.00  0.00     0.003 A 
HETATM    5  C   LIG     1      18.427  39.467  21.979  1.00  0.00     0.001 A 
HETATM    6  C   LIG     1      18.553  38.961  23.286  1.00  0.00     0.015 A 
HETATM    7  O   LIG     1      16.993  35.791  23.037  1.00  0.00    -0.309 OA
HETATM    8  C   LIG     1      17.335  35.765  24.310  1.00  0.00     0.087 A 
HETATM    9  C   LIG     1      17.982  36.926  24.677  1.00  0.00     0.011 A 
HETATM   10  C   LIG     1      18.444  37.141  25.973  1.00  0.00     0.015 A 
HETATM   11  C   LIG     1      18.228  36.121  26.918  1.00  0.00     0.001 A 
HETATM   12  C   LIG     1      17.564  34.928  26.548  1.00  0.00     0.003 A 
HETATM   13  C   LIG     1      17.109  34.741  25.229  1.00  0.00     0.038 A 
ENDROOT
TORSDOF 0
ENDMDL
MODEL 7
REMARK VINA RESULT:      -7.0      2.819      4.886
REMARK  0 active torsions:
REMARK  status: ('A' for Active; 'I' for Inactive)
ROOT
HETATM    1  C   LIG     1      16.778  35.508  23.247  1.00  0.00     0.011 A 
HETATM    2  C   LIG     1      16.314  36.763  22.911  1.00  0.00     0.087 A 
HETATM    3  C   LIG     1      15.656  36.993  21.706  1.00  0.00     0.038 A 
HETATM    4  C   LIG     1      15.477  35.902  20.834  1.00  0.00     0.003 A 
HETATM    5  C   LIG     1      15.953  34.617  21.183  1.00  0.00     0.001 A 
HETATM    6  C   LIG     1      16.615  34.408  22.407  1.00  0.00     0.015 A 
HETATM    7  O   LIG     1      16.583  37.639  23.859  1.00  0.00    -0.309 OA
HETATM    8  C   LIG     1      17.215  36.980  24.811  1.00  0.00     0.087 A 
HETATM    9  C   LIG     1      17.363  35.649  24.481  1.00  0.00     0.011 A 
HETATM   10  C   LIG     1      17.999  34.742  25.326  1.00  0.00     0.015 A 
HETATM   11  C   LIG     1      18.496  35.229  26.548  1.00  0.00     0.001 A 
HETATM   12  C   LIG     1      18.348  36.593  26.891  1.00  0.00     0.003 A 
HETATM   13  C   LIG     1      17.699  37.485  26.016  1.00  0.00     0.038 A 
ENDROOT
TORSDOF 0
ENDMDL
MODEL 8
REMARK VINA RESULT:      -7.0      1.434      4.706
REMARK  0 active torsions:
REMARK  status: ('A' for Active; 'I' for Inactive)
ROOT
HETATM    1  C   LIG     1      17.651  36.937  22.990  1.00  0.00     0.011 A 
HETATM    2  C   LIG     1      18.087  38.222  23.238  1.00  0.00     0.087 A 
HETATM    3  C   LIG     1      18.251  39.142  22.206  1.00  0.00     0.038 A 
HETATM    4  C   LIG     1      17.958  38.721  20.894  1.00  0.00     0.003 A 
HETATM    5  C   LIG     1      17.510  37.403  20.646  1.00  0.00     0.001 A 
HETATM    6  C   LIG     1      17.351  36.490  21.704  1.00  0.00     0.015 A 
HETATM    7  O   LIG     1      18.305  38.410  24.524  1.00  0.00    -0.309 OA
HETATM    8  C   LIG     1      18.019  37.272  25.124  1.00  0.00     0.087 A 
HETATM    9  C   LIG     1      17.607  36.319  24.216  1.00  0.00     0.011 A 
HETATM   10  C   LIG     1      17.247  35.031  24.604  1.00  0.00     0.015 A 
HETATM   11  C   LIG     1      17.317  34.720  25.974  1.00  0.00     0.001 A 
HETATM   12  C   LIG     1      17.739  35.692  26.910  1.00  0.00     0.003 A 
HETATM   13  C   LIG     1      18.096  36.987  26.486  1.00  0.00     0.038 A 
ENDROOT
TORSDOF 0
ENDMDL
MODEL 9
REMARK VINA RESULT:      -6.6      1.939      4.139
REMARK  0 active torsions:
REMARK  status: ('A' for Active; 'I' for Inactive)
ROOT
HETATM    1  C   LIG     1      18.054  37.047  20.378  1.00  0.00     0.011 A 
HETATM    2  C   LIG     1      17.925  38.070  21.294  1.00  0.00     0.087 A 
HETATM    3  C   LIG     1      18.827  39.130  21.326  1.00  0.00     0.038 A 
HETATM    4  C   LIG     1      19.880  39.129  20.392  1.00  0.00     0.003 A 
HETATM    5  C   LIG     1      20.007  38.078  19.453  1.00  0.00     0.001 A 
HETATM    6  C   LIG     1      19.083  37.017  19.439  1.00  0.00     0.015 A 
HETATM    7  O   LIG     1      16.880  37.881  22.075  1.00  0.00    -0.309 OA
HETATM    8  C   LIG     1      16.319  36.753  21.685  1.00  0.00     0.087 A 
HETATM    9  C   LIG     1      17.010  36.191  20.631  1.00  0.00     0.011 A 
HETATM   10  C   LIG     1      16.616  34.993  20.040  1.00  0.00     0.015 A 
HETATM   11  C   LIG     1      15.471  34.359  20.557  1.00  0.00     0.001 A 
HETATM   12  C   LIG     1      14.759  34.929  21.637  1.00  0.00     0.003 A 
HETATM   13  C   LIG     1      15.183  36.142  22.213  1.00  0.00     0.038 A 
ENDROOT
TORSDOF 0
ENDMDL
MODEL 10
REMARK VINA RESULT:      -6.5      2.104      3.205
REMARK  0 active torsions:
REMARK  status: ('A' for Active; 'I' for Inactive)
ROOT
HETATM    1  C   LIG     1      16.854  36.913  21.302  1.00  0.00     0.011 A 
HETATM    2  C   LIG     1      16.918  35.887  20.382  1.00  0.00     0.087 A 
HETATM    3  C   LIG     1      15.989  34.849  20.390  1.00  0.00     0.038 A 
HETATM    4  C   LIG     1      14.977  34.878  21.369  1.00  0.00     0.003 A 
HETATM    5  C   LIG     1      14.916  35.933  22.309  1.00  0.00     0.001 A 
HETATM    6  C   LIG     1      15.865  36.971  22.282  1.00  0.00     0.015 A 
HETATM    7  O   LIG     1      17.935  36.048  19.559  1.00  0.00    -0.309 OA
HETATM    8  C   LIG     1      18.538  37.163  19.921  1.00  0.00     0.087 A 
HETATM    9  C   LIG     1      17.907  37.743  21.002  1.00  0.00     0.011 A 
HETATM   10  C   LIG     1      18.355  38.931  21.573  1.00  0.00     0.015 A 
HETATM   11  C   LIG     1      19.492  39.537  21.007  1.00  0.00     0.001 A 
HETATM   12  C   LIG     1      20.144  38.947  19.900  1.00  0.00     0.003 A 
HETATM   13  C   LIG     1      19.665  37.745  19.344  1.00  0.00     0.038 A 
ENDROOT
TORSDOF 0
ENDMDL
MODEL 11
REMARK VINA RESULT:      -6.5      2.093      4.513
REMARK  0 active torsions:
REMARK  status: ('A' for Active; 'I' for Inactive)
ROOT
HETATM    1  C   LIG     1      17.906  37.733  21.009  1.00  0.00     0.011 A 
HETATM    2  C   LIG     1      18.537  37.175  19.917  1.00  0.00     0.087 A 
HETATM    3  C   LIG     1      19.653  37.776  19.341  1.00  0.00     0.038 A 
HETATM    4  C   LIG     1      20.121  38.977  19.908  1.00  0.00     0.003 A 
HETATM    5  C   LIG     1      19.471  39.545  21.028  1.00  0.00     0.001 A 
HETATM    6  C   LIG     1      18.345  38.919  21.594  1.00  0.00     0.015 A 
HETATM    7  O   LIG     1      17.943  36.059  19.543  1.00  0.00    -0.309 OA
HETATM    8  C   LIG     1      16.934  35.875  20.372  1.00  0.00     0.087 A 
HETATM    9  C   LIG     1      16.864  36.888  21.305  1.00  0.00     0.011 A 
HETATM   10  C   LIG     1      15.882  36.921  22.292  1.00  0.00     0.015 A 
HETATM   11  C   LIG     1      14.944  35.872  22.312  1.00  0.00     0.001 A 
HETATM   12  C   LIG     1      15.011  34.831  21.358  1.00  0.00     0.003 A 
HETATM   13  C   LIG     1      16.017  34.826  20.373  1.00  0.00     0.038 A 
ENDROOT
TORSDOF 0
ENDMDL
MODEL 12
REMARK VINA RESULT:      -6.5      1.937      2.748
REMARK  0 active torsions:
REMARK  status: ('A' for Active; 'I' for Inactive)
ROOT
HETATM    1  C   LIG     1      17.020  36.188  20.619  1.00  0.00     0.011 A 
HETATM    2  C   LIG     1      16.337  36.742  21.682  1.00  0.00     0.087 A 
HETATM    3  C   LIG     1      15.208  36.128  22.216  1.00  0.00     0.038 A 
HETATM    4  C   LIG     1      14.779  34.918  21.636  1.00  0.00     0.003 A 
HETATM    5  C   LIG     1      15.483  34.354  20.547  1.00  0.00     0.001 A 
HETATM    6  C   LIG     1      16.622  34.992  20.024  1.00  0.00     0.015 A 
HETATM    7  O   LIG     1      16.899  37.869  22.073  1.00  0.00    -0.309 OA
HETATM    8  C   LIG     1      17.938  38.063  21.285  1.00  0.00     0.087 A 
HETATM    9  C   LIG     1      18.061  37.047  20.360  1.00  0.00     0.011 A 
HETATM   10  C   LIG     1      19.082  37.023  19.414  1.00  0.00     0.015 A 
HETATM   11  C   LIG     1      20.005  38.085  19.426  1.00  0.00     0.001 A 
HETATM   12  C   LIG     1      19.885  39.130  20.371  1.00  0.00     0.003 A 
HETATM   13  C   LIG     1      18.840  39.125  21.315  1.00  0.00     0.038 A 
ENDROOT
TORSDOF 0
ENDMDL
MODEL 13
REMARK VINA RESULT:      -6.4      8.006      9.929
REMARK  0 active torsions:
REMARK  status: ('A' for Active; 'I' for Inactive)
ROOT
HETATM    1  C   LIG     1      16.118  32.371  14.439  1.00  0.00     0.011 A 
HETATM    2  C   LIG     1      16.509  33.353  15.325  1.00  0.00     0.087 A 
HETATM    3  C   LIG     1      17.525  34.251  15.008  1.00  0.00     0.038 A 
HETATM    4  C   LIG     1      18.146  34.127  13.750  1.00  0.00     0.003 A 
HETATM    5  C   LIG     1      17.740  33.119  12.845  1.00  0.00     0.001 A 
HETATM    6  C   LIG     1      16.711  32.223  13.187  1.00  0.00     0.015 A 
HETATM    7  O   LIG     1      15.806  33.297  16.439  1.00  0.00    -0.309 OA
HETATM    8  C   LIG     1      14.960  32.295  16.299  1.00  0.00     0.087 A 
HETATM    9  C   LIG     1      15.111  31.683  15.072  1.00  0.00     0.011 A 
HETATM   10  C   LIG     1      14.331  30.597  14.683  1.00  0.00     0.015 A 
HETATM   11  C   LIG     1      13.366  30.130  15.594  1.00  0.00     0.001 A 
HETATM   12  C   LIG     1      13.207  30.753  16.854  1.00  0.00     0.003 A 
HETATM   13  C   LIG     1      14.011  31.850  17.217  1.00  0.00     0.038 A 
ENDROOT
TORSDOF 0
ENDMDL
MODEL 14
REMARK VINA RESULT:      -6.3      8.015      9.217
REMARK  0 active torsions:
REMARK  status: ('A' for Active; 'I' for Inactive)
ROOT
HETATM    1  C   LIG     1      15.111  31.673  15.067  1.00  0.00     0.011 A 
HETATM    2  C   LIG     1      14.954  32.289  16.292  1.00  0.00     0.087 A 
HETATM    3  C   LIG     1      14.001  31.849  17.207  1.00  0.00     0.038 A 
HETATM    4  C   LIG     1      13.197  30.751  16.844  1.00  0.00     0.003 A 
HETATM    5  C   LIG     1      13.363  30.122  15.588  1.00  0.00     0.001 A 
HETATM    6  C   LIG     1      14.333  30.584  14.680  1.00  0.00     0.015 A 
HETATM    7  O   LIG     1      15.800  33.291  16.432  1.00  0.00    -0.309 OA
HETATM    8  C   LIG     1      16.509  33.342  15.321  1.00  0.00     0.087 A 
HETATM    9  C   LIG     1      16.122  32.357  14.437  1.00  0.00     0.011 A 
HETATM   10  C   LIG     1      16.721  32.202  13.189  1.00  0.00     0.015 A 
HETATM   11  C   LIG     1      17.754  33.096  12.849  1.00  0.00     0.001 A 
HETATM   12  C   LIG     1      18.155  34.107  13.751  1.00  0.00     0.003 A 
HETATM   13  C   LIG     1      17.529  34.237  15.005  1.00  0.00     0.038 A 
ENDROOT
TORSDOF 0
ENDMDL
MODEL 15
REMARK VINA RESULT:      -6.2      9.818     11.742
REMARK  0 active torsions:
REMARK  status: ('A' for Active; 'I' for Inactive)
ROOT
HETATM    1  C   LIG     1      14.028  29.357  14.567  1.00  0.00     0.011 A 
HETATM    2  C   LIG     1      15.288  29.364  14.006  1.00  0.00     0.087 A 
HETATM    3  C   LIG     1      15.703  28.349  13.147  1.00  0.00     0.038 A 
HETATM    4  C   LIG     1      14.794  27.310  12.867  1.00  0.00     0.003 A 
HETATM    5  C   LIG     1      13.503  27.309  13.444  1.00  0.00     0.001 A 
HETATM    6  C   LIG     1      13.106  28.345  14.309  1.00  0.00     0.015 A 
HETATM    7  O   LIG     1      15.978  30.417  14.396  1.00  0.00    -0.309 OA
HETATM    8  C   LIG     1      15.191  31.103  15.203  1.00  0.00     0.087 A 
HETATM    9  C   LIG     1      13.965  30.488  15.345  1.00  0.00     0.011 A 
HETATM   10  C   LIG     1      12.958  31.018  16.148  1.00  0.00     0.015 A 
HETATM   11  C   LIG     1      13.230  32.222  16.823  1.00  0.00     0.001 A 
HETATM   12  C   LIG     1      14.485  32.857  16.681  1.00  0.00     0.003 A 
HETATM   13  C   LIG     1      15.483  32.295  15.862  1.00  0.00     0.038 A 
ENDROOT
TORSDOF 0
ENDMDL
MODEL 16
REMARK VINA RESULT:      -6.2      9.862     11.461
REMARK  0 active torsions:
REMARK  status: ('A' for Active; 'I' for Inactive)
ROOT
HETATM    1  C   LIG     1      13.890  30.454  15.334  1.00  0.00     0.011 A 
HETATM    2  C   LIG     1      15.113  31.082  15.221  1.00  0.00     0.087 A 
HETATM    3  C   LIG     1      15.380  32.271  15.894  1.00  0.00     0.038 A 
HETATM    4  C   LIG     1      14.360  32.818  16.697  1.00  0.00     0.003 A 
HETATM    5  C   LIG     1      13.109  32.169  16.810  1.00  0.00     0.001 A 
HETATM    6  C   LIG     1      12.861  30.968  16.121  1.00  0.00     0.015 A 
HETATM    7  O   LIG     1      15.921  30.410  14.426  1.00  0.00    -0.309 OA
HETATM    8  C   LIG     1      15.250  29.352  14.015  1.00  0.00     0.087 A 
HETATM    9  C   LIG     1      13.979  29.329  14.550  1.00  0.00     0.011 A 
HETATM   10  C   LIG     1      13.073  28.310  14.267  1.00  0.00     0.015 A 
HETATM   11  C   LIG     1      13.498  27.283  13.403  1.00  0.00     0.001 A 
HETATM   12  C   LIG     1      14.799  27.301  12.852  1.00  0.00     0.003 A 
HETATM   13  C   LIG     1      15.692  28.346  13.158  1.00  0.00     0.038 A 
ENDROOT
TORSDOF 0
ENDMDL
MODEL 17
REMARK VINA RESULT:      -6.2      3.031      5.324
REMARK  0 active torsions:
REMARK  status: ('A' for Active; 'I' for Inactive)
ROOT
HETATM    1  C   LIG     1      16.642  36.509  23.432  1.00  0.00     0.011 A 
HETATM    2  C   LIG     1      16.644  35.170  23.099  1.00  0.00     0.087 A 
HETATM    3  C   LIG     1      16.078  34.719  21.910  1.00  0.00     0.038 A 
HETATM    4  C   LIG     1      15.498  35.674  21.052  1.00  0.00     0.003 A 
HETATM    5  C   LIG     1      15.499  37.046  21.398  1.00  0.00     0.001 A 
HETATM    6  C   LIG     1      16.078  37.478  22.606  1.00  0.00     0.015 A 
HETATM    7  O   LIG     1      17.232  34.448  24.033  1.00  0.00    -0.309 OA
HETATM    8  C   LIG     1      17.615  35.290  24.972  1.00  0.00     0.087 A 
HETATM    9  C   LIG     1      17.273  36.587  24.650  1.00  0.00     0.011 A 
HETATM   10  C   LIG     1      17.570  37.662  25.484  1.00  0.00     0.015 A 
HETATM   11  C   LIG     1      18.243  37.384  26.689  1.00  0.00     0.001 A 
HETATM   12  C   LIG     1      18.595  36.057  27.025  1.00  0.00     0.003 A 
HETATM   13  C   LIG     1      18.281  34.992  26.160  1.00  0.00     0.038 A 
ENDROOT
TORSDOF 0
ENDMDL
MODEL 18
REMARK VINA RESULT:      -6.1      8.344     10.018
REMARK  0 active torsions:
REMARK  status: ('A' for Active; 'I' for Inactive)
ROOT
HETATM    1  C   LIG     1      15.118  31.774  15.197  1.00  0.00     0.011 A 
HETATM    2  C   LIG     1      15.078  30.867  14.158  1.00  0.00     0.087 A 
HETATM    3  C   LIG     1      14.187  29.797  14.165  1.00  0.00     0.038 A 
HETATM    4  C   LIG     1      13.323  29.667  15.269  1.00  0.00     0.003 A 
HETATM    5  C   LIG     1      13.367  30.599  16.331  1.00  0.00     0.001 A 
HETATM    6  C   LIG     1      14.276  31.673  16.302  1.00  0.00     0.015 A 
HETATM    7  O   LIG     1      15.965  31.168  13.230  1.00  0.00    -0.309 OA
HETATM    8  C   LIG     1      16.584  32.257  13.641  1.00  0.00     0.087 A 
HETATM    9  C   LIG     1      16.097  32.678  14.861  1.00  0.00     0.011 A 
HETATM   10  C   LIG     1      16.590  33.808  15.507  1.00  0.00     0.015 A 
HETATM   11  C   LIG     1      17.619  34.525  14.870  1.00  0.00     0.001 A 
HETATM   12  C   LIG     1      18.124  34.099  13.620  1.00  0.00     0.003 A 
HETATM   13  C   LIG     1      17.604  32.951  12.992  1.00  0.00     0.038 A 
ENDROOT
TORSDOF 0
ENDMDL
MODEL 19
REMARK VINA RESULT:      -6.1      8.321     10.514
REMARK  0 active torsions:
REMARK  status: ('A' for Active; 'I' for Inactive)
ROOT
HETATM    1  C   LIG     1      16.085  32.693  14.872  1.00  0.00     0.011 A 
HETATM    2  C   LIG     1      16.586  32.279  13.656  1.00  0.00     0.087 A 
HETATM    3  C   LIG     1      17.604  32.982  13.016  1.00  0.00     0.038 A 
HETATM    4  C   LIG     1      18.108  34.134  13.649  1.00  0.00     0.003 A 
HETATM    5  C   LIG     1      17.591  34.554  14.897  1.00  0.00     0.001 A 
HETATM    6  C   LIG     1      16.563  33.827  15.525  1.00  0.00     0.015 A 
HETATM    7  O   LIG     1      15.980  31.186  13.238  1.00  0.00    -0.309 OA
HETATM    8  C   LIG     1      15.089  30.875  14.159  1.00  0.00     0.087 A 
HETATM    9  C   LIG     1      15.112  31.780  15.200  1.00  0.00     0.011 A 
HETATM   10  C   LIG     1      14.263  31.669  16.298  1.00  0.00     0.015 A 
HETATM   11  C   LIG     1      13.363  30.587  16.319  1.00  0.00     0.001 A 
HETATM   12  C   LIG     1      13.336  29.656  15.255  1.00  0.00     0.003 A 
HETATM   13  C   LIG     1      14.208  29.796  14.158  1.00  0.00     0.038 A 
ENDROOT
TORSDOF 0
ENDMDL
MODEL 20
REMARK VINA RESULT:      -5.8      9.536     11.213
REMARK  0 active torsions:
REMARK  status: ('A' for Active; 'I' for Inactive)
ROOT
HETATM    1  C   LIG     1      14.769  30.995  15.268  1.00  0.00     0.011 A 
HETATM    2  C   LIG     1      13.535  31.136  15.870  1.00  0.00     0.087 A 
HETATM    3  C   LIG     1      13.249  32.226  16.688  1.00  0.00     0.038 A 
HETATM    4  C   LIG     1      14.261  33.185  16.886  1.00  0.00     0.003 A 
HETATM    5  C   LIG     1      15.524  33.037  16.266  1.00  0.00     0.001 A 
HETATM    6  C   LIG     1      15.790  31.927  15.443  1.00  0.00     0.015 A 
HETATM    7  O   LIG     1      12.736  30.135  15.558  1.00  0.00    -0.309 OA
HETATM    8  C   LIG     1      13.424  29.340  14.762  1.00  0.00     0.087 A 
HETATM    9  C   LIG     1      14.696  29.828  14.548  1.00  0.00     0.011 A 
HETATM   10  C   LIG     1      15.619  29.167  13.741  1.00  0.00     0.015 A 
HETATM   11  C   LIG     1      15.210  27.964  13.137  1.00  0.00     0.001 A 
HETATM   12  C   LIG     1      13.907  27.458  13.352  1.00  0.00     0.003 A 
HETATM   13  C   LIG     1      12.997  28.151  14.174  1.00  0.00     0.038 A 
ENDROOT
TORSDOF 0
ENDMDL
