MODEL 1
REMARK VINA RESULT:      -7.1      0.000      0.000
REMARK  0 active torsions:
REMARK  status: ('A' for Active; 'I' for Inactive)
ROOT
HETATM    1  C   LIG     1      17.372  35.742  24.312  1.00  0.00    -0.007 A 
HETATM    2  C   LIG     1      17.435  34.726  25.274  1.00  0.00     0.013 A 
HETATM    3  C   LIG     1      17.850  35.050  26.577  1.00  0.00     0.001 A 
HETATM    4  C   LIG     1      18.197  36.373  26.909  1.00  0.00     0.001 A 
HETATM    5  C   LIG     1      18.132  37.387  25.942  1.00  0.00     0.020 A 
HETATM    6  C   LIG     1      17.719  37.048  24.656  1.00  0.00     0.016 A 
HETATM    7  S   LIG     1      17.557  38.072  23.324  1.00  0.00    -0.089 SA
HETATM    8  C   LIG     1      17.039  36.843  22.290  1.00  0.00     0.016 A 
HETATM    9  C   LIG     1      16.986  35.625  22.968  1.00  0.00    -0.007 A 
HETATM   10  C   LIG     1      16.579  34.467  22.294  1.00  0.00     0.013 A 
HETATM   11  C   LIG     1      16.229  34.559  20.936  1.00  0.00     0.001 A 
HETATM   12  C   LIG     1      16.288  35.795  20.265  1.00  0.00     0.001 A 
HETATM   13  C   LIG     1      16.697  36.953  20.944  1.00  0.00     0.020 A 
ENDROOT
TORSDOF 0
ENDMDL
MODEL 2
REMARK VINA RESULT:      -7.1      0.014      4.434
REMARK  0 active torsions:
REMARK  status: ('A' for Active; 'I' for Inactive)
ROOT
HETATM    1  C   LIG     1      16.984  35.625  22.957  1.00  0.00    -0.007 A 
HETATM    2  C   LIG     1      16.573  34.466  22.287  1.00  0.00     0.013 A 
HETATM    3  C   LIG     1      16.223  34.554  20.929  1.00  0.00     0.001 A 
HETATM    4  C   LIG     1      16.284  35.788  20.254  1.00  0.00     0.001 A 
HETATM    5  C   LIG     1      16.696  36.947  20.930  1.00  0.00     0.020 A 
HETATM    6  C   LIG     1      17.039  36.840  22.275  1.00  0.00     0.016 A 
HETATM    7  S   LIG     1      17.561  38.071  23.305  1.00  0.00    -0.089 SA
HETATM    8  C   LIG     1      17.721  37.051  24.640  1.00  0.00     0.016 A 
HETATM    9  C   LIG     1      17.371  35.745  24.301  1.00  0.00    -0.007 A 
HETATM   10  C   LIG     1      17.432  34.732  25.266  1.00  0.00     0.013 A 
HETATM   11  C   LIG     1      17.849  35.058  26.567  1.00  0.00     0.001 A 
HETATM   12  C   LIG     1      18.200  36.382  26.895  1.00  0.00     0.001 A 
HETATM   13  C   LIG     1      18.136  37.393  25.925  1.00  0.00     0.020 A 
ENDROOT
TORSDOF 0
ENDMDL
MODEL 3
REMARK VINA RESULT:      -6.9      2.295      5.355
REMARK  0 active torsions:
REMARK  status: ('A' for Active; 'I' for Inactive)
ROOT
HETATM    1  C   LIG     1      18.293  38.132  21.289  1.00  0.00    -0.007 A 
HETATM    2  C   LIG     1      18.866  39.319  20.815  1.00  0.00     0.013 A 
HETATM    3  C   LIG     1      19.207  39.412  19.454  1.00  0.00     0.001 A 
HETATM    4  C   LIG     1      18.978  38.329  18.585  1.00  0.00     0.001 A 
HETATM    5  C   LIG     1      18.403  37.143  19.065  1.00  0.00     0.020 A 
HETATM    6  C   LIG     1      18.072  37.069  20.415  1.00  0.00     0.016 A 
HETATM    7  S   LIG     1      17.377  35.767  21.234  1.00  0.00    -0.089 SA
HETATM    8  C   LIG     1      17.354  36.561  22.723  1.00  0.00     0.016 A 
HETATM    9  C   LIG     1      17.886  37.844  22.601  1.00  0.00    -0.007 A 
HETATM   10  C   LIG     1      17.963  38.679  23.723  1.00  0.00     0.013 A 
HETATM   11  C   LIG     1      17.497  38.200  24.958  1.00  0.00     0.001 A 
HETATM   12  C   LIG     1      16.962  36.902  25.067  1.00  0.00     0.001 A 
HETATM   13  C   LIG     1      16.889  36.069  23.941  1.00  0.00     0.020 A 
ENDROOT
TORSDOF 0
ENDMDL
MODEL 4
REMARK VINA RESULT:      -6.9      2.289      3.596
REMARK  0 active torsions:
REMARK  status: ('A' for Active; 'I' for Inactive)
ROOT
HETATM    1  C   LIG     1      17.890  37.834  22.606  1.00  0.00    -0.007 A 
HETATM    2  C   LIG     1      17.966  38.671  23.727  1.00  0.00     0.013 A 
HETATM    3  C   LIG     1      17.505  38.191  24.965  1.00  0.00     0.001 A 
HETATM    4  C   LIG     1      16.977  36.891  25.076  1.00  0.00     0.001 A 
HETATM    5  C   LIG     1      16.903  36.057  23.951  1.00  0.00     0.020 A 
HETATM    6  C   LIG     1      17.363  36.549  22.732  1.00  0.00     0.016 A 
HETATM    7  S   LIG     1      17.386  35.754  21.244  1.00  0.00    -0.089 SA
HETATM    8  C   LIG     1      18.074  37.058  20.422  1.00  0.00     0.016 A 
HETATM    9  C   LIG     1      18.293  38.123  21.293  1.00  0.00    -0.007 A 
HETATM   10  C   LIG     1      18.859  39.312  20.816  1.00  0.00     0.013 A 
HETATM   11  C   LIG     1      19.197  39.404  19.456  1.00  0.00     0.001 A 
HETATM   12  C   LIG     1      18.970  38.320  18.587  1.00  0.00     0.001 A 
HETATM   13  C   LIG     1      18.401  37.132  19.070  1.00  0.00     0.020 A 
ENDROOT
TORSDOF 0
ENDMDL
MODEL 5
REMARK VINA RESULT:      -6.8      1.580      2.846
REMARK  0 active torsions:
REMARK  status: ('A' for Active; 'I' for Inactive)
ROOT
HETATM    1  C   LIG     1      17.904  36.844  24.500  1.00  0.00    -0.007 A 
HETATM    2  C   LIG     1      18.331  37.196  25.787  1.00  0.00     0.013 A 
HETATM    3  C   LIG     1      18.151  36.279  26.836  1.00  0.00     0.001 A 
HETATM    4  C   LIG     1      17.551  35.028  26.597  1.00  0.00     0.001 A 
HETATM    5  C   LIG     1      17.125  34.680  25.307  1.00  0.00     0.020 A 
HETATM    6  C   LIG     1      17.311  35.602  24.279  1.00  0.00     0.016 A 
HETATM    7  S   LIG     1      16.891  35.429  22.654  1.00  0.00    -0.089 SA
HETATM    8  C   LIG     1      17.469  36.954  22.218  1.00  0.00     0.016 A 
HETATM    9  C   LIG     1      17.993  37.613  23.329  1.00  0.00    -0.007 A 
HETATM   10  C   LIG     1      18.529  38.900  23.191  1.00  0.00     0.013 A 
HETATM   11  C   LIG     1      18.526  39.503  21.922  1.00  0.00     0.001 A 
HETATM   12  C   LIG     1      17.992  38.826  20.809  1.00  0.00     0.001 A 
HETATM   13  C   LIG     1      17.456  37.537  20.953  1.00  0.00     0.020 A 
ENDROOT
TORSDOF 0
ENDMDL
MODEL 6
REMARK VINA RESULT:      -6.8      1.581      4.750
REMARK  0 active torsions:
REMARK  status: ('A' for Active; 'I' for Inactive)
ROOT
HETATM    1  C   LIG     1      17.996  37.612  23.327  1.00  0.00    -0.007 A 
HETATM    2  C   LIG     1      18.535  38.898  23.189  1.00  0.00     0.013 A 
HETATM    3  C   LIG     1      18.532  39.502  21.920  1.00  0.00     0.001 A 
HETATM    4  C   LIG     1      17.997  38.826  20.807  1.00  0.00     0.001 A 
HETATM    5  C   LIG     1      17.458  37.539  20.951  1.00  0.00     0.020 A 
HETATM    6  C   LIG     1      17.470  36.955  22.215  1.00  0.00     0.016 A 
HETATM    7  S   LIG     1      16.889  35.432  22.650  1.00  0.00    -0.089 SA
HETATM    8  C   LIG     1      17.310  35.603  24.276  1.00  0.00     0.016 A 
HETATM    9  C   LIG     1      17.906  36.843  24.498  1.00  0.00    -0.007 A 
HETATM   10  C   LIG     1      18.335  37.193  25.784  1.00  0.00     0.013 A 
HETATM   11  C   LIG     1      18.152  36.276  26.833  1.00  0.00     0.001 A 
HETATM   12  C   LIG     1      17.549  35.027  26.594  1.00  0.00     0.001 A 
HETATM   13  C   LIG     1      17.122  34.681  25.303  1.00  0.00     0.020 A 
ENDROOT
TORSDOF 0
ENDMDL
MODEL 7
REMARK VINA RESULT:      -6.8      2.031      4.778
REMARK  0 active torsions:
REMARK  status: ('A' for Active; 'I' for Inactive)
ROOT
HETATM    1  C   LIG     1      18.113  37.343  20.973  1.00  0.00    -0.007 A 
HETATM    2  C   LIG     1      18.307  36.713  19.738  1.00  0.00     0.013 A 
HETATM    3  C   LIG     1      18.750  37.479  18.646  1.00  0.00     0.001 A 
HETATM    4  C   LIG     1      18.994  38.857  18.793  1.00  0.00     0.001 A 
HETATM    5  C   LIG     1      18.800  39.485  20.032  1.00  0.00     0.020 A 
HETATM    6  C   LIG     1      18.360  38.710  21.103  1.00  0.00     0.016 A 
HETATM    7  S   LIG     1      18.052  39.218  22.682  1.00  0.00    -0.089 SA
HETATM    8  C   LIG     1      17.597  37.682  23.216  1.00  0.00     0.016 A 
HETATM    9  C   LIG     1      17.679  36.760  22.174  1.00  0.00    -0.007 A 
HETATM   10  C   LIG     1      17.344  35.418  22.399  1.00  0.00     0.013 A 
HETATM   11  C   LIG     1      16.929  35.030  23.684  1.00  0.00     0.001 A 
HETATM   12  C   LIG     1      16.851  35.972  24.726  1.00  0.00     0.001 A 
HETATM   13  C   LIG     1      17.186  37.315  24.495  1.00  0.00     0.020 A 
ENDROOT
TORSDOF 0
ENDMDL
MODEL 8
REMARK VINA RESULT:      -6.8      2.033      3.005
REMARK  0 active torsions:
REMARK  status: ('A' for Active; 'I' for Inactive)
ROOT
HETATM    1  C   LIG     1      17.685  36.773  22.184  1.00  0.00    -0.007 A 
HETATM    2  C   LIG     1      17.353  35.432  22.419  1.00  0.00     0.013 A 
HETATM    3  C   LIG     1      16.939  35.051  23.707  1.00  0.00     0.001 A 
HETATM    4  C   LIG     1      16.860  36.001  24.743  1.00  0.00     0.001 A 
HETATM    5  C   LIG     1      17.194  37.342  24.503  1.00  0.00     0.020 A 
HETATM    6  C   LIG     1      17.602  37.702  23.221  1.00  0.00     0.016 A 
HETATM    7  S   LIG     1      18.053  39.234  22.677  1.00  0.00    -0.089 SA
HETATM    8  C   LIG     1      18.360  38.717  21.100  1.00  0.00     0.016 A 
HETATM    9  C   LIG     1      18.116  37.349  20.979  1.00  0.00    -0.007 A 
HETATM   10  C   LIG     1      18.309  36.710  19.748  1.00  0.00     0.013 A 
HETATM   11  C   LIG     1      18.749  37.470  18.651  1.00  0.00     0.001 A 
HETATM   12  C   LIG     1      18.992  38.850  18.788  1.00  0.00     0.001 A 
HETATM   13  C   LIG     1      18.798  39.485  20.024  1.00  0.00     0.020 A 
ENDROOT
TORSDOF 0
ENDMDL
MODEL 9
REMARK VINA RESULT:      -6.5      3.120      4.523
REMARK  0 active torsions:
REMARK  status: ('A' for Active; 'I' for Inactive)
ROOT
HETATM    1  C   LIG     1      16.970  36.235  20.679  1.00  0.00    -0.007 A 
HETATM    2  C   LIG     1      16.641  35.069  19.975  1.00  0.00     0.013 A 
HETATM    3  C   LIG     1      15.533  34.312  20.394  1.00  0.00     0.001 A 
HETATM    4  C   LIG     1      14.769  34.718  21.504  1.00  0.00     0.001 A 
HETATM    5  C   LIG     1      15.102  35.887  22.206  1.00  0.00     0.020 A 
HETATM    6  C   LIG     1      16.203  36.624  21.777  1.00  0.00     0.016 A 
HETATM    7  S   LIG     1      16.808  38.052  22.442  1.00  0.00    -0.089 SA
HETATM    8  C   LIG     1      18.064  38.183  21.323  1.00  0.00     0.016 A 
HETATM    9  C   LIG     1      18.028  37.120  20.421  1.00  0.00    -0.007 A 
HETATM   10  C   LIG     1      18.986  37.033  19.403  1.00  0.00     0.013 A 
HETATM   11  C   LIG     1      19.972  38.030  19.313  1.00  0.00     0.001 A 
HETATM   12  C   LIG     1      19.997  39.097  20.230  1.00  0.00     0.001 A 
HETATM   13  C   LIG     1      19.035  39.179  21.249  1.00  0.00     0.020 A 
ENDROOT
TORSDOF 0
ENDMDL
MODEL 10
REMARK VINA RESULT:      -6.4      3.121      4.321
REMARK  0 active torsions:
REMARK  status: ('A' for Active; 'I' for Inactive)
ROOT
HETATM    1  C   LIG     1      17.994  37.106  20.435  1.00  0.00    -0.007 A 
HETATM    2  C   LIG     1      18.953  37.049  19.415  1.00  0.00     0.013 A 
HETATM    3  C   LIG     1      19.924  38.062  19.339  1.00  0.00     0.001 A 
HETATM    4  C   LIG     1      19.931  39.117  20.271  1.00  0.00     0.001 A 
HETATM    5  C   LIG     1      18.968  39.170  21.290  1.00  0.00     0.020 A 
HETATM    6  C   LIG     1      18.013  38.158  21.350  1.00  0.00     0.016 A 
HETATM    7  S   LIG     1      16.759  37.991  22.467  1.00  0.00    -0.089 SA
HETATM    8  C   LIG     1      16.178  36.563  21.782  1.00  0.00     0.016 A 
HETATM    9  C   LIG     1      16.950  36.200  20.679  1.00  0.00    -0.007 A 
HETATM   10  C   LIG     1      16.640  35.040  19.959  1.00  0.00     0.013 A 
HETATM   11  C   LIG     1      15.546  34.259  20.369  1.00  0.00     0.001 A 
HETATM   12  C   LIG     1      14.774  34.638  21.484  1.00  0.00     0.001 A 
HETATM   13  C   LIG     1      15.089  35.802  22.201  1.00  0.00     0.020 A 
ENDROOT
TORSDOF 0
ENDMDL
MODEL 11
REMARK VINA RESULT:      -6.0      8.930     10.193
REMARK  0 active torsions:
REMARK  status: ('A' for Active; 'I' for Inactive)
ROOT
HETATM    1  C   LIG     1      16.076  32.363  14.441  1.00  0.00    -0.007 A 
HETATM    2  C   LIG     1      16.783  32.204  13.242  1.00  0.00     0.013 A 
HETATM    3  C   LIG     1      17.812  33.111  12.935  1.00  0.00     0.001 A 
HETATM    4  C   LIG     1      18.125  34.162  13.818  1.00  0.00     0.001 A 
HETATM    5  C   LIG     1      17.414  34.317  15.017  1.00  0.00     0.020 A 
HETATM    6  C   LIG     1      16.398  33.409  15.305  1.00  0.00     0.016 A 
HETATM    7  S   LIG     1      15.403  33.376  16.668  1.00  0.00    -0.089 SA
HETATM    8  C   LIG     1      14.547  32.013  16.158  1.00  0.00     0.016 A 
HETATM    9  C   LIG     1      15.024  31.570  14.925  1.00  0.00    -0.007 A 
HETATM   10  C   LIG     1      14.451  30.446  14.317  1.00  0.00     0.013 A 
HETATM   11  C   LIG     1      13.398  29.785  14.970  1.00  0.00     0.001 A 
HETATM   12  C   LIG     1      12.926  30.243  16.214  1.00  0.00     0.001 A 
HETATM   13  C   LIG     1      13.503  31.371  16.819  1.00  0.00     0.020 A 
ENDROOT
TORSDOF 0
ENDMDL
MODEL 12
REMARK VINA RESULT:      -5.9      8.957     10.165
REMARK  0 active torsions:
REMARK  status: ('A' for Active; 'I' for Inactive)
ROOT
HETATM    1  C   LIG     1      15.054  31.539  14.876  1.00  0.00    -0.007 A 
HETATM    2  C   LIG     1      14.492  30.419  14.248  1.00  0.00     0.013 A 
HETATM    3  C   LIG     1      13.443  29.738  14.888  1.00  0.00     0.001 A 
HETATM    4  C   LIG     1      12.964  30.174  16.138  1.00  0.00     0.001 A 
HETATM    5  C   LIG     1      13.530  31.296  16.762  1.00  0.00     0.020 A 
HETATM    6  C   LIG     1      14.570  31.958  16.114  1.00  0.00     0.016 A 
HETATM    7  S   LIG     1      15.412  33.319  16.647  1.00  0.00    -0.089 SA
HETATM    8  C   LIG     1      16.411  33.382  15.288  1.00  0.00     0.016 A 
HETATM    9  C   LIG     1      16.101  32.347  14.406  1.00  0.00    -0.007 A 
HETATM   10  C   LIG     1      16.812  32.213  13.207  1.00  0.00     0.013 A 
HETATM   11  C   LIG     1      17.833  33.134  12.917  1.00  0.00     0.001 A 
HETATM   12  C   LIG     1      18.135  34.174  13.817  1.00  0.00     0.001 A 
HETATM   13  C   LIG     1      17.420  34.303  15.017  1.00  0.00     0.020 A 
ENDROOT
TORSDOF 0
ENDMDL
MODEL 13
REMARK VINA RESULT:      -5.7      8.818     10.392
REMARK  0 active torsions:
REMARK  status: ('A' for Active; 'I' for Inactive)
ROOT
HETATM    1  C   LIG     1      16.173  32.777  14.898  1.00  0.00    -0.007 A 
HETATM    2  C   LIG     1      16.884  33.898  15.347  1.00  0.00     0.013 A 
HETATM    3  C   LIG     1      17.883  34.443  14.523  1.00  0.00     0.001 A 
HETATM    4  C   LIG     1      18.165  33.871  13.268  1.00  0.00     0.001 A 
HETATM    5  C   LIG     1      17.451  32.749  12.823  1.00  0.00     0.020 A 
HETATM    6  C   LIG     1      16.465  32.222  13.653  1.00  0.00     0.016 A 
HETATM    7  S   LIG     1      15.473  30.890  13.354  1.00  0.00    -0.089 SA
HETATM    8  C   LIG     1      14.658  31.014  14.827  1.00  0.00     0.016 A 
HETATM    9  C   LIG     1      15.147  32.091  15.566  1.00  0.00    -0.007 A 
HETATM   10  C   LIG     1      14.608  32.376  16.827  1.00  0.00     0.013 A 
HETATM   11  C   LIG     1      13.576  31.563  17.323  1.00  0.00     0.001 A 
HETATM   12  C   LIG     1      13.092  30.479  16.566  1.00  0.00     0.001 A 
HETATM   13  C   LIG     1      13.636  30.197  15.304  1.00  0.00     0.020 A 
ENDROOT
TORSDOF 0
ENDMDL
MODEL 14
REMARK VINA RESULT:      -5.7      8.707     10.139
REMARK  0 active torsions:
REMARK  status: ('A' for Active; 'I' for Inactive)
ROOT
HETATM    1  C   LIG     1      15.254  32.166  15.588  1.00  0.00    -0.007 A 
HETATM    2  C   LIG     1      14.775  32.503  16.861  1.00  0.00     0.013 A 
HETATM    3  C   LIG     1      13.747  31.730  17.426  1.00  0.00     0.001 A 
HETATM    4  C   LIG     1      13.208  30.635  16.724  1.00  0.00     0.001 A 
HETATM    5  C   LIG     1      13.691  30.301  15.450  1.00  0.00     0.020 A 
HETATM    6  C   LIG     1      14.710  31.079  14.905  1.00  0.00     0.016 A 
HETATM    7  S   LIG     1      15.459  30.890  13.405  1.00  0.00    -0.089 SA
HETATM    8  C   LIG     1      16.492  32.207  13.620  1.00  0.00     0.016 A 
HETATM    9  C   LIG     1      16.266  32.808  14.857  1.00  0.00    -0.007 A 
HETATM   10  C   LIG     1      17.019  33.926  15.240  1.00  0.00     0.013 A 
HETATM   11  C   LIG     1      17.995  34.420  14.359  1.00  0.00     0.001 A 
HETATM   12  C   LIG     1      18.212  33.804  13.112  1.00  0.00     0.001 A 
HETATM   13  C   LIG     1      17.454  32.685  12.733  1.00  0.00     0.020 A 
ENDROOT
TORSDOF 0
ENDMDL
MODEL 15
REMARK VINA RESULT:      -5.3      8.356     11.333
REMARK  0 active torsions:
REMARK  status: ('A' for Active; 'I' for Inactive)
ROOT
HETATM    1  C   LIG     1      14.829  29.994  14.531  1.00  0.00    -0.007 A 
HETATM    2  C   LIG     1      15.644  29.268  13.652  1.00  0.00     0.013 A 
HETATM    3  C   LIG     1      15.165  28.056  13.128  1.00  0.00     0.001 A 
HETATM    4  C   LIG     1      13.888  27.579  13.480  1.00  0.00     0.001 A 
HETATM    5  C   LIG     1      13.076  28.309  14.361  1.00  0.00     0.020 A 
HETATM    6  C   LIG     1      13.567  29.508  14.871  1.00  0.00     0.016 A 
HETATM    7  S   LIG     1      12.796  30.565  15.937  1.00  0.00    -0.089 SA
HETATM    8  C   LIG     1      14.080  31.659  15.973  1.00  0.00     0.016 A 
HETATM    9  C   LIG     1      15.121  31.216  15.157  1.00  0.00    -0.007 A 
HETATM   10  C   LIG     1      16.291  31.977  15.041  1.00  0.00     0.013 A 
HETATM   11  C   LIG     1      16.390  33.183  15.755  1.00  0.00     0.001 A 
HETATM   12  C   LIG     1      15.331  33.618  16.575  1.00  0.00     0.001 A 
HETATM   13  C   LIG     1      14.161  32.850  16.689  1.00  0.00     0.020 A 
ENDROOT
TORSDOF 0
ENDMDL
MODEL 16
REMARK VINA RESULT:      -5.3      8.272     10.746
REMARK  0 active torsions:
REMARK  status: ('A' for Active; 'I' for Inactive)
ROOT
HETATM    1  C   LIG     1      15.114  31.318  15.214  1.00  0.00    -0.007 A 
HETATM    2  C   LIG     1      16.272  32.096  15.087  1.00  0.00     0.013 A 
HETATM    3  C   LIG     1      16.365  33.298  15.809  1.00  0.00     0.001 A 
HETATM    4  C   LIG     1      15.311  33.713  16.645  1.00  0.00     0.001 A 
HETATM    5  C   LIG     1      14.153  32.930  16.769  1.00  0.00     0.020 A 
HETATM    6  C   LIG     1      14.079  31.742  16.045  1.00  0.00     0.016 A 
HETATM    7  S   LIG     1      12.809  30.632  16.019  1.00  0.00    -0.089 SA
HETATM    8  C   LIG     1      13.580  29.593  14.935  1.00  0.00     0.016 A 
HETATM    9  C   LIG     1      14.831  30.097  14.582  1.00  0.00    -0.007 A 
HETATM   10  C   LIG     1      15.643  29.389  13.687  1.00  0.00     0.013 A 
HETATM   11  C   LIG     1      15.174  28.174  13.162  1.00  0.00     0.001 A 
HETATM   12  C   LIG     1      13.909  27.677  13.527  1.00  0.00     0.001 A 
HETATM   13  C   LIG     1      13.098  28.391  14.422  1.00  0.00     0.020 A 
ENDROOT
TORSDOF 0
ENDMDL
MODEL 17
REMARK VINA RESULT:      -5.0      2.377      4.718
REMARK  0 active torsions:
REMARK  status: ('A' for Active; 'I' for Inactive)
ROOT
HETATM    1  C   LIG     1      16.475  35.929  21.482  1.00  0.00    -0.007 A 
HETATM    2  C   LIG     1      15.569  35.036  22.069  1.00  0.00     0.013 A 
HETATM    3  C   LIG     1      14.990  34.034  21.270  1.00  0.00     0.001 A 
HETATM    4  C   LIG     1      15.316  33.931  19.905  1.00  0.00     0.001 A 
HETATM    5  C   LIG     1      16.224  34.828  19.322  1.00  0.00     0.020 A 
HETATM    6  C   LIG     1      16.787  35.815  20.128  1.00  0.00     0.016 A 
HETATM    7  S   LIG     1      17.895  37.004  19.676  1.00  0.00    -0.089 SA
HETATM    8  C   LIG     1      17.984  37.679  21.220  1.00  0.00     0.016 A 
HETATM    9  C   LIG     1      17.154  36.989  22.103  1.00  0.00    -0.007 A 
HETATM   10  C   LIG     1      17.075  37.386  23.444  1.00  0.00     0.013 A 
HETATM   11  C   LIG     1      17.843  38.481  23.873  1.00  0.00     0.001 A 
HETATM   12  C   LIG     1      18.676  39.169  22.971  1.00  0.00     0.001 A 
HETATM   13  C   LIG     1      18.750  38.769  21.628  1.00  0.00     0.020 A 
ENDROOT
TORSDOF 0
ENDMDL
MODEL 18
REMARK VINA RESULT:      -5.0      2.368      3.163
REMARK  0 active torsions:
REMARK  status: ('A' for Active; 'I' for Inactive)
ROOT
HETATM    1  C   LIG     1      17.155  36.988  22.115  1.00  0.00    -0.007 A 
HETATM    2  C   LIG     1      17.076  37.380  23.457  1.00  0.00     0.013 A 
HETATM    3  C   LIG     1      17.842  38.476  23.890  1.00  0.00     0.001 A 
HETATM    4  C   LIG     1      18.675  39.166  22.989  1.00  0.00     0.001 A 
HETATM    5  C   LIG     1      18.750  38.770  21.645  1.00  0.00     0.020 A 
HETATM    6  C   LIG     1      17.984  37.681  21.234  1.00  0.00     0.016 A 
HETATM    7  S   LIG     1      17.896  37.011  19.688  1.00  0.00    -0.089 SA
HETATM    8  C   LIG     1      16.789  35.819  20.137  1.00  0.00     0.016 A 
HETATM    9  C   LIG     1      16.476  35.929  21.492  1.00  0.00    -0.007 A 
HETATM   10  C   LIG     1      15.571  35.033  22.075  1.00  0.00     0.013 A 
HETATM   11  C   LIG     1      14.992  34.035  21.274  1.00  0.00     0.001 A 
HETATM   12  C   LIG     1      15.318  33.935  19.908  1.00  0.00     0.001 A 
HETATM   13  C   LIG     1      16.226  34.834  19.328  1.00  0.00     0.020 A 
ENDROOT
TORSDOF 0
ENDMDL
MODEL 19
REMARK VINA RESULT:      -4.7     16.022     17.255
REMARK  0 active torsions:
REMARK  status: ('A' for Active; 'I' for Inactive)
ROOT
HETATM    1  C   LIG     1      26.564  29.423  35.803  1.00  0.00    -0.007 A 
HETATM    2  C   LIG     1      26.082  30.708  35.522  1.00  0.00     0.013 A 
HETATM    3  C   LIG     1      26.039  31.658  36.557  1.00  0.00     0.001 A 
HETATM    4  C   LIG     1      26.474  31.323  37.853  1.00  0.00     0.001 A 
HETATM    5  C   LIG     1      26.956  30.035  38.129  1.00  0.00     0.020 A 
HETATM    6  C   LIG     1      26.991  29.106  37.092  1.00  0.00     0.016 A 
HETATM    7  S   LIG     1      27.521  27.506  37.162  1.00  0.00    -0.089 SA
HETATM    8  C   LIG     1      27.206  27.204  35.531  1.00  0.00     0.016 A 
HETATM    9  C   LIG     1      26.686  28.342  34.916  1.00  0.00    -0.007 A 
HETATM   10  C   LIG     1      26.352  28.311  33.556  1.00  0.00     0.013 A 
HETATM   11  C   LIG     1      26.552  27.121  32.836  1.00  0.00     0.001 A 
HETATM   12  C   LIG     1      27.077  25.980  33.470  1.00  0.00     0.001 A 
HETATM   13  C   LIG     1      27.409  26.016  34.833  1.00  0.00     0.020 A 
ENDROOT
TORSDOF 0
ENDMDL
MODEL 20
REMARK VINA RESULT:      -4.6     15.931     16.831
REMARK  0 active torsions:
REMARK  status: ('A' for Active; 'I' for Inactive)
ROOT
HETATM    1  C   LIG     1      27.156  30.448  35.947  1.00  0.00    -0.007 A 
HETATM    2  C   LIG     1      26.032  30.641  36.760  1.00  0.00     0.013 A 
HETATM    3  C   LIG     1      26.122  31.533  37.843  1.00  0.00     0.001 A 
HETATM    4  C   LIG     1      27.322  32.219  38.105  1.00  0.00     0.001 A 
HETATM    5  C   LIG     1      28.446  32.022  37.289  1.00  0.00     0.020 A 
HETATM    6  C   LIG     1      28.339  31.135  36.221  1.00  0.00     0.016 A 
HETATM    7  S   LIG     1      29.532  30.725  35.100  1.00  0.00    -0.089 SA
HETATM    8  C   LIG     1      28.537  29.658  34.251  1.00  0.00     0.016 A 
HETATM    9  C   LIG     1      27.269  29.608  34.828  1.00  0.00    -0.007 A 
HETATM   10  C   LIG     1      26.283  28.779  34.279  1.00  0.00     0.013 A 
HETATM   11  C   LIG     1      26.596  28.010  33.146  1.00  0.00     0.001 A 
HETATM   12  C   LIG     1      27.881  28.070  32.574  1.00  0.00     0.001 A 
HETATM   13  C   LIG     1      28.867  28.901  33.129  1.00  0.00     0.020 A 
ENDROOT
TORSDOF 0
ENDMDL
