REMARK  0 active torsions:
REMARK  status: ('A' for Active; 'I' for Inactive)
ROOT
HETATM    1  C   LIG     1       0.710   0.093  -0.064  1.00  0.00    -0.007 A 
HETATM    2  C   LIG     1       1.660   0.504  -1.008  1.00  0.00     0.013 A 
HETATM    3  C   LIG     1       3.017   0.520  -0.643  1.00  0.00     0.001 A 
HETATM    4  C   LIG     1       3.414   0.130   0.650  1.00  0.00     0.001 A 
HETATM    5  C   LIG     1       2.459  -0.281   1.592  1.00  0.00     0.020 A 
HETATM    6  C   LIG     1       1.119  -0.290   1.213  1.00  0.00     0.016 A 
HETATM    7  S   LIG     1      -0.212  -0.737   2.149  1.00  0.00    -0.089 SA
HETATM    8  C   LIG     1      -1.329  -0.441   0.919  1.00  0.00     0.016 A 
HETATM    9  C   LIG     1      -0.681   0.008  -0.231  1.00  0.00    -0.007 A 
HETATM   10  C   LIG     1      -1.424   0.315  -1.378  1.00  0.00     0.013 A 
HETATM   11  C   LIG     1      -2.820   0.161  -1.343  1.00  0.00     0.001 A 
HETATM   12  C   LIG     1      -3.461  -0.293  -0.175  1.00  0.00     0.001 A 
HETATM   13  C   LIG     1      -2.712  -0.598   0.972  1.00  0.00     0.020 A 
ENDROOT
TORSDOF 0
