MODEL 1
REMARK VINA RESULT:      -6.4      0.000      0.000
REMARK  3 active torsions:
REMARK  status: ('A' for Active; 'I' for Inactive)
REMARK    1  A    between atoms: C_2  and  C_3 
REMARK    2  A    between atoms: C_2  and  O_12 
REMARK    3  A    between atoms: C_7  and  O_11 
ROOT
HETATM    1  C   LIG     1      17.509  37.591  22.933  1.00  0.00     0.073 A 
HETATM    2  C   LIG     1      16.749  36.479  22.534  1.00  0.00     0.039 A 
HETATM    3  C   LIG     1      16.815  36.009  21.220  1.00  0.00     0.009 A 
HETATM    4  I   LIG     1      15.685  34.324  20.644  1.00  0.00    -0.045 I 
HETATM    5  C   LIG     1      18.308  38.263  21.977  1.00  0.00     0.099 A 
HETATM    6  C   LIG     1      18.380  37.770  20.663  1.00  0.00     0.042 A 
HETATM    7  I   LIG     1      19.581  38.729  19.210  1.00  0.00    -0.042 I 
HETATM    8  C   LIG     1      17.636  36.648  20.289  1.00  0.00     0.039 A 
ENDROOT
BRANCH   1   9
HETATM    9  C   LIG     1      17.462  38.008  24.349  1.00  0.00     0.179 C 
HETATM   10  O   LIG     1      16.351  38.231  24.899  1.00  0.00    -0.646 OA
BRANCH   9  11
HETATM   11  O   LIG     1      18.625  38.107  25.109  1.00  0.00    -0.773 OA
HETATM   12  H   LIG     1      18.731  37.604  25.982  1.00  0.00     0.167 HD
ENDBRANCH   9  11
ENDBRANCH   1   9
BRANCH   5  13
HETATM   13  O   LIG     1      19.005  39.433  22.290  1.00  0.00    -0.358 OA
HETATM   14  H   LIG     1      18.556  40.263  22.652  1.00  0.00     0.217 HD
ENDBRANCH   5  13
TORSDOF 3
ENDMDL
MODEL 2
REMARK VINA RESULT:      -6.3      3.325      4.015
REMARK  3 active torsions:
REMARK  status: ('A' for Active; 'I' for Inactive)
REMARK    1  A    between atoms: C_2  and  C_3 
REMARK    2  A    between atoms: C_2  and  O_12 
REMARK    3  A    between atoms: C_7  and  O_11 
ROOT
HETATM    1  C   LIG     1      16.549  35.886  21.348  1.00  0.00     0.073 A 
HETATM    2  C   LIG     1      16.583  36.259  22.702  1.00  0.00     0.039 A 
HETATM    3  C   LIG     1      17.386  37.319  23.127  1.00  0.00     0.009 A 
HETATM    4  I   LIG     1      17.405  37.880  25.160  1.00  0.00    -0.045 I 
HETATM    5  C   LIG     1      17.377  36.567  20.422  1.00  0.00     0.099 A 
HETATM    6  C   LIG     1      18.165  37.645  20.858  1.00  0.00     0.042 A 
HETATM    7  I   LIG     1      19.396  38.705  19.504  1.00  0.00    -0.042 I 
HETATM    8  C   LIG     1      18.168  38.017  22.205  1.00  0.00     0.039 A 
ENDROOT
BRANCH   1   9
HETATM    9  C   LIG     1      15.633  34.805  20.933  1.00  0.00     0.179 C 
HETATM   10  O   LIG     1      16.022  33.937  20.107  1.00  0.00    -0.646 OA
BRANCH   9  11
HETATM   11  O   LIG     1      14.358  34.692  21.482  1.00  0.00    -0.773 OA
HETATM   12  H   LIG     1      14.220  34.415  22.447  1.00  0.00     0.167 HD
ENDBRANCH   9  11
ENDBRANCH   1   9
BRANCH   5  13
HETATM   13  O   LIG     1      17.463  36.177  19.083  1.00  0.00    -0.358 OA
HETATM   14  H   LIG     1      18.339  35.968  18.624  1.00  0.00     0.217 HD
ENDBRANCH   5  13
TORSDOF 3
ENDMDL
MODEL 3
REMARK VINA RESULT:      -5.9      2.302      3.742
REMARK  3 active torsions:
REMARK  status: ('A' for Active; 'I' for Inactive)
REMARK    1  A    between atoms: C_2  and  C_3 
REMARK    2  A    between atoms: C_2  and  O_12 
REMARK    3  A    between atoms: C_7  and  O_11 
ROOT
HETATM    1  C   LIG     1      18.356  37.768  20.541  1.00  0.00     0.073 A 
HETATM    2  C   LIG     1      17.619  36.634  20.159  1.00  0.00     0.039 A 
HETATM    3  C   LIG     1      16.826  35.957  21.088  1.00  0.00     0.009 A 
HETATM    4  I   LIG     1      15.708  34.271  20.491  1.00  0.00    -0.045 I 
HETATM    5  C   LIG     1      18.324  38.191  21.892  1.00  0.00     0.099 A 
HETATM    6  C   LIG     1      17.507  37.513  22.813  1.00  0.00     0.042 A 
HETATM    7  I   LIG     1      17.410  38.128  24.834  1.00  0.00    -0.042 I 
HETATM    8  C   LIG     1      16.762  36.402  22.410  1.00  0.00     0.039 A 
ENDROOT
BRANCH   1   9
HETATM    9  C   LIG     1      19.125  38.493  19.510  1.00  0.00     0.179 C 
HETATM   10  O   LIG     1      18.814  38.370  18.296  1.00  0.00    -0.646 OA
BRANCH   9  11
HETATM   11  O   LIG     1      20.157  39.360  19.859  1.00  0.00    -0.773 OA
HETATM   12  H   LIG     1      20.955  39.505  19.252  1.00  0.00     0.167 HD
ENDBRANCH   9  11
ENDBRANCH   1   9
BRANCH   5  13
HETATM   13  O   LIG     1      19.113  39.248  22.353  1.00  0.00    -0.358 OA
HETATM   14  H   LIG     1      19.067  40.181  21.965  1.00  0.00     0.217 HD
ENDBRANCH   5  13
TORSDOF 3
ENDMDL
MODEL 4
REMARK VINA RESULT:      -5.8      2.171      3.439
REMARK  3 active torsions:
REMARK  status: ('A' for Active; 'I' for Inactive)
REMARK    1  A    between atoms: C_2  and  C_3 
REMARK    2  A    between atoms: C_2  and  O_12 
REMARK    3  A    between atoms: C_7  and  O_11 
ROOT
HETATM    1  C   LIG     1      17.230  37.746  22.828  1.00  0.00     0.073 A 
HETATM    2  C   LIG     1      16.707  36.873  21.859  1.00  0.00     0.039 A 
HETATM    3  C   LIG     1      16.513  35.522  22.152  1.00  0.00     0.009 A 
HETATM    4  I   LIG     1      15.705  34.231  20.693  1.00  0.00    -0.045 I 
HETATM    5  C   LIG     1      17.605  37.231  24.093  1.00  0.00     0.099 A 
HETATM    6  C   LIG     1      17.387  35.874  24.382  1.00  0.00     0.042 A 
HETATM    7  I   LIG     1      17.908  35.070  26.268  1.00  0.00    -0.042 I 
HETATM    8  C   LIG     1      16.843  35.025  23.415  1.00  0.00     0.039 A 
ENDROOT
BRANCH   1   9
HETATM    9  C   LIG     1      17.352  39.180  22.497  1.00  0.00     0.179 C 
HETATM   10  O   LIG     1      16.627  40.023  23.089  1.00  0.00    -0.646 OA
BRANCH   9  11
HETATM   11  O   LIG     1      18.299  39.629  21.579  1.00  0.00    -0.773 OA
HETATM   12  H   LIG     1      18.861  40.452  21.758  1.00  0.00     0.167 HD
ENDBRANCH   9  11
ENDBRANCH   1   9
BRANCH   5  13
HETATM   13  O   LIG     1      18.223  38.028  25.060  1.00  0.00    -0.358 OA
HETATM   14  H   LIG     1      18.814  38.816  24.831  1.00  0.00     0.217 HD
ENDBRANCH   5  13
TORSDOF 3
ENDMDL
MODEL 5
REMARK VINA RESULT:      -5.7      3.047      4.309
REMARK  3 active torsions:
REMARK  status: ('A' for Active; 'I' for Inactive)
REMARK    1  A    between atoms: C_2  and  C_3 
REMARK    2  A    between atoms: C_2  and  O_12 
REMARK    3  A    between atoms: C_7  and  O_11 
ROOT
HETATM    1  C   LIG     1      18.361  37.816  20.862  1.00  0.00     0.073 A 
HETATM    2  C   LIG     1      18.253  38.180  22.215  1.00  0.00     0.039 A 
HETATM    3  C   LIG     1      17.462  37.431  23.090  1.00  0.00     0.009 A 
HETATM    4  I   LIG     1      17.331  37.978  25.123  1.00  0.00    -0.045 I 
HETATM    5  C   LIG     1      17.621  36.709  20.382  1.00  0.00     0.099 A 
HETATM    6  C   LIG     1      16.844  35.953  21.276  1.00  0.00     0.042 A 
HETATM    7  I   LIG     1      15.743  34.277  20.604  1.00  0.00    -0.042 I 
HETATM    8  C   LIG     1      16.767  36.315  22.623  1.00  0.00     0.039 A 
ENDROOT
BRANCH   1   9
HETATM    9  C   LIG     1      19.264  38.595  19.990  1.00  0.00     0.179 C 
HETATM   10  O   LIG     1      19.073  39.830  19.836  1.00  0.00    -0.646 OA
BRANCH   9  11
HETATM   11  O   LIG     1      20.362  37.998  19.375  1.00  0.00    -0.773 OA
HETATM   12  H   LIG     1      20.909  37.285  19.845  1.00  0.00     0.167 HD
ENDBRANCH   9  11
ENDBRANCH   1   9
BRANCH   5  13
HETATM   13  O   LIG     1      17.609  36.361  19.028  1.00  0.00    -0.358 OA
HETATM   14  H   LIG     1      17.307  36.993  18.299  1.00  0.00     0.217 HD
ENDBRANCH   5  13
TORSDOF 3
ENDMDL
MODEL 6
REMARK VINA RESULT:      -5.5      0.951      3.189
REMARK  3 active torsions:
REMARK  status: ('A' for Active; 'I' for Inactive)
REMARK    1  A    between atoms: C_2  and  C_3 
REMARK    2  A    between atoms: C_2  and  O_12 
REMARK    3  A    between atoms: C_7  and  O_11 
ROOT
HETATM    1  C   LIG     1      17.548  37.465  23.022  1.00  0.00     0.073 A 
HETATM    2  C   LIG     1      18.298  38.183  22.076  1.00  0.00     0.039 A 
HETATM    3  C   LIG     1      18.298  37.801  20.732  1.00  0.00     0.009 A 
HETATM    4  I   LIG     1      19.411  38.906  19.322  1.00  0.00    -0.045 I 
HETATM    5  C   LIG     1      16.828  36.317  22.608  1.00  0.00     0.099 A 
HETATM    6  C   LIG     1      16.820  35.955  21.251  1.00  0.00     0.042 A 
HETATM    7  I   LIG     1      15.737  34.264  20.587  1.00  0.00    -0.042 I 
HETATM    8  C   LIG     1      17.553  36.696  20.320  1.00  0.00     0.039 A 
ENDROOT
BRANCH   1   9
HETATM    9  C   LIG     1      17.521  37.946  24.418  1.00  0.00     0.179 C 
HETATM   10  O   LIG     1      16.427  38.284  24.943  1.00  0.00    -0.646 OA
BRANCH   9  11
HETATM   11  O   LIG     1      18.681  37.981  25.189  1.00  0.00    -0.773 OA
HETATM   12  H   LIG     1      19.539  38.387  24.836  1.00  0.00     0.167 HD
ENDBRANCH   9  11
ENDBRANCH   1   9
BRANCH   5  13
HETATM   13  O   LIG     1      16.147  35.506  23.519  1.00  0.00    -0.358 OA
HETATM   14  H   LIG     1      15.699  35.865  24.351  1.00  0.00     0.217 HD
ENDBRANCH   5  13
TORSDOF 3
ENDMDL
MODEL 7
REMARK VINA RESULT:      -5.4      8.492      9.445
REMARK  3 active torsions:
REMARK  status: ('A' for Active; 'I' for Inactive)
REMARK    1  A    between atoms: C_2  and  C_3 
REMARK    2  A    between atoms: C_2  and  O_12 
REMARK    3  A    between atoms: C_7  and  O_11 
ROOT
HETATM    1  C   LIG     1      14.368  31.523  16.053  1.00  0.00     0.073 A 
HETATM    2  C   LIG     1      14.295  30.279  15.403  1.00  0.00     0.039 A 
HETATM    3  C   LIG     1      15.178  29.967  14.367  1.00  0.00     0.009 A 
HETATM    4  I   LIG     1      15.069  28.086  13.419  1.00  0.00    -0.045 I 
HETATM    5  C   LIG     1      15.317  32.478  15.615  1.00  0.00     0.099 A 
HETATM    6  C   LIG     1      16.213  32.144  14.586  1.00  0.00     0.042 A 
HETATM    7  I   LIG     1      17.663  33.532  13.919  1.00  0.00    -0.042 I 
HETATM    8  C   LIG     1      16.141  30.894  13.967  1.00  0.00     0.039 A 
ENDROOT
BRANCH   1   9
HETATM    9  C   LIG     1      13.460  31.782  17.189  1.00  0.00     0.179 C 
HETATM   10  O   LIG     1      12.214  31.694  17.027  1.00  0.00    -0.646 OA
BRANCH   9  11
HETATM   11  O   LIG     1      13.958  32.069  18.457  1.00  0.00    -0.773 OA
HETATM   12  H   LIG     1      14.780  32.648  18.585  1.00  0.00     0.167 HD
ENDBRANCH   9  11
ENDBRANCH   1   9
BRANCH   5  13
HETATM   13  O   LIG     1      15.370  33.766  16.155  1.00  0.00    -0.358 OA
HETATM   14  H   LIG     1      16.189  34.138  16.615  1.00  0.00     0.217 HD
ENDBRANCH   5  13
TORSDOF 3
ENDMDL
MODEL 8
REMARK VINA RESULT:      -5.3      7.747      8.688
REMARK  3 active torsions:
REMARK  status: ('A' for Active; 'I' for Inactive)
REMARK    1  A    between atoms: C_2  and  C_3 
REMARK    2  A    between atoms: C_2  and  O_12 
REMARK    3  A    between atoms: C_7  and  O_11 
ROOT
HETATM    1  C   LIG     1      15.313  32.390  16.274  1.00  0.00     0.073 A 
HETATM    2  C   LIG     1      14.879  31.159  15.756  1.00  0.00     0.039 A 
HETATM    3  C   LIG     1      15.329  30.713  14.511  1.00  0.00     0.009 A 
HETATM    4  I   LIG     1      14.684  28.851  13.760  1.00  0.00    -0.045 I 
HETATM    5  C   LIG     1      16.177  33.201  15.498  1.00  0.00     0.099 A 
HETATM    6  C   LIG     1      16.638  32.734  14.256  1.00  0.00     0.042 A 
HETATM    7  I   LIG     1      17.950  33.901  13.077  1.00  0.00    -0.042 I 
HETATM    8  C   LIG     1      16.214  31.495  13.767  1.00  0.00     0.039 A 
ENDROOT
BRANCH   1   9
HETATM    9  C   LIG     1      14.866  32.788  17.624  1.00  0.00     0.179 C 
HETATM   10  O   LIG     1      15.413  33.765  18.201  1.00  0.00    -0.646 OA
BRANCH   9  11
HETATM   11  O   LIG     1      13.809  32.136  18.253  1.00  0.00    -0.773 OA
HETATM   12  H   LIG     1      13.966  31.357  18.882  1.00  0.00     0.167 HD
ENDBRANCH   9  11
ENDBRANCH   1   9
BRANCH   5  13
HETATM   13  O   LIG     1      16.562  34.478  15.915  1.00  0.00    -0.358 OA
HETATM   14  H   LIG     1      15.945  35.106  16.412  1.00  0.00     0.217 HD
ENDBRANCH   5  13
TORSDOF 3
ENDMDL
MODEL 9
REMARK VINA RESULT:      -5.2      7.669      9.070
REMARK  3 active torsions:
REMARK  status: ('A' for Active; 'I' for Inactive)
REMARK    1  A    between atoms: C_2  and  C_3 
REMARK    2  A    between atoms: C_2  and  O_12 
REMARK    3  A    between atoms: C_7  and  O_11 
ROOT
HETATM    1  C   LIG     1      15.314  32.554  16.717  1.00  0.00     0.073 A 
HETATM    2  C   LIG     1      16.260  33.128  15.851  1.00  0.00     0.039 A 
HETATM    3  C   LIG     1      16.441  32.623  14.562  1.00  0.00     0.009 A 
HETATM    4  I   LIG     1      17.850  33.512  13.268  1.00  0.00    -0.045 I 
HETATM    5  C   LIG     1      14.577  31.425  16.285  1.00  0.00     0.099 A 
HETATM    6  C   LIG     1      14.754  30.938  14.979  1.00  0.00     0.042 A 
HETATM    7  I   LIG     1      13.655  29.269  14.286  1.00  0.00    -0.042 I 
HETATM    8  C   LIG     1      15.683  31.536  14.124  1.00  0.00     0.039 A 
ENDROOT
BRANCH   1   9
HETATM    9  C   LIG     1      15.107  33.166  18.045  1.00  0.00     0.179 C 
HETATM   10  O   LIG     1      15.462  34.357  18.248  1.00  0.00    -0.646 OA
BRANCH   9  11
HETATM   11  O   LIG     1      14.472  32.465  19.068  1.00  0.00    -0.773 OA
HETATM   12  H   LIG     1      14.626  32.697  20.042  1.00  0.00     0.167 HD
ENDBRANCH   9  11
ENDBRANCH   1   9
BRANCH   5  13
HETATM   13  O   LIG     1      13.696  30.750  17.135  1.00  0.00    -0.358 OA
HETATM   14  H   LIG     1      13.261  29.870  16.893  1.00  0.00     0.217 HD
ENDBRANCH   5  13
TORSDOF 3
ENDMDL
MODEL 10
REMARK VINA RESULT:      -5.1      3.273      4.724
REMARK  3 active torsions:
REMARK  status: ('A' for Active; 'I' for Inactive)
REMARK    1  A    between atoms: C_2  and  C_3 
REMARK    2  A    between atoms: C_2  and  O_12 
REMARK    3  A    between atoms: C_7  and  O_11 
ROOT
HETATM    1  C   LIG     1      16.797  35.909  20.766  1.00  0.00     0.073 A 
HETATM    2  C   LIG     1      17.649  36.702  19.979  1.00  0.00     0.039 A 
HETATM    3  C   LIG     1      18.381  37.744  20.552  1.00  0.00     0.009 A 
HETATM    4  I   LIG     1      19.672  38.909  19.358  1.00  0.00    -0.045 I 
HETATM    5  C   LIG     1      16.651  36.208  22.143  1.00  0.00     0.099 A 
HETATM    6  C   LIG     1      17.407  37.246  22.712  1.00  0.00     0.042 A 
HETATM    7  I   LIG     1      17.238  37.708  24.769  1.00  0.00    -0.042 I 
HETATM    8  C   LIG     1      18.267  38.009  21.918  1.00  0.00     0.039 A 
ENDROOT
BRANCH   1   9
HETATM    9  C   LIG     1      16.097  34.775  20.131  1.00  0.00     0.179 C 
HETATM   10  O   LIG     1      15.928  33.705  20.774  1.00  0.00    -0.646 OA
BRANCH   9  11
HETATM   11  O   LIG     1      15.568  34.884  18.847  1.00  0.00    -0.773 OA
HETATM   12  H   LIG     1      15.743  34.179  18.141  1.00  0.00     0.167 HD
ENDBRANCH   9  11
ENDBRANCH   1   9
BRANCH   5  13
HETATM   13  O   LIG     1      15.744  35.521  22.954  1.00  0.00    -0.358 OA
HETATM   14  H   LIG     1      14.810  35.278  22.655  1.00  0.00     0.217 HD
ENDBRANCH   5  13
TORSDOF 3
ENDMDL
MODEL 11
REMARK VINA RESULT:      -5.0      9.279     10.609
REMARK  3 active torsions:
REMARK  status: ('A' for Active; 'I' for Inactive)
REMARK    1  A    between atoms: C_2  and  C_3 
REMARK    2  A    between atoms: C_2  and  O_12 
REMARK    3  A    between atoms: C_7  and  O_11 
ROOT
HETATM    1  C   LIG     1      14.770  30.737  14.773  1.00  0.00     0.073 A 
HETATM    2  C   LIG     1      15.680  31.457  13.980  1.00  0.00     0.039 A 
HETATM    3  C   LIG     1      16.414  32.514  14.523  1.00  0.00     0.009 A 
HETATM    4  I   LIG     1      17.793  33.567  13.324  1.00  0.00    -0.045 I 
HETATM    5  C   LIG     1      14.567  31.126  16.119  1.00  0.00     0.099 A 
HETATM    6  C   LIG     1      15.325  32.178  16.659  1.00  0.00     0.042 A 
HETATM    7  I   LIG     1      15.072  32.774  18.673  1.00  0.00    -0.042 I 
HETATM    8  C   LIG     1      16.243  32.867  15.863  1.00  0.00     0.039 A 
ENDROOT
BRANCH   1   9
HETATM    9  C   LIG     1      14.068  29.583  14.175  1.00  0.00     0.179 C 
HETATM   10  O   LIG     1      12.830  29.442  14.356  1.00  0.00    -0.646 OA
BRANCH   9  11
HETATM   11  O   LIG     1      14.742  28.672  13.365  1.00  0.00    -0.773 OA
HETATM   12  H   LIG     1      15.754  28.639  13.335  1.00  0.00     0.167 HD
ENDBRANCH   9  11
ENDBRANCH   1   9
BRANCH   5  13
HETATM   13  O   LIG     1      13.604  30.515  16.926  1.00  0.00    -0.358 OA
HETATM   14  H   LIG     1      12.904  29.880  16.566  1.00  0.00     0.217 HD
ENDBRANCH   5  13
TORSDOF 3
ENDMDL
MODEL 12
REMARK VINA RESULT:      -4.8      9.324     10.402
REMARK  3 active torsions:
REMARK  status: ('A' for Active; 'I' for Inactive)
REMARK    1  A    between atoms: C_2  and  C_3 
REMARK    2  A    between atoms: C_2  and  O_12 
REMARK    3  A    between atoms: C_7  and  O_11 
ROOT
HETATM    1  C   LIG     1      14.731  30.737  14.955  1.00  0.00     0.073 A 
HETATM    2  C   LIG     1      14.595  31.075  16.311  1.00  0.00     0.039 A 
HETATM    3  C   LIG     1      15.321  32.137  16.855  1.00  0.00     0.009 A 
HETATM    4  I   LIG     1      15.086  32.646  18.888  1.00  0.00    -0.045 I 
HETATM    5  C   LIG     1      15.652  31.453  14.152  1.00  0.00     0.099 A 
HETATM    6  C   LIG     1      16.363  32.531  14.705  1.00  0.00     0.042 A 
HETATM    7  I   LIG     1      17.728  33.644  13.535  1.00  0.00    -0.042 I 
HETATM    8  C   LIG     1      16.196  32.869  16.051  1.00  0.00     0.039 A 
ENDROOT
BRANCH   1   9
HETATM    9  C   LIG     1      13.891  29.652  14.407  1.00  0.00     0.179 C 
HETATM   10  O   LIG     1      14.428  28.697  13.787  1.00  0.00    -0.646 OA
BRANCH   9  11
HETATM   11  O   LIG     1      12.513  29.637  14.613  1.00  0.00    -0.773 OA
HETATM   12  H   LIG     1      12.010  28.770  14.759  1.00  0.00     0.167 HD
ENDBRANCH   9  11
ENDBRANCH   1   9
BRANCH   5  13
HETATM   13  O   LIG     1      15.905  31.098  12.824  1.00  0.00    -0.358 OA
HETATM   14  H   LIG     1      15.290  30.504  12.285  1.00  0.00     0.217 HD
ENDBRANCH   5  13
TORSDOF 3
ENDMDL
MODEL 13
REMARK VINA RESULT:      -4.4      8.236      9.966
REMARK  3 active torsions:
REMARK  status: ('A' for Active; 'I' for Inactive)
REMARK    1  A    between atoms: C_2  and  C_3 
REMARK    2  A    between atoms: C_2  and  O_12 
REMARK    3  A    between atoms: C_7  and  O_11 
ROOT
HETATM    1  C   LIG     1      16.391  32.665  14.772  1.00  0.00     0.073 A 
HETATM    2  C   LIG     1      16.230  32.964  16.135  1.00  0.00     0.039 A 
HETATM    3  C   LIG     1      15.357  32.216  16.928  1.00  0.00     0.009 A 
HETATM    4  I   LIG     1      15.147  32.665  18.978  1.00  0.00    -0.045 I 
HETATM    5  C   LIG     1      15.620  31.625  14.196  1.00  0.00     0.099 A 
HETATM    6  C   LIG     1      14.760  30.868  15.008  1.00  0.00     0.042 A 
HETATM    7  I   LIG     1      13.611  29.290  14.194  1.00  0.00    -0.042 I 
HETATM    8  C   LIG     1      14.631  31.164  16.367  1.00  0.00     0.039 A 
ENDROOT
BRANCH   1   9
HETATM    9  C   LIG     1      17.377  33.436  13.989  1.00  0.00     0.179 C 
HETATM   10  O   LIG     1      17.993  32.883  13.040  1.00  0.00    -0.646 OA
BRANCH   9  11
HETATM   11  O   LIG     1      17.601  34.787  14.245  1.00  0.00    -0.773 OA
HETATM   12  H   LIG     1      17.615  35.151  15.190  1.00  0.00     0.167 HD
ENDBRANCH   9  11
ENDBRANCH   1   9
BRANCH   5  13
HETATM   13  O   LIG     1      15.662  31.348  12.827  1.00  0.00    -0.358 OA
HETATM   14  H   LIG     1      15.909  30.441  12.455  1.00  0.00     0.217 HD
ENDBRANCH   5  13
TORSDOF 3
ENDMDL
MODEL 14
REMARK VINA RESULT:      -3.8     17.307     17.635
REMARK  3 active torsions:
REMARK  status: ('A' for Active; 'I' for Inactive)
REMARK    1  A    between atoms: C_2  and  C_3 
REMARK    2  A    between atoms: C_2  and  O_12 
REMARK    3  A    between atoms: C_7  and  O_11 
ROOT
HETATM    1  C   LIG     1      27.116  28.545  33.506  1.00  0.00     0.073 A 
HETATM    2  C   LIG     1      26.572  29.146  34.653  1.00  0.00     0.039 A 
HETATM    3  C   LIG     1      27.094  30.346  35.141  1.00  0.00     0.009 A 
HETATM    4  I   LIG     1      26.250  31.245  36.852  1.00  0.00    -0.045 I 
HETATM    5  C   LIG     1      28.233  29.143  32.874  1.00  0.00     0.099 A 
HETATM    6  C   LIG     1      28.737  30.360  33.363  1.00  0.00     0.042 A 
HETATM    7  I   LIG     1      30.387  31.301  32.434  1.00  0.00    -0.042 I 
HETATM    8  C   LIG     1      28.168  30.956  34.491  1.00  0.00     0.039 A 
ENDROOT
BRANCH   1   9
HETATM    9  C   LIG     1      26.486  27.314  32.985  1.00  0.00     0.179 C 
HETATM   10  O   LIG     1      26.366  27.150  31.742  1.00  0.00    -0.646 OA
BRANCH   9  11
HETATM   11  O   LIG     1      26.072  26.299  33.844  1.00  0.00    -0.773 OA
HETATM   12  H   LIG     1      25.400  25.599  33.552  1.00  0.00     0.167 HD
ENDBRANCH   9  11
ENDBRANCH   1   9
BRANCH   5  13
HETATM   13  O   LIG     1      28.879  28.540  31.791  1.00  0.00    -0.358 OA
HETATM   14  H   LIG     1      29.293  27.619  31.839  1.00  0.00     0.217 HD
ENDBRANCH   5  13
TORSDOF 3
ENDMDL
MODEL 15
REMARK VINA RESULT:      -3.5     17.040     17.572
REMARK  3 active torsions:
REMARK  status: ('A' for Active; 'I' for Inactive)
REMARK    1  A    between atoms: C_2  and  C_3 
REMARK    2  A    between atoms: C_2  and  O_12 
REMARK    3  A    between atoms: C_7  and  O_11 
ROOT
HETATM    1  C   LIG     1      27.227  29.628  34.355  1.00  0.00     0.073 A 
HETATM    2  C   LIG     1      28.247  30.509  33.962  1.00  0.00     0.039 A 
HETATM    3  C   LIG     1      29.039  30.227  32.846  1.00  0.00     0.009 A 
HETATM    4  I   LIG     1      30.551  31.574  32.257  1.00  0.00    -0.045 I 
HETATM    5  C   LIG     1      27.038  28.422  33.635  1.00  0.00     0.099 A 
HETATM    6  C   LIG     1      27.827  28.159  32.503  1.00  0.00     0.042 A 
HETATM    7  I   LIG     1      27.561  26.383  31.386  1.00  0.00    -0.042 I 
HETATM    8  C   LIG     1      28.822  29.059  32.113  1.00  0.00     0.039 A 
ENDROOT
BRANCH   1   9
HETATM    9  C   LIG     1      26.369  30.001  35.498  1.00  0.00     0.179 C 
HETATM   10  O   LIG     1      26.408  29.321  36.557  1.00  0.00    -0.646 OA
BRANCH   9  11
HETATM   11  O   LIG     1      25.556  31.131  35.448  1.00  0.00    -0.773 OA
HETATM   12  H   LIG     1      25.853  32.015  35.845  1.00  0.00     0.167 HD
ENDBRANCH   9  11
ENDBRANCH   1   9
BRANCH   5  13
HETATM   13  O   LIG     1      26.108  27.461  34.039  1.00  0.00    -0.358 OA
HETATM   14  H   LIG     1      25.926  26.615  33.515  1.00  0.00     0.217 HD
ENDBRANCH   5  13
TORSDOF 3
ENDMDL
MODEL 16
REMARK VINA RESULT:      -3.4     16.336     17.059
REMARK  3 active torsions:
REMARK  status: ('A' for Active; 'I' for Inactive)
REMARK    1  A    between atoms: C_2  and  C_3 
REMARK    2  A    between atoms: C_2  and  O_12 
REMARK    3  A    between atoms: C_7  and  O_11 
ROOT
HETATM    1  C   LIG     1      23.530  22.178  20.082  1.00  0.00     0.073 A 
HETATM    2  C   LIG     1      22.838  21.205  19.343  1.00  0.00     0.039 A 
HETATM    3  C   LIG     1      23.459  20.547  18.279  1.00  0.00     0.009 A 
HETATM    4  I   LIG     1      22.413  19.071  17.195  1.00  0.00    -0.045 I 
HETATM    5  C   LIG     1      24.852  22.522  19.708  1.00  0.00     0.099 A 
HETATM    6  C   LIG     1      25.473  21.839  18.649  1.00  0.00     0.042 A 
HETATM    7  I   LIG     1      27.454  22.303  18.074  1.00  0.00    -0.042 I 
HETATM    8  C   LIG     1      24.777  20.857  17.939  1.00  0.00     0.039 A 
ENDROOT
BRANCH   1   9
HETATM    9  C   LIG     1      22.857  22.797  21.242  1.00  0.00     0.179 C 
HETATM   10  O   LIG     1      23.524  23.088  22.270  1.00  0.00    -0.646 OA
BRANCH   9  11
HETATM   11  O   LIG     1      21.503  23.119  21.201  1.00  0.00    -0.773 OA
HETATM   12  H   LIG     1      20.826  22.506  20.762  1.00  0.00     0.167 HD
ENDBRANCH   9  11
ENDBRANCH   1   9
BRANCH   5  13
HETATM   13  O   LIG     1      25.554  23.552  20.341  1.00  0.00    -0.358 OA
HETATM   14  H   LIG     1      25.343  24.530  20.200  1.00  0.00     0.217 HD
ENDBRANCH   5  13
TORSDOF 3
ENDMDL
