REMARK  3 active torsions:
REMARK  status: ('A' for Active; 'I' for Inactive)
REMARK    1  A    between atoms: C_2  and  C_4 
REMARK    2  A    between atoms: C_2  and  O_3 
REMARK    3  A    between atoms: C_7  and  N_8 
ROOT
HETATM    1  C   LIG     1       0.973   0.057  -0.246  1.00  0.00     0.063 A 
HETATM    2  C   LIG     1      -0.137  -0.825  -0.164  1.00  0.00     0.077 A 
HETATM    3 CL   LIG     1       0.022  -2.530  -0.602  1.00  0.00    -0.081 Cl
HETATM    4  C   LIG     1      -1.405  -0.323   0.215  1.00  0.00     0.050 A 
HETATM    5  C   LIG     1      -1.556   1.041   0.495  1.00  0.00     0.054 A 
HETATM    6  C   LIG     1      -0.471   1.910   0.398  1.00  0.00     0.037 A 
HETATM    7 CL   LIG     1      -0.681   3.616   0.747  1.00  0.00    -0.084 Cl
HETATM    8  C   LIG     1       0.782   1.423   0.029  1.00  0.00     0.044 A 
ENDROOT
BRANCH   1   9
HETATM    9  C   LIG     1       2.336  -0.406  -0.610  1.00  0.00     0.177 C 
HETATM   10  O   LIG     1       3.156   0.398  -1.131  1.00  0.00    -0.646 OA
BRANCH   9  11
HETATM   11  O   LIG     1       2.744  -1.710  -0.347  1.00  0.00    -0.773 OA
HETATM   12  H   LIG     1       3.679  -2.022  -0.584  1.00  0.00     0.167 HD
ENDBRANCH   9  11
ENDBRANCH   1   9
BRANCH   4  13
HETATM   13  N   LIG     1      -2.550  -1.180   0.317  1.00  0.00    -0.398 N 
HETATM   14  H   LIG     1      -3.481  -0.789   0.585  1.00  0.00     0.156 HD
HETATM   15  H   LIG     1      -2.498  -2.207   0.143  1.00  0.00     0.156 HD
ENDBRANCH   4  13
TORSDOF 3
