MODEL 1
REMARK VINA RESULT:      -6.7      0.000      0.000
REMARK  3 active torsions:
REMARK  status: ('A' for Active; 'I' for Inactive)
REMARK    1  A    between atoms: C_2  and  C_4 
REMARK    2  A    between atoms: C_2  and  O_3 
REMARK    3  A    between atoms: C_7  and  N_8 
ROOT
HETATM    1  C   LIG     1      17.204  35.687  24.570  1.00  0.00     0.063 A 
HETATM    2  C   LIG     1      17.146  37.105  24.510  1.00  0.00     0.077 A 
HETATM    3 CL   LIG     1      17.347  38.085  25.967  1.00  0.00    -0.081 Cl
HETATM    4  C   LIG     1      16.862  37.744  23.280  1.00  0.00     0.050 A 
HETATM    5  C   LIG     1      16.630  36.972  22.134  1.00  0.00     0.054 A 
HETATM    6  C   LIG     1      16.670  35.581  22.195  1.00  0.00     0.037 A 
HETATM    7 CL   LIG     1      16.372  34.631  20.751  1.00  0.00    -0.084 Cl
HETATM    8  C   LIG     1      16.953  34.944  23.403  1.00  0.00     0.044 A 
ENDROOT
BRANCH   1   9
HETATM    9  C   LIG     1      17.523  34.953  25.820  1.00  0.00     0.177 C 
HETATM   10  O   LIG     1      18.714  34.898  26.231  1.00  0.00    -0.646 OA
BRANCH   9  11
HETATM   11  O   LIG     1      16.520  34.353  26.575  1.00  0.00    -0.773 OA
HETATM   12  H   LIG     1      16.048  33.519  26.247  1.00  0.00     0.167 HD
ENDBRANCH   9  11
ENDBRANCH   1   9
BRANCH   4  13
HETATM   13  N   LIG     1      16.801  39.173  23.174  1.00  0.00    -0.398 N 
HETATM   14  H   LIG     1      15.918  39.644  22.875  1.00  0.00     0.156 HD
HETATM   15  H   LIG     1      17.621  39.785  23.376  1.00  0.00     0.156 HD
ENDBRANCH   4  13
TORSDOF 3
ENDMDL
MODEL 2
REMARK VINA RESULT:      -6.3      2.977      3.725
REMARK  3 active torsions:
REMARK  status: ('A' for Active; 'I' for Inactive)
REMARK    1  A    between atoms: C_2  and  C_4 
REMARK    2  A    between atoms: C_2  and  O_3 
REMARK    3  A    between atoms: C_7  and  N_8 
ROOT
HETATM    1  C   LIG     1      16.839  36.332  23.138  1.00  0.00     0.063 A 
HETATM    2  C   LIG     1      16.824  37.689  23.557  1.00  0.00     0.077 A 
HETATM    3 CL   LIG     1      16.373  38.981  22.437  1.00  0.00    -0.081 Cl
HETATM    4  C   LIG     1      17.233  38.023  24.870  1.00  0.00     0.050 A 
HETATM    5  C   LIG     1      17.661  37.013  25.741  1.00  0.00     0.054 A 
HETATM    6  C   LIG     1      17.692  35.683  25.326  1.00  0.00     0.037 A 
HETATM    7 CL   LIG     1      18.236  34.433  26.429  1.00  0.00    -0.084 Cl
HETATM    8  C   LIG     1      17.287  35.346  24.035  1.00  0.00     0.044 A 
ENDROOT
BRANCH   1   9
HETATM    9  C   LIG     1      16.397  35.908  21.786  1.00  0.00     0.177 C 
HETATM   10  O   LIG     1      17.213  35.921  20.824  1.00  0.00    -0.646 OA
BRANCH   9  11
HETATM   11  O   LIG     1      15.101  35.454  21.565  1.00  0.00    -0.773 OA
HETATM   12  H   LIG     1      14.380  36.079  21.223  1.00  0.00     0.167 HD
ENDBRANCH   9  11
ENDBRANCH   1   9
BRANCH   4  13
HETATM   13  N   LIG     1      17.226  39.379  25.335  1.00  0.00    -0.398 N 
HETATM   14  H   LIG     1      16.467  39.717  25.967  1.00  0.00     0.156 HD
HETATM   15  H   LIG     1      17.957  40.070  25.057  1.00  0.00     0.156 HD
ENDBRANCH   4  13
TORSDOF 3
ENDMDL
MODEL 3
REMARK VINA RESULT:      -6.2      2.849      3.390
REMARK  3 active torsions:
REMARK  status: ('A' for Active; 'I' for Inactive)
REMARK    1  A    between atoms: C_2  and  C_4 
REMARK    2  A    between atoms: C_2  and  O_3 
REMARK    3  A    between atoms: C_7  and  N_8 
ROOT
HETATM    1  C   LIG     1      17.671  37.510  23.859  1.00  0.00     0.063 A 
HETATM    2  C   LIG     1      17.212  36.249  23.393  1.00  0.00     0.077 A 
HETATM    3 CL   LIG     1      16.830  34.946  24.524  1.00  0.00    -0.081 Cl
HETATM    4  C   LIG     1      17.117  36.009  22.002  1.00  0.00     0.050 A 
HETATM    5  C   LIG     1      17.486  37.012  21.097  1.00  0.00     0.054 A 
HETATM    6  C   LIG     1      17.952  38.243  21.553  1.00  0.00     0.037 A 
HETATM    7 CL   LIG     1      18.415  39.485  20.405  1.00  0.00    -0.084 Cl
HETATM    8  C   LIG     1      18.046  38.490  22.922  1.00  0.00     0.044 A 
ENDROOT
BRANCH   1   9
HETATM    9  C   LIG     1      17.770  37.840  25.303  1.00  0.00     0.177 C 
HETATM   10  O   LIG     1      16.903  38.581  25.841  1.00  0.00    -0.646 OA
BRANCH   9  11
HETATM   11  O   LIG     1      18.786  37.310  26.092  1.00  0.00    -0.773 OA
HETATM   12  H   LIG     1      18.973  36.313  26.102  1.00  0.00     0.167 HD
ENDBRANCH   9  11
ENDBRANCH   1   9
BRANCH   4  13
HETATM   13  N   LIG     1      16.652  34.753  21.489  1.00  0.00    -0.398 N 
HETATM   14  H   LIG     1      15.793  34.306  21.882  1.00  0.00     0.156 HD
HETATM   15  H   LIG     1      17.148  34.241  20.728  1.00  0.00     0.156 HD
ENDBRANCH   4  13
TORSDOF 3
ENDMDL
MODEL 4
REMARK VINA RESULT:      -6.1      9.495     10.671
REMARK  3 active torsions:
REMARK  status: ('A' for Active; 'I' for Inactive)
REMARK    1  A    between atoms: C_2  and  C_4 
REMARK    2  A    between atoms: C_2  and  O_3 
REMARK    3  A    between atoms: C_7  and  N_8 
ROOT
HETATM    1  C   LIG     1      15.677  31.927  14.736  1.00  0.00     0.063 A 
HETATM    2  C   LIG     1      14.965  32.367  15.884  1.00  0.00     0.077 A 
HETATM    3 CL   LIG     1      15.428  33.849  16.728  1.00  0.00    -0.081 Cl
HETATM    4  C   LIG     1      13.907  31.579  16.397  1.00  0.00     0.050 A 
HETATM    5  C   LIG     1      13.580  30.367  15.776  1.00  0.00     0.054 A 
HETATM    6  C   LIG     1      14.289  29.927  14.661  1.00  0.00     0.037 A 
HETATM    7 CL   LIG     1      13.868  28.404  13.900  1.00  0.00    -0.084 Cl
HETATM    8  C   LIG     1      15.330  30.699  14.146  1.00  0.00     0.044 A 
ENDROOT
BRANCH   1   9
HETATM    9  C   LIG     1      16.778  32.716  14.128  1.00  0.00     0.177 C 
HETATM   10  O   LIG     1      17.916  32.732  14.671  1.00  0.00    -0.646 OA
BRANCH   9  11
HETATM   11  O   LIG     1      16.589  33.412  12.938  1.00  0.00    -0.773 OA
HETATM   12  H   LIG     1      15.851  34.101  12.848  1.00  0.00     0.167 HD
ENDBRANCH   9  11
ENDBRANCH   1   9
BRANCH   4  13
HETATM   13  N   LIG     1      13.158  31.990  17.549  1.00  0.00    -0.398 N 
HETATM   14  H   LIG     1      12.719  31.278  18.175  1.00  0.00     0.156 HD
HETATM   15  H   LIG     1      13.016  32.993  17.796  1.00  0.00     0.156 HD
ENDBRANCH   4  13
TORSDOF 3
ENDMDL
MODEL 5
REMARK VINA RESULT:      -5.8      4.037      5.574
REMARK  3 active torsions:
REMARK  status: ('A' for Active; 'I' for Inactive)
REMARK    1  A    between atoms: C_2  and  C_4 
REMARK    2  A    between atoms: C_2  and  O_3 
REMARK    3  A    between atoms: C_7  and  N_8 
ROOT
HETATM    1  C   LIG     1      18.402  38.245  21.027  1.00  0.00     0.063 A 
HETATM    2  C   LIG     1      17.878  36.990  20.618  1.00  0.00     0.077 A 
HETATM    3 CL   LIG     1      18.067  36.425  18.954  1.00  0.00    -0.081 Cl
HETATM    4  C   LIG     1      17.141  36.206  21.536  1.00  0.00     0.050 A 
HETATM    5  C   LIG     1      16.925  36.678  22.837  1.00  0.00     0.054 A 
HETATM    6  C   LIG     1      17.424  37.917  23.234  1.00  0.00     0.037 A 
HETATM    7 CL   LIG     1      17.139  38.495  24.865  1.00  0.00    -0.084 Cl
HETATM    8  C   LIG     1      18.155  38.695  22.337  1.00  0.00     0.044 A 
ENDROOT
BRANCH   1   9
HETATM    9  C   LIG     1      19.208  39.107  20.125  1.00  0.00     0.177 C 
HETATM   10  O   LIG     1      20.467  39.094  20.200  1.00  0.00    -0.646 OA
BRANCH   9  11
HETATM   11  O   LIG     1      18.597  39.905  19.162  1.00  0.00    -0.773 OA
HETATM   12  H   LIG     1      19.134  40.575  18.623  1.00  0.00     0.167 HD
ENDBRANCH   9  11
ENDBRANCH   1   9
BRANCH   4  13
HETATM   13  N   LIG     1      16.601  34.930  21.167  1.00  0.00    -0.398 N 
HETATM   14  H   LIG     1      16.649  34.123  21.829  1.00  0.00     0.156 HD
HETATM   15  H   LIG     1      16.158  34.757  20.238  1.00  0.00     0.156 HD
ENDBRANCH   4  13
TORSDOF 3
ENDMDL
MODEL 6
REMARK VINA RESULT:      -5.8      2.425      2.814
REMARK  3 active torsions:
REMARK  status: ('A' for Active; 'I' for Inactive)
REMARK    1  A    between atoms: C_2  and  C_4 
REMARK    2  A    between atoms: C_2  and  O_3 
REMARK    3  A    between atoms: C_7  and  N_8 
ROOT
HETATM    1  C   LIG     1      17.018  36.791  22.870  1.00  0.00     0.063 A 
HETATM    2  C   LIG     1      17.826  37.552  21.985  1.00  0.00     0.077 A 
HETATM    3 CL   LIG     1      18.570  39.068  22.509  1.00  0.00    -0.081 Cl
HETATM    4  C   LIG     1      17.992  37.127  20.646  1.00  0.00     0.050 A 
HETATM    5  C   LIG     1      17.349  35.964  20.202  1.00  0.00     0.054 A 
HETATM    6  C   LIG     1      16.542  35.226  21.065  1.00  0.00     0.037 A 
HETATM    7 CL   LIG     1      15.739  33.777  20.489  1.00  0.00    -0.084 Cl
HETATM    8  C   LIG     1      16.376  35.637  22.387  1.00  0.00     0.044 A 
ENDROOT
BRANCH   1   9
HETATM    9  C   LIG     1      16.823  37.163  24.294  1.00  0.00     0.177 C 
HETATM   10  O   LIG     1      16.281  38.263  24.589  1.00  0.00    -0.646 OA
BRANCH   9  11
HETATM   11  O   LIG     1      17.191  36.297  25.319  1.00  0.00    -0.773 OA
HETATM   12  H   LIG     1      16.513  35.980  26.003  1.00  0.00     0.167 HD
ENDBRANCH   9  11
ENDBRANCH   1   9
BRANCH   4  13
HETATM   13  N   LIG     1      18.806  37.862  19.721  1.00  0.00    -0.398 N 
HETATM   14  H   LIG     1      19.113  38.835  19.946  1.00  0.00     0.156 HD
HETATM   15  H   LIG     1      19.106  37.468  18.804  1.00  0.00     0.156 HD
ENDBRANCH   4  13
TORSDOF 3
ENDMDL
MODEL 7
REMARK VINA RESULT:      -5.8      3.627      4.327
REMARK  3 active torsions:
REMARK  status: ('A' for Active; 'I' for Inactive)
REMARK    1  A    between atoms: C_2  and  C_4 
REMARK    2  A    between atoms: C_2  and  O_3 
REMARK    3  A    between atoms: C_7  and  N_8 
ROOT
HETATM    1  C   LIG     1      17.212  36.624  20.892  1.00  0.00     0.063 A 
HETATM    2  C   LIG     1      16.706  37.494  21.894  1.00  0.00     0.077 A 
HETATM    3 CL   LIG     1      15.208  37.119  22.753  1.00  0.00    -0.081 Cl
HETATM    4  C   LIG     1      17.376  38.710  22.169  1.00  0.00     0.050 A 
HETATM    5  C   LIG     1      18.525  39.050  21.443  1.00  0.00     0.054 A 
HETATM    6  C   LIG     1      19.011  38.204  20.448  1.00  0.00     0.037 A 
HETATM    7 CL   LIG     1      20.448  38.649  19.546  1.00  0.00    -0.084 Cl
HETATM    8  C   LIG     1      18.360  37.003  20.173  1.00  0.00     0.044 A 
ENDROOT
BRANCH   1   9
HETATM    9  C   LIG     1      16.576  35.321  20.570  1.00  0.00     0.177 C 
HETATM   10  O   LIG     1      16.519  34.415  21.446  1.00  0.00    -0.646 OA
BRANCH   9  11
HETATM   11  O   LIG     1      15.999  35.093  19.325  1.00  0.00    -0.773 OA
HETATM   12  H   LIG     1      15.540  35.841  18.817  1.00  0.00     0.167 HD
ENDBRANCH   9  11
ENDBRANCH   1   9
BRANCH   4  13
HETATM   13  N   LIG     1      16.904  39.614  23.177  1.00  0.00    -0.398 N 
HETATM   14  H   LIG     1      16.413  40.496  22.909  1.00  0.00     0.156 HD
HETATM   15  H   LIG     1      17.039  39.437  24.196  1.00  0.00     0.156 HD
ENDBRANCH   4  13
TORSDOF 3
ENDMDL
MODEL 8
REMARK VINA RESULT:      -5.7      3.972      4.768
REMARK  3 active torsions:
REMARK  status: ('A' for Active; 'I' for Inactive)
REMARK    1  A    between atoms: C_2  and  C_4 
REMARK    2  A    between atoms: C_2  and  O_3 
REMARK    3  A    between atoms: C_7  and  N_8 
ROOT
HETATM    1  C   LIG     1      18.189  37.465  20.368  1.00  0.00     0.063 A 
HETATM    2  C   LIG     1      17.847  38.172  21.551  1.00  0.00     0.077 A 
HETATM    3 CL   LIG     1      18.605  39.723  21.934  1.00  0.00    -0.081 Cl
HETATM    4  C   LIG     1      16.932  37.604  22.469  1.00  0.00     0.050 A 
HETATM    5  C   LIG     1      16.381  36.343  22.208  1.00  0.00     0.054 A 
HETATM    6  C   LIG     1      16.729  35.640  21.056  1.00  0.00     0.037 A 
HETATM    7 CL   LIG     1      16.032  34.060  20.750  1.00  0.00    -0.084 Cl
HETATM    8  C   LIG     1      17.626  36.195  20.145  1.00  0.00     0.044 A 
ENDROOT
BRANCH   1   9
HETATM    9  C   LIG     1      19.119  38.013  19.349  1.00  0.00     0.177 C 
HETATM   10  O   LIG     1      20.348  38.120  19.611  1.00  0.00    -0.646 OA
BRANCH   9  11
HETATM   11  O   LIG     1      18.665  38.376  18.085  1.00  0.00    -0.773 OA
HETATM   12  H   LIG     1      18.002  39.135  17.967  1.00  0.00     0.167 HD
ENDBRANCH   9  11
ENDBRANCH   1   9
BRANCH   4  13
HETATM   13  N   LIG     1      16.555  38.288  23.671  1.00  0.00    -0.398 N 
HETATM   14  H   LIG     1      17.162  38.239  24.520  1.00  0.00     0.156 HD
HETATM   15  H   LIG     1      15.673  38.839  23.748  1.00  0.00     0.156 HD
ENDBRANCH   4  13
TORSDOF 3
ENDMDL
MODEL 9
REMARK VINA RESULT:      -5.7      8.600      9.966
REMARK  3 active torsions:
REMARK  status: ('A' for Active; 'I' for Inactive)
REMARK    1  A    between atoms: C_2  and  C_4 
REMARK    2  A    between atoms: C_2  and  O_3 
REMARK    3  A    between atoms: C_7  and  N_8 
ROOT
HETATM    1  C   LIG     1      15.284  32.407  16.057  1.00  0.00     0.063 A 
HETATM    2  C   LIG     1      16.173  32.867  15.050  1.00  0.00     0.077 A 
HETATM    3 CL   LIG     1      17.125  34.338  15.280  1.00  0.00    -0.081 Cl
HETATM    4  C   LIG     1      16.256  32.175  13.818  1.00  0.00     0.050 A 
HETATM    5  C   LIG     1      15.453  31.049  13.599  1.00  0.00     0.054 A 
HETATM    6  C   LIG     1      14.568  30.606  14.580  1.00  0.00     0.037 A 
HETATM    7 CL   LIG     1      13.566  29.197  14.286  1.00  0.00    -0.084 Cl
HETATM    8  C   LIG     1      14.483  31.280  15.798  1.00  0.00     0.044 A 
ENDROOT
BRANCH   1   9
HETATM    9  C   LIG     1      15.167  33.067  17.381  1.00  0.00     0.177 C 
HETATM   10  O   LIG     1      15.623  32.500  18.411  1.00  0.00    -0.646 OA
BRANCH   9  11
HETATM   11  O   LIG     1      14.595  34.330  17.504  1.00  0.00    -0.773 OA
HETATM   12  H   LIG     1      13.832  34.497  18.150  1.00  0.00     0.167 HD
ENDBRANCH   9  11
ENDBRANCH   1   9
BRANCH   4  13
HETATM   13  N   LIG     1      17.145  32.602  12.777  1.00  0.00    -0.398 N 
HETATM   14  H   LIG     1      17.781  31.916  12.311  1.00  0.00     0.156 HD
HETATM   15  H   LIG     1      17.200  33.593  12.459  1.00  0.00     0.156 HD
ENDBRANCH   4  13
TORSDOF 3
ENDMDL
MODEL 10
REMARK VINA RESULT:      -5.7      8.798     10.232
REMARK  3 active torsions:
REMARK  status: ('A' for Active; 'I' for Inactive)
REMARK    1  A    between atoms: C_2  and  C_4 
REMARK    2  A    between atoms: C_2  and  O_3 
REMARK    3  A    between atoms: C_7  and  N_8 
ROOT
HETATM    1  C   LIG     1      15.365  32.539  15.970  1.00  0.00     0.063 A 
HETATM    2  C   LIG     1      14.656  31.384  15.543  1.00  0.00     0.077 A 
HETATM    3 CL   LIG     1      13.471  30.603  16.596  1.00  0.00    -0.081 Cl
HETATM    4  C   LIG     1      14.945  30.812  14.281  1.00  0.00     0.050 A 
HETATM    5  C   LIG     1      15.934  31.383  13.470  1.00  0.00     0.054 A 
HETATM    6  C   LIG     1      16.641  32.505  13.895  1.00  0.00     0.037 A 
HETATM    7 CL   LIG     1      17.879  33.202  12.868  1.00  0.00    -0.084 Cl
HETATM    8  C   LIG     1      16.360  33.077  15.135  1.00  0.00     0.044 A 
ENDROOT
BRANCH   1   9
HETATM    9  C   LIG     1      15.094  33.207  17.268  1.00  0.00     0.177 C 
HETATM   10  O   LIG     1      15.534  32.705  18.338  1.00  0.00    -0.646 OA
BRANCH   9  11
HETATM   11  O   LIG     1      14.395  34.409  17.324  1.00  0.00    -0.773 OA
HETATM   12  H   LIG     1      14.427  34.993  18.152  1.00  0.00     0.167 HD
ENDBRANCH   9  11
ENDBRANCH   1   9
BRANCH   4  13
HETATM   13  N   LIG     1      14.249  29.651  13.808  1.00  0.00    -0.398 N 
HETATM   14  H   LIG     1      13.618  29.714  12.978  1.00  0.00     0.156 HD
HETATM   15  H   LIG     1      14.334  28.720  14.271  1.00  0.00     0.156 HD
ENDBRANCH   4  13
TORSDOF 3
ENDMDL
MODEL 11
REMARK VINA RESULT:      -5.5      8.724      9.869
REMARK  3 active torsions:
REMARK  status: ('A' for Active; 'I' for Inactive)
REMARK    1  A    between atoms: C_2  and  C_4 
REMARK    2  A    between atoms: C_2  and  O_3 
REMARK    3  A    between atoms: C_7  and  N_8 
ROOT
HETATM    1  C   LIG     1      14.457  31.705  16.178  1.00  0.00     0.063 A 
HETATM    2  C   LIG     1      15.398  32.742  15.944  1.00  0.00     0.077 A 
HETATM    3 CL   LIG     1      15.365  34.231  16.896  1.00  0.00    -0.081 Cl
HETATM    4  C   LIG     1      16.339  32.612  14.895  1.00  0.00     0.050 A 
HETATM    5  C   LIG     1      16.327  31.467  14.089  1.00  0.00     0.054 A 
HETATM    6  C   LIG     1      15.392  30.456  14.307  1.00  0.00     0.037 A 
HETATM    7 CL   LIG     1      15.388  29.031  13.284  1.00  0.00    -0.084 Cl
HETATM    8  C   LIG     1      14.464  30.574  15.340  1.00  0.00     0.044 A 
ENDROOT
BRANCH   1   9
HETATM    9  C   LIG     1      13.461  31.762  17.277  1.00  0.00     0.177 C 
HETATM   10  O   LIG     1      12.228  31.737  17.012  1.00  0.00    -0.646 OA
BRANCH   9  11
HETATM   11  O   LIG     1      13.864  31.803  18.608  1.00  0.00    -0.773 OA
HETATM   12  H   LIG     1      14.600  31.195  18.949  1.00  0.00     0.167 HD
ENDBRANCH   9  11
ENDBRANCH   1   9
BRANCH   4  13
HETATM   13  N   LIG     1      17.311  33.632  14.630  1.00  0.00    -0.398 N 
HETATM   14  H   LIG     1      18.289  33.537  14.985  1.00  0.00     0.156 HD
HETATM   15  H   LIG     1      17.083  34.497  14.093  1.00  0.00     0.156 HD
ENDBRANCH   4  13
TORSDOF 3
ENDMDL
MODEL 12
REMARK VINA RESULT:      -5.5      9.977     10.856
REMARK  3 active torsions:
REMARK  status: ('A' for Active; 'I' for Inactive)
REMARK    1  A    between atoms: C_2  and  C_4 
REMARK    2  A    between atoms: C_2  and  O_3 
REMARK    3  A    between atoms: C_7  and  N_8 
ROOT
HETATM    1  C   LIG     1      14.913  30.641  14.784  1.00  0.00     0.063 A 
HETATM    2  C   LIG     1      14.249  31.156  15.930  1.00  0.00     0.077 A 
HETATM    3 CL   LIG     1      12.811  30.361  16.581  1.00  0.00    -0.081 Cl
HETATM    4  C   LIG     1      14.706  32.356  16.525  1.00  0.00     0.050 A 
HETATM    5  C   LIG     1      15.802  33.031  15.973  1.00  0.00     0.054 A 
HETATM    6  C   LIG     1      16.443  32.536  14.839  1.00  0.00     0.037 A 
HETATM    7 CL   LIG     1      17.810  33.398  14.159  1.00  0.00    -0.084 Cl
HETATM    8  C   LIG     1      16.001  31.353  14.249  1.00  0.00     0.044 A 
ENDROOT
BRANCH   1   9
HETATM    9  C   LIG     1      14.504  29.375  14.126  1.00  0.00     0.177 C 
HETATM   10  O   LIG     1      15.345  28.449  13.965  1.00  0.00    -0.646 OA
BRANCH   9  11
HETATM   11  O   LIG     1      13.190  29.171  13.718  1.00  0.00    -0.773 OA
HETATM   12  H   LIG     1      12.476  28.889  14.379  1.00  0.00     0.167 HD
ENDBRANCH   9  11
ENDBRANCH   1   9
BRANCH   4  13
HETATM   13  N   LIG     1      14.070  32.906  17.686  1.00  0.00    -0.398 N 
HETATM   14  H   LIG     1      13.426  32.319  18.264  1.00  0.00     0.156 HD
HETATM   15  H   LIG     1      14.211  33.894  17.987  1.00  0.00     0.156 HD
ENDBRANCH   4  13
TORSDOF 3
ENDMDL
MODEL 13
REMARK VINA RESULT:      -5.4      3.274      4.180
REMARK  3 active torsions:
REMARK  status: ('A' for Active; 'I' for Inactive)
REMARK    1  A    between atoms: C_2  and  C_4 
REMARK    2  A    between atoms: C_2  and  O_3 
REMARK    3  A    between atoms: C_7  and  N_8 
ROOT
HETATM    1  C   LIG     1      17.011  37.266  22.177  1.00  0.00     0.063 A 
HETATM    2  C   LIG     1      16.480  36.282  21.301  1.00  0.00     0.077 A 
HETATM    3 CL   LIG     1      15.182  35.203  21.826  1.00  0.00    -0.081 Cl
HETATM    4  C   LIG     1      17.035  36.119  20.009  1.00  0.00     0.050 A 
HETATM    5  C   LIG     1      18.111  36.922  19.610  1.00  0.00     0.054 A 
HETATM    6  C   LIG     1      18.644  37.876  20.475  1.00  0.00     0.037 A 
HETATM    7 CL   LIG     1      19.996  38.868  19.960  1.00  0.00    -0.084 Cl
HETATM    8  C   LIG     1      18.101  38.045  21.748  1.00  0.00     0.044 A 
ENDROOT
BRANCH   1   9
HETATM    9  C   LIG     1      16.460  37.509  23.533  1.00  0.00     0.177 C 
HETATM   10  O   LIG     1      17.161  37.261  24.552  1.00  0.00    -0.646 OA
BRANCH   9  11
HETATM   11  O   LIG     1      15.189  38.050  23.704  1.00  0.00    -0.773 OA
HETATM   12  H   LIG     1      14.506  37.598  24.302  1.00  0.00     0.167 HD
ENDBRANCH   9  11
ENDBRANCH   1   9
BRANCH   4  13
HETATM   13  N   LIG     1      16.524  35.143  19.092  1.00  0.00    -0.398 N 
HETATM   14  H   LIG     1      17.052  34.259  18.912  1.00  0.00     0.156 HD
HETATM   15  H   LIG     1      15.631  35.278  18.571  1.00  0.00     0.156 HD
ENDBRANCH   4  13
TORSDOF 3
ENDMDL
MODEL 14
REMARK VINA RESULT:      -5.3      9.524     11.082
REMARK  3 active torsions:
REMARK  status: ('A' for Active; 'I' for Inactive)
REMARK    1  A    between atoms: C_2  and  C_4 
REMARK    2  A    between atoms: C_2  and  O_3 
REMARK    3  A    between atoms: C_7  and  N_8 
ROOT
HETATM    1  C   LIG     1      15.130  31.416  14.799  1.00  0.00     0.063 A 
HETATM    2  C   LIG     1      14.016  30.642  15.218  1.00  0.00     0.077 A 
HETATM    3 CL   LIG     1      13.435  29.284  14.247  1.00  0.00    -0.081 Cl
HETATM    4  C   LIG     1      13.321  30.996  16.399  1.00  0.00     0.050 A 
HETATM    5  C   LIG     1      13.731  32.114  17.137  1.00  0.00     0.054 A 
HETATM    6  C   LIG     1      14.813  32.884  16.716  1.00  0.00     0.037 A 
HETATM    7 CL   LIG     1      15.308  34.284  17.651  1.00  0.00    -0.084 Cl
HETATM    8  C   LIG     1      15.506  32.540  15.557  1.00  0.00     0.044 A 
ENDROOT
BRANCH   1   9
HETATM    9  C   LIG     1      15.922  31.085  13.587  1.00  0.00     0.177 C 
HETATM   10  O   LIG     1      15.896  29.915  13.118  1.00  0.00    -0.646 OA
BRANCH   9  11
HETATM   11  O   LIG     1      16.665  32.060  12.928  1.00  0.00    -0.773 OA
HETATM   12  H   LIG     1      16.403  32.378  12.002  1.00  0.00     0.167 HD
ENDBRANCH   9  11
ENDBRANCH   1   9
BRANCH   4  13
HETATM   13  N   LIG     1      12.195  30.238  16.862  1.00  0.00    -0.398 N 
HETATM   14  H   LIG     1      11.428  30.703  17.397  1.00  0.00     0.156 HD
HETATM   15  H   LIG     1      12.105  29.212  16.697  1.00  0.00     0.156 HD
ENDBRANCH   4  13
TORSDOF 3
ENDMDL
MODEL 15
REMARK VINA RESULT:      -5.1      3.056      3.725
REMARK  3 active torsions:
REMARK  status: ('A' for Active; 'I' for Inactive)
REMARK    1  A    between atoms: C_2  and  C_4 
REMARK    2  A    between atoms: C_2  and  O_3 
REMARK    3  A    between atoms: C_7  and  N_8 
ROOT
HETATM    1  C   LIG     1      16.843  36.354  22.601  1.00  0.00     0.063 A 
HETATM    2  C   LIG     1      17.230  36.249  23.963  1.00  0.00     0.077 A 
HETATM    3 CL   LIG     1      16.716  34.876  24.951  1.00  0.00    -0.081 Cl
HETATM    4  C   LIG     1      17.988  37.285  24.559  1.00  0.00     0.050 A 
HETATM    5  C   LIG     1      18.340  38.410  23.803  1.00  0.00     0.054 A 
HETATM    6  C   LIG     1      17.946  38.523  22.471  1.00  0.00     0.037 A 
HETATM    7 CL   LIG     1      18.391  39.942  21.542  1.00  0.00    -0.084 Cl
HETATM    8  C   LIG     1      17.203  37.505  21.875  1.00  0.00     0.044 A 
ENDROOT
BRANCH   1   9
HETATM    9  C   LIG     1      16.072  35.293  21.905  1.00  0.00     0.177 C 
HETATM   10  O   LIG     1      16.677  34.330  21.359  1.00  0.00    -0.646 OA
BRANCH   9  11
HETATM   11  O   LIG     1      14.681  35.319  21.878  1.00  0.00    -0.773 OA
HETATM   12  H   LIG     1      14.175  35.245  21.003  1.00  0.00     0.167 HD
ENDBRANCH   9  11
ENDBRANCH   1   9
BRANCH   4  13
HETATM   13  N   LIG     1      18.405  37.215  25.929  1.00  0.00    -0.398 N 
HETATM   14  H   LIG     1      17.928  37.792  26.657  1.00  0.00     0.156 HD
HETATM   15  H   LIG     1      19.193  36.608  26.244  1.00  0.00     0.156 HD
ENDBRANCH   4  13
TORSDOF 3
ENDMDL
MODEL 16
REMARK VINA RESULT:      -4.9      9.011     10.450
REMARK  3 active torsions:
REMARK  status: ('A' for Active; 'I' for Inactive)
REMARK    1  A    between atoms: C_2  and  C_4 
REMARK    2  A    between atoms: C_2  and  O_3 
REMARK    3  A    between atoms: C_7  and  N_8 
ROOT
HETATM    1  C   LIG     1      14.396  30.899  15.568  1.00  0.00     0.063 A 
HETATM    2  C   LIG     1      15.344  31.797  15.007  1.00  0.00     0.077 A 
HETATM    3 CL   LIG     1      15.800  31.690  13.303  1.00  0.00    -0.081 Cl
HETATM    4  C   LIG     1      15.980  32.752  15.836  1.00  0.00     0.050 A 
HETATM    5  C   LIG     1      15.677  32.797  17.202  1.00  0.00     0.054 A 
HETATM    6  C   LIG     1      14.760  31.906  17.756  1.00  0.00     0.037 A 
HETATM    7 CL   LIG     1      14.398  31.974  19.471  1.00  0.00    -0.084 Cl
HETATM    8  C   LIG     1      14.127  30.964  16.946  1.00  0.00     0.044 A 
ENDROOT
BRANCH   1   9
HETATM    9  C   LIG     1      13.672  29.891  14.753  1.00  0.00     0.177 C 
HETATM   10  O   LIG     1      14.319  29.052  14.069  1.00  0.00    -0.646 OA
BRANCH   9  11
HETATM   11  O   LIG     1      12.282  29.827  14.762  1.00  0.00    -0.773 OA
HETATM   12  H   LIG     1      11.776  29.594  15.609  1.00  0.00     0.167 HD
ENDBRANCH   9  11
ENDBRANCH   1   9
BRANCH   4  13
HETATM   13  N   LIG     1      16.937  33.681  15.309  1.00  0.00    -0.398 N 
HETATM   14  H   LIG     1      16.878  34.696  15.552  1.00  0.00     0.156 HD
HETATM   15  H   LIG     1      17.706  33.390  14.668  1.00  0.00     0.156 HD
ENDBRANCH   4  13
TORSDOF 3
ENDMDL
MODEL 17
REMARK VINA RESULT:      -4.8      9.104     10.152
REMARK  3 active torsions:
REMARK  status: ('A' for Active; 'I' for Inactive)
REMARK    1  A    between atoms: C_2  and  C_4 
REMARK    2  A    between atoms: C_2  and  O_3 
REMARK    3  A    between atoms: C_7  and  N_8 
ROOT
HETATM    1  C   LIG     1      15.476  32.181  14.866  1.00  0.00     0.063 A 
HETATM    2  C   LIG     1      15.800  33.185  15.817  1.00  0.00     0.077 A 
HETATM    3 CL   LIG     1      17.099  34.343  15.508  1.00  0.00    -0.081 Cl
HETATM    4  C   LIG     1      15.117  33.225  17.056  1.00  0.00     0.050 A 
HETATM    5  C   LIG     1      14.135  32.267  17.338  1.00  0.00     0.054 A 
HETATM    6  C   LIG     1      13.828  31.271  16.413  1.00  0.00     0.037 A 
HETATM    7 CL   LIG     1      12.599  30.077  16.786  1.00  0.00    -0.084 Cl
HETATM    8  C   LIG     1      14.494  31.227  15.189  1.00  0.00     0.044 A 
ENDROOT
BRANCH   1   9
HETATM    9  C   LIG     1      16.132  32.097  13.537  1.00  0.00     0.177 C 
HETATM   10  O   LIG     1      16.364  30.971  13.019  1.00  0.00    -0.646 OA
BRANCH   9  11
HETATM   11  O   LIG     1      16.462  33.247  12.827  1.00  0.00    -0.773 OA
HETATM   12  H   LIG     1      17.323  33.748  13.015  1.00  0.00     0.167 HD
ENDBRANCH   9  11
ENDBRANCH   1   9
BRANCH   4  13
HETATM   13  N   LIG     1      15.409  34.226  18.040  1.00  0.00    -0.398 N 
HETATM   14  H   LIG     1      15.917  33.973  18.917  1.00  0.00     0.156 HD
HETATM   15  H   LIG     1      15.121  35.222  17.928  1.00  0.00     0.156 HD
ENDBRANCH   4  13
TORSDOF 3
ENDMDL
MODEL 18
REMARK VINA RESULT:      -4.7      3.686      4.449
REMARK  3 active torsions:
REMARK  status: ('A' for Active; 'I' for Inactive)
REMARK    1  A    between atoms: C_2  and  C_4 
REMARK    2  A    between atoms: C_2  and  O_3 
REMARK    3  A    between atoms: C_7  and  N_8 
ROOT
HETATM    1  C   LIG     1      17.830  36.813  21.186  1.00  0.00     0.063 A 
HETATM    2  C   LIG     1      17.647  38.156  21.610  1.00  0.00     0.077 A 
HETATM    3 CL   LIG     1      18.062  39.508  20.550  1.00  0.00    -0.081 Cl
HETATM    4  C   LIG     1      17.183  38.420  22.921  1.00  0.00     0.050 A 
HETATM    5  C   LIG     1      16.920  37.356  23.792  1.00  0.00     0.054 A 
HETATM    6  C   LIG     1      17.116  36.038  23.382  1.00  0.00     0.037 A 
HETATM    7 CL   LIG     1      16.786  34.718  24.489  1.00  0.00    -0.084 Cl
HETATM    8  C   LIG     1      17.568  35.769  22.092  1.00  0.00     0.044 A 
ENDROOT
BRANCH   1   9
HETATM    9  C   LIG     1      18.286  36.462  19.817  1.00  0.00     0.177 C 
HETATM   10  O   LIG     1      17.440  36.230  18.912  1.00  0.00    -0.646 OA
BRANCH   9  11
HETATM   11  O   LIG     1      19.641  36.425  19.501  1.00  0.00    -0.773 OA
HETATM   12  H   LIG     1      20.296  37.065  19.936  1.00  0.00     0.167 HD
ENDBRANCH   9  11
ENDBRANCH   1   9
BRANCH   4  13
HETATM   13  N   LIG     1      16.978  39.761  23.387  1.00  0.00    -0.398 N 
HETATM   14  H   LIG     1      17.657  40.200  24.049  1.00  0.00     0.156 HD
HETATM   15  H   LIG     1      16.156  40.334  23.099  1.00  0.00     0.156 HD
ENDBRANCH   4  13
TORSDOF 3
ENDMDL
MODEL 19
REMARK VINA RESULT:      -4.4      8.790     10.039
REMARK  3 active torsions:
REMARK  status: ('A' for Active; 'I' for Inactive)
REMARK    1  A    between atoms: C_2  and  C_4 
REMARK    2  A    between atoms: C_2  and  O_3 
REMARK    3  A    between atoms: C_7  and  N_8 
ROOT
HETATM    1  C   LIG     1      15.117  32.774  16.181  1.00  0.00     0.063 A 
HETATM    2  C   LIG     1      15.718  32.220  15.019  1.00  0.00     0.077 A 
HETATM    3 CL   LIG     1      17.056  33.042  14.208  1.00  0.00    -0.081 Cl
HETATM    4  C   LIG     1      15.200  31.026  14.464  1.00  0.00     0.050 A 
HETATM    5  C   LIG     1      14.094  30.406  15.058  1.00  0.00     0.054 A 
HETATM    6  C   LIG     1      13.494  30.958  16.189  1.00  0.00     0.037 A 
HETATM    7 CL   LIG     1      12.106  30.170  16.916  1.00  0.00    -0.084 Cl
HETATM    8  C   LIG     1      14.000  32.132  16.744  1.00  0.00     0.044 A 
ENDROOT
BRANCH   1   9
HETATM    9  C   LIG     1      15.625  34.008  16.832  1.00  0.00     0.177 C 
HETATM   10  O   LIG     1      16.246  34.869  16.151  1.00  0.00    -0.646 OA
BRANCH   9  11
HETATM   11  O   LIG     1      15.391  34.255  18.181  1.00  0.00    -0.773 OA
HETATM   12  H   LIG     1      14.894  35.086  18.481  1.00  0.00     0.167 HD
ENDBRANCH   9  11
ENDBRANCH   1   9
BRANCH   4  13
HETATM   13  N   LIG     1      15.781  30.430  13.296  1.00  0.00    -0.398 N 
HETATM   14  H   LIG     1      15.803  29.391  13.188  1.00  0.00     0.156 HD
HETATM   15  H   LIG     1      16.206  30.997  12.530  1.00  0.00     0.156 HD
ENDBRANCH   4  13
TORSDOF 3
ENDMDL
MODEL 20
REMARK VINA RESULT:      -4.1      9.195     10.562
REMARK  3 active torsions:
REMARK  status: ('A' for Active; 'I' for Inactive)
REMARK    1  A    between atoms: C_2  and  C_4 
REMARK    2  A    between atoms: C_2  and  O_3 
REMARK    3  A    between atoms: C_7  and  N_8 
ROOT
HETATM    1  C   LIG     1      16.299  32.998  15.247  1.00  0.00     0.063 A 
HETATM    2  C   LIG     1      16.003  32.039  14.242  1.00  0.00     0.077 A 
HETATM    3 CL   LIG     1      16.677  32.190  12.615  1.00  0.00    -0.081 Cl
HETATM    4  C   LIG     1      15.109  30.979  14.526  1.00  0.00     0.050 A 
HETATM    5  C   LIG     1      14.515  30.893  15.791  1.00  0.00     0.054 A 
HETATM    6  C   LIG     1      14.791  31.843  16.772  1.00  0.00     0.037 A 
HETATM    7 CL   LIG     1      14.033  31.721  18.349  1.00  0.00    -0.084 Cl
HETATM    8  C   LIG     1      15.674  32.888  16.502  1.00  0.00     0.044 A 
ENDROOT
BRANCH   1   9
HETATM    9  C   LIG     1      17.248  34.118  15.027  1.00  0.00     0.177 C 
HETATM   10  O   LIG     1      17.085  35.211  15.636  1.00  0.00    -0.646 OA
BRANCH   9  11
HETATM   11  O   LIG     1      18.348  33.972  14.188  1.00  0.00    -0.773 OA
HETATM   12  H   LIG     1      18.311  34.275  13.221  1.00  0.00     0.167 HD
ENDBRANCH   9  11
ENDBRANCH   1   9
BRANCH   4  13
HETATM   13  N   LIG     1      14.788  29.986  13.542  1.00  0.00    -0.398 N 
HETATM   14  H   LIG     1      13.853  29.521  13.546  1.00  0.00     0.156 HD
HETATM   15  H   LIG     1      15.466  29.686  12.808  1.00  0.00     0.156 HD
ENDBRANCH   4  13
TORSDOF 3
ENDMDL
