REMARK  3 active torsions:
REMARK  status: ('A' for Active; 'I' for Inactive)
REMARK    1  A    between atoms: C_2  and  C_3 
REMARK    2  A    between atoms: C_2  and  O_12 
REMARK    3  A    between atoms: C_7  and  O_11 
ROOT
HETATM    1  C   LIG     1       0.548  -0.344   0.300  1.00  0.00     0.073 A 
HETATM    2  C   LIG     1      -0.376  -1.399   0.218  1.00  0.00     0.039 A 
HETATM    3  C   LIG     1      -1.693  -1.160  -0.181  1.00  0.00     0.009 A 
HETATM    4  I   LIG     1      -3.060  -2.760  -0.321  1.00  0.00    -0.045 I 
HETATM    5  C   LIG     1       0.118   0.976   0.020  1.00  0.00     0.099 A 
HETATM    6  C   LIG     1      -1.204   1.201  -0.399  1.00  0.00     0.042 A 
HETATM    7  I   LIG     1      -1.880   3.153  -0.852  1.00  0.00    -0.042 I 
HETATM    8  C   LIG     1      -2.103   0.136  -0.498  1.00  0.00     0.039 A 
ENDROOT
BRANCH   1   9
HETATM    9  C   LIG     1       1.947  -0.654   0.658  1.00  0.00     0.179 C 
HETATM   10  O   LIG     1       2.189  -1.446   1.607  1.00  0.00    -0.646 OA
BRANCH   9  11
HETATM   11  O   LIG     1       3.010  -0.129  -0.073  1.00  0.00    -0.773 OA
HETATM   12  H   LIG     1       2.856   0.431  -0.903  1.00  0.00     0.167 HD
ENDBRANCH   9  11
ENDBRANCH   1   9
BRANCH   5  13
HETATM   13  O   LIG     1       0.963   2.077   0.182  1.00  0.00    -0.358 OA
HETATM   14  H   LIG     1       1.875   2.014   0.614  1.00  0.00     0.217 HD
ENDBRANCH   5  13
TORSDOF 3
