REMARK  1 active torsions:
REMARK  status: ('A' for Active; 'I' for Inactive)
REMARK    1  A    between atoms: N_1  and  C_2 
ROOT
HETATM    1  C   LIG     1      -1.501  -0.310  -0.113  1.00  0.00     0.036 A 
HETATM    2  C   LIG     1      -2.121   0.946  -0.026  1.00  0.00     0.030 A 
HETATM    3  C   LIG     1      -1.369   2.110   0.116  1.00  0.00     0.003 A 
HETATM    4  C   LIG     1       0.021   2.044   0.176  1.00  0.00     0.012 A 
HETATM    5  C   LIG     1       0.673   0.806   0.104  1.00  0.00    -0.024 A 
HETATM    6  C   LIG     1       2.074   0.753   0.175  1.00  0.00     0.012 A 
HETATM    7  C   LIG     1       2.736  -0.472   0.118  1.00  0.00     0.001 A 
HETATM    8  C   LIG     1       2.009  -1.654  -0.005  1.00  0.00     0.001 A 
HETATM    9  C   LIG     1       0.614  -1.622  -0.079  1.00  0.00     0.014 A 
HETATM   10  C   LIG     1      -0.082  -0.393  -0.036  1.00  0.00     0.000 A 
ENDROOT
BRANCH   1  11
HETATM   11  N   LIG     1      -2.337  -1.466  -0.288  1.00  0.00    -0.398 N 
HETATM   12  H   LIG     1      -3.376  -1.369  -0.258  1.00  0.00     0.156 HD
HETATM   13  H   LIG     1      -1.970  -2.411  -0.522  1.00  0.00     0.156 HD
ENDBRANCH   1  11
TORSDOF 1
