MODEL 1
REMARK VINA RESULT:      -7.8      0.000      0.000
REMARK  1 active torsions:
REMARK  status: ('A' for Active; 'I' for Inactive)
REMARK    1  A    between atoms: N_1  and  C_2 
ROOT
HETATM    1  C   LIG     1      16.762  36.102  22.780  1.00  0.00     0.036 A 
HETATM    2  C   LIG     1      16.657  37.335  22.120  1.00  0.00     0.030 A 
HETATM    3  C   LIG     1      17.039  38.520  22.746  1.00  0.00     0.003 A 
HETATM    4  C   LIG     1      17.533  38.497  24.048  1.00  0.00     0.012 A 
HETATM    5  C   LIG     1      17.641  37.285  24.741  1.00  0.00    -0.024 A 
HETATM    6  C   LIG     1      18.132  37.278  26.056  1.00  0.00     0.012 A 
HETATM    7  C   LIG     1      18.233  36.081  26.764  1.00  0.00     0.001 A 
HETATM    8  C   LIG     1      17.841  34.883  26.170  1.00  0.00     0.001 A 
HETATM    9  C   LIG     1      17.351  34.870  24.862  1.00  0.00     0.014 A 
HETATM   10  C   LIG     1      17.250  36.067  24.117  1.00  0.00     0.000 A 
ENDROOT
BRANCH   1  11
HETATM   11  N   LIG     1      16.377  34.916  22.064  1.00  0.00    -0.398 N 
HETATM   12  H   LIG     1      16.494  34.871  21.028  1.00  0.00     0.156 HD
HETATM   13  H   LIG     1      16.047  34.046  22.528  1.00  0.00     0.156 HD
ENDBRANCH   1  11
TORSDOF 1
ENDMDL
MODEL 2
REMARK VINA RESULT:      -7.8      1.548      2.512
REMARK  1 active torsions:
REMARK  status: ('A' for Active; 'I' for Inactive)
REMARK    1  A    between atoms: N_1  and  C_2 
ROOT
HETATM    1  C   LIG     1      16.846  37.860  23.220  1.00  0.00     0.036 A 
HETATM    2  C   LIG     1      16.456  37.228  22.029  1.00  0.00     0.030 A 
HETATM    3  C   LIG     1      16.470  35.840  21.915  1.00  0.00     0.003 A 
HETATM    4  C   LIG     1      16.876  35.052  22.990  1.00  0.00     0.012 A 
HETATM    5  C   LIG     1      17.283  35.650  24.190  1.00  0.00    -0.024 A 
HETATM    6  C   LIG     1      17.698  34.844  25.262  1.00  0.00     0.012 A 
HETATM    7  C   LIG     1      18.118  35.424  26.457  1.00  0.00     0.001 A 
HETATM    8  C   LIG     1      18.133  36.811  26.594  1.00  0.00     0.001 A 
HETATM    9  C   LIG     1      17.722  37.629  25.539  1.00  0.00     0.014 A 
HETATM   10  C   LIG     1      17.279  37.067  24.320  1.00  0.00     0.000 A 
ENDROOT
BRANCH   1  11
HETATM   11  N   LIG     1      16.780  39.295  23.277  1.00  0.00    -0.398 N 
HETATM   12  H   LIG     1      16.602  39.845  22.408  1.00  0.00     0.156 HD
HETATM   13  H   LIG     1      16.825  39.838  24.163  1.00  0.00     0.156 HD
ENDBRANCH   1  11
TORSDOF 1
ENDMDL
MODEL 3
REMARK VINA RESULT:      -7.6      3.164      5.006
REMARK  1 active torsions:
REMARK  status: ('A' for Active; 'I' for Inactive)
REMARK    1  A    between atoms: N_1  and  C_2 
ROOT
HETATM    1  C   LIG     1      16.837  38.151  22.402  1.00  0.00     0.036 A 
HETATM    2  C   LIG     1      16.001  37.036  22.568  1.00  0.00     0.030 A 
HETATM    3  C   LIG     1      16.162  35.895  21.785  1.00  0.00     0.003 A 
HETATM    4  C   LIG     1      17.162  35.844  20.817  1.00  0.00     0.012 A 
HETATM    5  C   LIG     1      18.007  36.944  20.615  1.00  0.00    -0.024 A 
HETATM    6  C   LIG     1      19.005  36.883  19.630  1.00  0.00     0.012 A 
HETATM    7  C   LIG     1      19.844  37.973  19.409  1.00  0.00     0.001 A 
HETATM    8  C   LIG     1      19.694  39.134  20.164  1.00  0.00     0.001 A 
HETATM    9  C   LIG     1      18.708  39.214  21.151  1.00  0.00     0.014 A 
HETATM   10  C   LIG     1      17.851  38.119  21.404  1.00  0.00     0.000 A 
ENDROOT
BRANCH   1  11
HETATM   11  N   LIG     1      16.632  39.283  23.264  1.00  0.00    -0.398 N 
HETATM   12  H   LIG     1      17.031  40.213  23.008  1.00  0.00     0.156 HD
HETATM   13  H   LIG     1      16.035  39.257  24.115  1.00  0.00     0.156 HD
ENDBRANCH   1  11
TORSDOF 1
ENDMDL
MODEL 4
REMARK VINA RESULT:      -7.4      2.895      4.378
REMARK  1 active torsions:
REMARK  status: ('A' for Active; 'I' for Inactive)
REMARK    1  A    between atoms: N_1  and  C_2 
ROOT
HETATM    1  C   LIG     1      16.806  36.260  21.208  1.00  0.00     0.036 A 
HETATM    2  C   LIG     1      15.932  36.634  22.240  1.00  0.00     0.030 A 
HETATM    3  C   LIG     1      16.035  37.881  22.853  1.00  0.00     0.003 A 
HETATM    4  C   LIG     1      17.017  38.782  22.448  1.00  0.00     0.012 A 
HETATM    5  C   LIG     1      17.914  38.438  21.429  1.00  0.00    -0.024 A 
HETATM    6  C   LIG     1      18.905  39.352  21.037  1.00  0.00     0.012 A 
HETATM    7  C   LIG     1      19.813  39.019  20.033  1.00  0.00     0.001 A 
HETATM    8  C   LIG     1      19.745  37.772  19.415  1.00  0.00     0.001 A 
HETATM    9  C   LIG     1      18.765  36.849  19.790  1.00  0.00     0.014 A 
HETATM   10  C   LIG     1      17.825  37.166  20.796  1.00  0.00     0.000 A 
ENDROOT
BRANCH   1  11
HETATM   11  N   LIG     1      16.623  34.970  20.601  1.00  0.00    -0.398 N 
HETATM   12  H   LIG     1      16.278  34.168  21.173  1.00  0.00     0.156 HD
HETATM   13  H   LIG     1      16.745  34.791  19.583  1.00  0.00     0.156 HD
ENDBRANCH   1  11
TORSDOF 1
ENDMDL
MODEL 5
REMARK VINA RESULT:      -6.9      1.597      3.387
REMARK  1 active torsions:
REMARK  status: ('A' for Active; 'I' for Inactive)
REMARK    1  A    between atoms: N_1  and  C_2 
ROOT
HETATM    1  C   LIG     1      17.321  36.042  25.256  1.00  0.00     0.036 A 
HETATM    2  C   LIG     1      17.529  37.244  25.950  1.00  0.00     0.030 A 
HETATM    3  C   LIG     1      17.589  38.462  25.276  1.00  0.00     0.003 A 
HETATM    4  C   LIG     1      17.444  38.505  23.891  1.00  0.00     0.012 A 
HETATM    5  C   LIG     1      17.247  37.323  23.165  1.00  0.00    -0.024 A 
HETATM    6  C   LIG     1      17.111  37.379  21.769  1.00  0.00     0.012 A 
HETATM    7  C   LIG     1      16.927  36.211  21.031  1.00  0.00     0.001 A 
HETATM    8  C   LIG     1      16.882  34.978  21.676  1.00  0.00     0.001 A 
HETATM    9  C   LIG     1      17.013  34.901  23.066  1.00  0.00     0.014 A 
HETATM   10  C   LIG     1      17.188  36.070  23.839  1.00  0.00     0.000 A 
ENDROOT
BRANCH   1  11
HETATM   11  N   LIG     1      17.241  34.827  26.018  1.00  0.00    -0.398 N 
HETATM   12  H   LIG     1      17.737  33.969  25.689  1.00  0.00     0.156 HD
HETATM   13  H   LIG     1      16.768  34.758  26.943  1.00  0.00     0.156 HD
ENDBRANCH   1  11
TORSDOF 1
ENDMDL
MODEL 6
REMARK VINA RESULT:      -6.8      2.383      3.435
REMARK  1 active torsions:
REMARK  status: ('A' for Active; 'I' for Inactive)
REMARK    1  A    between atoms: N_1  and  C_2 
ROOT
HETATM    1  C   LIG     1      18.370  37.458  19.742  1.00  0.00     0.036 A 
HETATM    2  C   LIG     1      18.903  38.748  19.594  1.00  0.00     0.030 A 
HETATM    3  C   LIG     1      18.931  39.641  20.662  1.00  0.00     0.003 A 
HETATM    4  C   LIG     1      18.424  39.264  21.904  1.00  0.00     0.012 A 
HETATM    5  C   LIG     1      17.874  37.989  22.085  1.00  0.00    -0.024 A 
HETATM    6  C   LIG     1      17.358  37.626  23.339  1.00  0.00     0.012 A 
HETATM    7  C   LIG     1      16.795  36.365  23.531  1.00  0.00     0.001 A 
HETATM    8  C   LIG     1      16.737  35.458  22.475  1.00  0.00     0.001 A 
HETATM    9  C   LIG     1      17.246  35.800  21.220  1.00  0.00     0.014 A 
HETATM   10  C   LIG     1      17.833  37.067  21.001  1.00  0.00     0.000 A 
ENDROOT
BRANCH   1  11
HETATM   11  N   LIG     1      18.400  36.579  18.605  1.00  0.00    -0.398 N 
HETATM   12  H   LIG     1      18.209  35.560  18.727  1.00  0.00     0.156 HD
HETATM   13  H   LIG     1      18.532  36.908  17.627  1.00  0.00     0.156 HD
ENDBRANCH   1  11
TORSDOF 1
ENDMDL
MODEL 7
REMARK VINA RESULT:      -6.8      2.963      4.461
REMARK  1 active torsions:
REMARK  status: ('A' for Active; 'I' for Inactive)
REMARK    1  A    between atoms: N_1  and  C_2 
ROOT
HETATM    1  C   LIG     1      18.679  38.981  21.179  1.00  0.00     0.036 A 
HETATM    2  C   LIG     1      19.439  39.001  20.000  1.00  0.00     0.030 A 
HETATM    3  C   LIG     1      19.454  37.909  19.136  1.00  0.00     0.003 A 
HETATM    4  C   LIG     1      18.710  36.770  19.432  1.00  0.00     0.012 A 
HETATM    5  C   LIG     1      17.948  36.710  20.607  1.00  0.00    -0.024 A 
HETATM    6  C   LIG     1      17.210  35.552  20.898  1.00  0.00     0.012 A 
HETATM    7  C   LIG     1      16.458  35.473  22.069  1.00  0.00     0.001 A 
HETATM    8  C   LIG     1      16.439  36.542  22.961  1.00  0.00     0.001 A 
HETATM    9  C   LIG     1      17.166  37.704  22.688  1.00  0.00     0.014 A 
HETATM   10  C   LIG     1      17.927  37.816  21.503  1.00  0.00     0.000 A 
ENDROOT
BRANCH   1  11
HETATM   11  N   LIG     1      18.687  40.154  22.009  1.00  0.00    -0.398 N 
HETATM   12  H   LIG     1      18.384  41.073  21.618  1.00  0.00     0.156 HD
HETATM   13  H   LIG     1      18.912  40.138  23.025  1.00  0.00     0.156 HD
ENDBRANCH   1  11
TORSDOF 1
ENDMDL
MODEL 8
REMARK VINA RESULT:      -6.5      1.944      4.329
REMARK  1 active torsions:
REMARK  status: ('A' for Active; 'I' for Inactive)
REMARK    1  A    between atoms: N_1  and  C_2 
ROOT
HETATM    1  C   LIG     1      17.446  37.311  24.811  1.00  0.00     0.036 A 
HETATM    2  C   LIG     1      17.179  36.027  25.310  1.00  0.00     0.030 A 
HETATM    3  C   LIG     1      17.048  34.936  24.453  1.00  0.00     0.003 A 
HETATM    4  C   LIG     1      17.180  35.106  23.077  1.00  0.00     0.012 A 
HETATM    5  C   LIG     1      17.435  36.376  22.543  1.00  0.00    -0.024 A 
HETATM    6  C   LIG     1      17.557  36.534  21.153  1.00  0.00     0.012 A 
HETATM    7  C   LIG     1      17.798  37.793  20.607  1.00  0.00     0.001 A 
HETATM    8  C   LIG     1      17.915  38.905  21.438  1.00  0.00     0.001 A 
HETATM    9  C   LIG     1      17.798  38.768  22.823  1.00  0.00     0.014 A 
HETATM   10  C   LIG     1      17.566  37.501  23.405  1.00  0.00     0.000 A 
ENDROOT
BRANCH   1  11
HETATM   11  N   LIG     1      17.598  38.385  25.754  1.00  0.00    -0.398 N 
HETATM   12  H   LIG     1      16.758  38.902  26.096  1.00  0.00     0.156 HD
HETATM   13  H   LIG     1      18.506  38.643  26.190  1.00  0.00     0.156 HD
ENDBRANCH   1  11
TORSDOF 1
ENDMDL
MODEL 9
REMARK VINA RESULT:      -6.5      2.364      3.462
REMARK  1 active torsions:
REMARK  status: ('A' for Active; 'I' for Inactive)
REMARK    1  A    between atoms: N_1  and  C_2 
ROOT
HETATM    1  C   LIG     1      17.583  36.550  20.149  1.00  0.00     0.036 A 
HETATM    2  C   LIG     1      18.497  37.007  19.187  1.00  0.00     0.030 A 
HETATM    3  C   LIG     1      19.312  38.109  19.436  1.00  0.00     0.003 A 
HETATM    4  C   LIG     1      19.230  38.780  20.654  1.00  0.00     0.012 A 
HETATM    5  C   LIG     1      18.321  38.359  21.633  1.00  0.00    -0.024 A 
HETATM    6  C   LIG     1      18.243  39.050  22.853  1.00  0.00     0.012 A 
HETATM    7  C   LIG     1      17.334  38.650  23.831  1.00  0.00     0.001 A 
HETATM    8  C   LIG     1      16.493  37.564  23.602  1.00  0.00     0.001 A 
HETATM    9  C   LIG     1      16.557  36.862  22.395  1.00  0.00     0.014 A 
HETATM   10  C   LIG     1      17.478  37.238  21.391  1.00  0.00     0.000 A 
ENDROOT
BRANCH   1  11
HETATM   11  N   LIG     1      16.794  35.390  19.835  1.00  0.00    -0.398 N 
HETATM   12  H   LIG     1      16.629  34.659  20.561  1.00  0.00     0.156 HD
HETATM   13  H   LIG     1      16.301  35.258  18.929  1.00  0.00     0.156 HD
ENDBRANCH   1  11
TORSDOF 1
ENDMDL
MODEL 10
REMARK VINA RESULT:      -6.4      2.610      3.937
REMARK  1 active torsions:
REMARK  status: ('A' for Active; 'I' for Inactive)
REMARK    1  A    between atoms: N_1  and  C_2 
ROOT
HETATM    1  C   LIG     1      17.570  38.319  23.174  1.00  0.00     0.036 A 
HETATM    2  C   LIG     1      18.380  39.311  22.599  1.00  0.00     0.030 A 
HETATM    3  C   LIG     1      18.824  39.202  21.283  1.00  0.00     0.003 A 
HETATM    4  C   LIG     1      18.469  38.097  20.513  1.00  0.00     0.012 A 
HETATM    5  C   LIG     1      17.672  37.083  21.058  1.00  0.00    -0.024 A 
HETATM    6  C   LIG     1      17.330  35.970  20.273  1.00  0.00     0.012 A 
HETATM    7  C   LIG     1      16.549  34.946  20.806  1.00  0.00     0.001 A 
HETATM    8  C   LIG     1      16.106  35.019  22.125  1.00  0.00     0.001 A 
HETATM    9  C   LIG     1      16.434  36.119  22.921  1.00  0.00     0.014 A 
HETATM   10  C   LIG     1      17.215  37.177  22.403  1.00  0.00     0.000 A 
ENDROOT
BRANCH   1  11
HETATM   11  N   LIG     1      17.124  38.511  24.527  1.00  0.00    -0.398 N 
HETATM   12  H   LIG     1      17.792  38.853  25.254  1.00  0.00     0.156 HD
HETATM   13  H   LIG     1      16.135  38.399  24.828  1.00  0.00     0.156 HD
ENDBRANCH   1  11
TORSDOF 1
ENDMDL
MODEL 11
REMARK VINA RESULT:      -6.2      8.731     10.672
REMARK  1 active torsions:
REMARK  status: ('A' for Active; 'I' for Inactive)
REMARK    1  A    between atoms: N_1  and  C_2 
ROOT
HETATM    1  C   LIG     1      14.855  32.492  17.121  1.00  0.00     0.036 A 
HETATM    2  C   LIG     1      13.788  31.631  17.422  1.00  0.00     0.030 A 
HETATM    3  C   LIG     1      13.352  30.679  16.503  1.00  0.00     0.003 A 
HETATM    4  C   LIG     1      13.972  30.568  15.260  1.00  0.00     0.012 A 
HETATM    5  C   LIG     1      15.033  31.419  14.922  1.00  0.00    -0.024 A 
HETATM    6  C   LIG     1      15.643  31.303  13.663  1.00  0.00     0.012 A 
HETATM    7  C   LIG     1      16.690  32.151  13.307  1.00  0.00     0.001 A 
HETATM    8  C   LIG     1      17.135  33.124  14.199  1.00  0.00     0.001 A 
HETATM    9  C   LIG     1      16.542  33.255  15.458  1.00  0.00     0.014 A 
HETATM   10  C   LIG     1      15.487  32.400  15.849  1.00  0.00     0.000 A 
ENDROOT
BRANCH   1  11
HETATM   11  N   LIG     1      15.272  33.429  18.128  1.00  0.00    -0.398 N 
HETATM   12  H   LIG     1      15.434  34.429  17.876  1.00  0.00     0.156 HD
HETATM   13  H   LIG     1      15.355  33.190  19.137  1.00  0.00     0.156 HD
ENDBRANCH   1  11
TORSDOF 1
ENDMDL
MODEL 12
REMARK VINA RESULT:      -6.2      2.066      3.917
REMARK  1 active torsions:
REMARK  status: ('A' for Active; 'I' for Inactive)
REMARK    1  A    between atoms: N_1  and  C_2 
ROOT
HETATM    1  C   LIG     1      18.018  38.549  22.829  1.00  0.00     0.036 A 
HETATM    2  C   LIG     1      17.972  38.760  24.216  1.00  0.00     0.030 A 
HETATM    3  C   LIG     1      17.484  37.778  25.075  1.00  0.00     0.003 A 
HETATM    4  C   LIG     1      17.029  36.564  24.567  1.00  0.00     0.012 A 
HETATM    5  C   LIG     1      17.049  36.324  23.187  1.00  0.00    -0.024 A 
HETATM    6  C   LIG     1      16.578  35.100  22.687  1.00  0.00     0.012 A 
HETATM    7  C   LIG     1      16.580  34.852  21.316  1.00  0.00     0.001 A 
HETATM    8  C   LIG     1      17.045  35.822  20.431  1.00  0.00     0.001 A 
HETATM    9  C   LIG     1      17.519  37.046  20.909  1.00  0.00     0.014 A 
HETATM   10  C   LIG     1      17.540  37.320  22.295  1.00  0.00     0.000 A 
ENDROOT
BRANCH   1  11
HETATM   11  N   LIG     1      18.562  39.594  22.004  1.00  0.00    -0.398 N 
HETATM   12  H   LIG     1      17.948  40.370  21.671  1.00  0.00     0.156 HD
HETATM   13  H   LIG     1      19.572  39.673  21.768  1.00  0.00     0.156 HD
ENDBRANCH   1  11
TORSDOF 1
ENDMDL
MODEL 13
REMARK VINA RESULT:      -6.2      9.041     10.953
REMARK  1 active torsions:
REMARK  status: ('A' for Active; 'I' for Inactive)
REMARK    1  A    between atoms: N_1  and  C_2 
ROOT
HETATM    1  C   LIG     1      15.957  32.582  15.761  1.00  0.00     0.036 A 
HETATM    2  C   LIG     1      15.377  33.322  16.804  1.00  0.00     0.030 A 
HETATM    3  C   LIG     1      14.135  32.972  17.327  1.00  0.00     0.003 A 
HETATM    4  C   LIG     1      13.443  31.875  16.819  1.00  0.00     0.012 A 
HETATM    5  C   LIG     1      13.987  31.121  15.771  1.00  0.00    -0.024 A 
HETATM    6  C   LIG     1      13.275  30.023  15.262  1.00  0.00     0.012 A 
HETATM    7  C   LIG     1      13.797  29.271  14.211  1.00  0.00     0.001 A 
HETATM    8  C   LIG     1      15.028  29.609  13.655  1.00  0.00     0.001 A 
HETATM    9  C   LIG     1      15.753  30.697  14.149  1.00  0.00     0.014 A 
HETATM   10  C   LIG     1      15.253  31.469  15.222  1.00  0.00     0.000 A 
ENDROOT
BRANCH   1  11
HETATM   11  N   LIG     1      17.255  32.982  15.289  1.00  0.00    -0.398 N 
HETATM   12  H   LIG     1      17.537  33.986  15.326  1.00  0.00     0.156 HD
HETATM   13  H   LIG     1      17.983  32.310  14.971  1.00  0.00     0.156 HD
ENDBRANCH   1  11
TORSDOF 1
ENDMDL
MODEL 14
REMARK VINA RESULT:      -6.2      9.158     11.017
REMARK  1 active torsions:
REMARK  status: ('A' for Active; 'I' for Inactive)
REMARK    1  A    between atoms: N_1  and  C_2 
ROOT
HETATM    1  C   LIG     1      13.689  32.081  16.654  1.00  0.00     0.036 A 
HETATM    2  C   LIG     1      14.561  33.126  16.998  1.00  0.00     0.030 A 
HETATM    3  C   LIG     1      15.786  33.280  16.354  1.00  0.00     0.003 A 
HETATM    4  C   LIG     1      16.168  32.391  15.351  1.00  0.00     0.012 A 
HETATM    5  C   LIG     1      15.327  31.331  14.990  1.00  0.00    -0.024 A 
HETATM    6  C   LIG     1      15.728  30.437  13.984  1.00  0.00     0.012 A 
HETATM    7  C   LIG     1      14.908  29.370  13.623  1.00  0.00     0.001 A 
HETATM    8  C   LIG     1      13.686  29.180  14.263  1.00  0.00     0.001 A 
HETATM    9  C   LIG     1      13.268  30.059  15.266  1.00  0.00     0.014 A 
HETATM   10  C   LIG     1      14.074  31.157  15.643  1.00  0.00     0.000 A 
ENDROOT
BRANCH   1  11
HETATM   11  N   LIG     1      12.428  32.000  17.340  1.00  0.00    -0.398 N 
HETATM   12  H   LIG     1      12.332  31.398  18.188  1.00  0.00     0.156 HD
HETATM   13  H   LIG     1      11.597  32.572  17.086  1.00  0.00     0.156 HD
ENDBRANCH   1  11
TORSDOF 1
ENDMDL
MODEL 15
REMARK VINA RESULT:      -6.1      8.959     10.789
REMARK  1 active torsions:
REMARK  status: ('A' for Active; 'I' for Inactive)
REMARK    1  A    between atoms: N_1  and  C_2 
ROOT
HETATM    1  C   LIG     1      13.376  30.487  15.776  1.00  0.00     0.036 A 
HETATM    2  C   LIG     1      13.562  29.552  14.745  1.00  0.00     0.030 A 
HETATM    3  C   LIG     1      14.638  29.656  13.867  1.00  0.00     0.003 A 
HETATM    4  C   LIG     1      15.552  30.699  13.998  1.00  0.00     0.012 A 
HETATM    5  C   LIG     1      15.391  31.657  15.008  1.00  0.00    -0.024 A 
HETATM    6  C   LIG     1      16.314  32.707  15.123  1.00  0.00     0.012 A 
HETATM    7  C   LIG     1      16.160  33.675  16.114  1.00  0.00     0.001 A 
HETATM    8  C   LIG     1      15.083  33.607  16.995  1.00  0.00     0.001 A 
HETATM    9  C   LIG     1      14.154  32.568  16.898  1.00  0.00     0.014 A 
HETATM   10  C   LIG     1      14.293  31.567  15.910  1.00  0.00     0.000 A 
ENDROOT
BRANCH   1  11
HETATM   11  N   LIG     1      12.261  30.301  16.664  1.00  0.00    -0.398 N 
HETATM   12  H   LIG     1      11.328  30.703  16.422  1.00  0.00     0.156 HD
HETATM   13  H   LIG     1      12.301  29.715  17.522  1.00  0.00     0.156 HD
ENDBRANCH   1  11
TORSDOF 1
ENDMDL
MODEL 16
REMARK VINA RESULT:      -6.1      8.785     10.418
REMARK  1 active torsions:
REMARK  status: ('A' for Active; 'I' for Inactive)
REMARK    1  A    between atoms: N_1  and  C_2 
ROOT
HETATM    1  C   LIG     1      15.581  33.502  16.383  1.00  0.00     0.036 A 
HETATM    2  C   LIG     1      16.722  33.828  15.633  1.00  0.00     0.030 A 
HETATM    3  C   LIG     1      17.113  33.050  14.545  1.00  0.00     0.003 A 
HETATM    4  C   LIG     1      16.372  31.928  14.183  1.00  0.00     0.012 A 
HETATM    5  C   LIG     1      15.234  31.566  14.916  1.00  0.00    -0.024 A 
HETATM    6  C   LIG     1      14.501  30.427  14.546  1.00  0.00     0.012 A 
HETATM    7  C   LIG     1      13.375  30.048  15.273  1.00  0.00     0.001 A 
HETATM    8  C   LIG     1      12.971  30.796  16.377  1.00  0.00     0.001 A 
HETATM    9  C   LIG     1      13.686  31.933  16.761  1.00  0.00     0.014 A 
HETATM   10  C   LIG     1      14.825  32.348  16.034  1.00  0.00     0.000 A 
ENDROOT
BRANCH   1  11
HETATM   11  N   LIG     1      15.221  34.365  17.474  1.00  0.00    -0.398 N 
HETATM   12  H   LIG     1      15.838  35.166  17.734  1.00  0.00     0.156 HD
HETATM   13  H   LIG     1      14.323  34.289  17.995  1.00  0.00     0.156 HD
ENDBRANCH   1  11
TORSDOF 1
ENDMDL
MODEL 17
REMARK VINA RESULT:      -6.0      9.079     10.848
REMARK  1 active torsions:
REMARK  status: ('A' for Active; 'I' for Inactive)
REMARK    1  A    between atoms: N_1  and  C_2 
ROOT
HETATM    1  C   LIG     1      15.831  31.714  13.893  1.00  0.00     0.036 A 
HETATM    2  C   LIG     1      15.449  30.555  13.199  1.00  0.00     0.030 A 
HETATM    3  C   LIG     1      14.567  29.637  13.765  1.00  0.00     0.003 A 
HETATM    4  C   LIG     1      14.048  29.857  15.039  1.00  0.00     0.012 A 
HETATM    5  C   LIG     1      14.416  30.997  15.765  1.00  0.00    -0.024 A 
HETATM    6  C   LIG     1      13.892  31.201  17.051  1.00  0.00     0.012 A 
HETATM    7  C   LIG     1      14.260  32.324  17.790  1.00  0.00     0.001 A 
HETATM    8  C   LIG     1      15.154  33.249  17.258  1.00  0.00     0.001 A 
HETATM    9  C   LIG     1      15.685  33.065  15.979  1.00  0.00     0.014 A 
HETATM   10  C   LIG     1      15.321  31.942  15.202  1.00  0.00     0.000 A 
ENDROOT
BRANCH   1  11
HETATM   11  N   LIG     1      16.721  32.632  13.237  1.00  0.00    -0.398 N 
HETATM   12  H   LIG     1      16.628  33.659  13.402  1.00  0.00     0.156 HD
HETATM   13  H   LIG     1      17.525  32.332  12.648  1.00  0.00     0.156 HD
ENDBRANCH   1  11
TORSDOF 1
ENDMDL
MODEL 18
REMARK VINA RESULT:      -5.9      9.387     11.003
REMARK  1 active torsions:
REMARK  status: ('A' for Active; 'I' for Inactive)
REMARK    1  A    between atoms: N_1  and  C_2 
ROOT
HETATM    1  C   LIG     1      13.894  30.370  15.068  1.00  0.00     0.036 A 
HETATM    2  C   LIG     1      13.278  30.444  16.327  1.00  0.00     0.030 A 
HETATM    3  C   LIG     1      13.685  31.383  17.272  1.00  0.00     0.003 A 
HETATM    4  C   LIG     1      14.721  32.268  16.980  1.00  0.00     0.012 A 
HETATM    5  C   LIG     1      15.366  32.215  15.738  1.00  0.00    -0.024 A 
HETATM    6  C   LIG     1      16.414  33.106  15.461  1.00  0.00     0.012 A 
HETATM    7  C   LIG     1      17.075  33.057  14.235  1.00  0.00     0.001 A 
HETATM    8  C   LIG     1      16.701  32.116  13.277  1.00  0.00     0.001 A 
HETATM    9  C   LIG     1      15.660  31.221  13.534  1.00  0.00     0.014 A 
HETATM   10  C   LIG     1      14.965  31.258  14.763  1.00  0.00     0.000 A 
ENDROOT
BRANCH   1  11
HETATM   11  N   LIG     1      13.403  29.397  14.131  1.00  0.00    -0.398 N 
HETATM   12  H   LIG     1      12.383  29.348  13.915  1.00  0.00     0.156 HD
HETATM   13  H   LIG     1      14.020  28.766  13.581  1.00  0.00     0.156 HD
ENDBRANCH   1  11
TORSDOF 1
ENDMDL
MODEL 19
REMARK VINA RESULT:      -5.8      2.493      3.846
REMARK  1 active torsions:
REMARK  status: ('A' for Active; 'I' for Inactive)
REMARK    1  A    between atoms: N_1  and  C_2 
ROOT
HETATM    1  C   LIG     1      17.386  36.303  20.092  1.00  0.00     0.036 A 
HETATM    2  C   LIG     1      16.569  35.177  20.275  1.00  0.00     0.030 A 
HETATM    3  C   LIG     1      15.972  34.915  21.506  1.00  0.00     0.003 A 
HETATM    4  C   LIG     1      16.180  35.772  22.583  1.00  0.00     0.012 A 
HETATM    5  C   LIG     1      17.000  36.900  22.440  1.00  0.00    -0.024 A 
HETATM    6  C   LIG     1      17.209  37.751  23.537  1.00  0.00     0.012 A 
HETATM    7  C   LIG     1      18.032  38.869  23.413  1.00  0.00     0.001 A 
HETATM    8  C   LIG     1      18.657  39.146  22.199  1.00  0.00     0.001 A 
HETATM    9  C   LIG     1      18.460  38.311  21.096  1.00  0.00     0.014 A 
HETATM   10  C   LIG     1      17.621  37.178  21.190  1.00  0.00     0.000 A 
ENDROOT
BRANCH   1  11
HETATM   11  N   LIG     1      17.946  36.527  18.787  1.00  0.00    -0.398 N 
HETATM   12  H   LIG     1      17.987  35.747  18.095  1.00  0.00     0.156 HD
HETATM   13  H   LIG     1      18.257  37.460  18.448  1.00  0.00     0.156 HD
ENDBRANCH   1  11
TORSDOF 1
ENDMDL
