MODEL 1
REMARK VINA RESULT:      -8.0      0.000      0.000
REMARK  8 active torsions:
REMARK  status: ('A' for Active; 'I' for Inactive)
REMARK    1  A    between atoms: C_2  and  C_3 
REMARK    2  A    between atoms: C_3  and  C_4 
REMARK    3  A    between atoms: C_4  and  C_5 
REMARK    4  A    between atoms: C_5  and  C_6 
REMARK    5  A    between atoms: C_6  and  O_7 
REMARK    6  A    between atoms: O_7  and  C_8 
REMARK    7  A    between atoms: C_8  and  C_9 
REMARK    8  A    between atoms: C_12  and  N_13 
ROOT
HETATM    1  C   LIG     1      17.732  37.431  21.195  1.00  0.00     0.039 A 
HETATM    2  C   LIG     1      18.032  38.788  21.411  1.00  0.00     0.020 A 
HETATM    3  C   LIG     1      18.978  39.441  20.615  1.00  0.00     0.030 A 
HETATM    4  C   LIG     1      19.639  38.749  19.593  1.00  0.00     0.025 A 
HETATM    5  C   LIG     1      19.346  37.396  19.373  1.00  0.00     0.030 A 
HETATM    6  C   LIG     1      18.400  36.741  20.167  1.00  0.00     0.020 A 
ENDROOT
BRANCH   1   7
HETATM    7  C   LIG     1      16.734  36.734  22.035  1.00  0.00     0.293 C 
HETATM    8  O   LIG     1      15.769  36.125  21.495  1.00  0.00    -0.259 OA
BRANCH   7   9
HETATM    9  O   LIG     1      16.865  36.757  23.431  1.00  0.00    -0.318 OA
BRANCH   9  10
HETATM   10  C   LIG     1      16.315  37.774  24.271  1.00  0.00     0.179 C 
BRANCH  10  11
HETATM   11  C   LIG     1      17.392  38.318  25.208  1.00  0.00     0.027 C 
BRANCH  11  12
HETATM   12  C   LIG     1      18.578  37.348  25.329  1.00  0.00     0.002 C 
BRANCH  12  13
HETATM   13  C   LIG     1      18.544  36.531  26.630  1.00  0.00    -0.000 C 
BRANCH  13  14
HETATM   14  C   LIG     1      18.455  35.019  26.378  1.00  0.00    -0.005 C 
HETATM   15  C   LIG     1      17.026  34.600  26.046  1.00  0.00     0.005 C 
ENDBRANCH  13  14
ENDBRANCH  12  13
ENDBRANCH  11  12
ENDBRANCH  10  11
ENDBRANCH   9  10
ENDBRANCH   7   9
ENDBRANCH   1   7
BRANCH   4  16
HETATM   16  N   LIG     1      20.607  39.417  18.779  1.00  0.00    -0.399 N 
HETATM   17  H   LIG     1      21.390  38.887  18.335  1.00  0.00     0.156 HD
HETATM   18  H   LIG     1      20.549  40.447  18.616  1.00  0.00     0.156 HD
ENDBRANCH   4  16
TORSDOF 8
ENDMDL
MODEL 2
REMARK VINA RESULT:      -7.4      0.770      2.172
REMARK  8 active torsions:
REMARK  status: ('A' for Active; 'I' for Inactive)
REMARK    1  A    between atoms: C_2  and  C_3 
REMARK    2  A    between atoms: C_3  and  C_4 
REMARK    3  A    between atoms: C_4  and  C_5 
REMARK    4  A    between atoms: C_5  and  C_6 
REMARK    5  A    between atoms: C_6  and  O_7 
REMARK    6  A    between atoms: O_7  and  C_8 
REMARK    7  A    between atoms: C_8  and  C_9 
REMARK    8  A    between atoms: C_12  and  N_13 
ROOT
HETATM    1  C   LIG     1      17.511  37.175  21.219  1.00  0.00     0.039 A 
HETATM    2  C   LIG     1      18.221  36.575  20.163  1.00  0.00     0.020 A 
HETATM    3  C   LIG     1      19.194  37.295  19.464  1.00  0.00     0.030 A 
HETATM    4  C   LIG     1      19.473  38.623  19.806  1.00  0.00     0.025 A 
HETATM    5  C   LIG     1      18.769  39.228  20.856  1.00  0.00     0.030 A 
HETATM    6  C   LIG     1      17.796  38.511  21.558  1.00  0.00     0.020 A 
ENDROOT
BRANCH   1   7
HETATM    7  C   LIG     1      16.479  36.421  21.961  1.00  0.00     0.293 C 
HETATM    8  O   LIG     1      15.441  36.018  21.367  1.00  0.00    -0.259 OA
BRANCH   7   9
HETATM    9  O   LIG     1      16.657  36.161  23.327  1.00  0.00    -0.318 OA
BRANCH   9  10
HETATM   10  C   LIG     1      17.310  34.999  23.844  1.00  0.00     0.179 C 
BRANCH  10  11
HETATM   11  C   LIG     1      17.005  34.847  25.334  1.00  0.00     0.027 C 
BRANCH  11  12
HETATM   12  C   LIG     1      18.261  35.073  26.192  1.00  0.00     0.002 C 
BRANCH  12  13
HETATM   13  C   LIG     1      18.714  36.542  26.202  1.00  0.00    -0.000 C 
BRANCH  13  14
HETATM   14  C   LIG     1      17.545  37.521  26.386  1.00  0.00    -0.005 C 
HETATM   15  C   LIG     1      17.481  38.522  25.236  1.00  0.00     0.005 C 
ENDBRANCH  13  14
ENDBRANCH  12  13
ENDBRANCH  11  12
ENDBRANCH  10  11
ENDBRANCH   9  10
ENDBRANCH   7   9
ENDBRANCH   1   7
BRANCH   4  16
HETATM   16  N   LIG     1      20.469  39.359  19.089  1.00  0.00    -0.399 N 
HETATM   17  H   LIG     1      20.430  39.436  18.048  1.00  0.00     0.156 HD
HETATM   18  H   LIG     1      21.252  39.830  19.594  1.00  0.00     0.156 HD
ENDBRANCH   4  16
TORSDOF 8
ENDMDL
MODEL 3
REMARK VINA RESULT:      -7.2      3.348      5.348
REMARK  8 active torsions:
REMARK  status: ('A' for Active; 'I' for Inactive)
REMARK    1  A    between atoms: C_2  and  C_3 
REMARK    2  A    between atoms: C_3  and  C_4 
REMARK    3  A    between atoms: C_4  and  C_5 
REMARK    4  A    between atoms: C_5  and  C_6 
REMARK    5  A    between atoms: C_6  and  O_7 
REMARK    6  A    between atoms: O_7  and  C_8 
REMARK    7  A    between atoms: C_8  and  C_9 
REMARK    8  A    between atoms: C_12  and  N_13 
ROOT
HETATM    1  C   LIG     1      17.594  37.207  21.257  1.00  0.00     0.039 A 
HETATM    2  C   LIG     1      18.230  36.607  20.155  1.00  0.00     0.020 A 
HETATM    3  C   LIG     1      19.134  37.335  19.376  1.00  0.00     0.030 A 
HETATM    4  C   LIG     1      19.417  38.671  19.684  1.00  0.00     0.025 A 
HETATM    5  C   LIG     1      18.787  39.275  20.781  1.00  0.00     0.030 A 
HETATM    6  C   LIG     1      17.882  38.549  21.562  1.00  0.00     0.020 A 
ENDROOT
BRANCH   1   7
HETATM    7  C   LIG     1      16.633  36.444  22.083  1.00  0.00     0.293 C 
HETATM    8  O   LIG     1      16.883  36.225  23.301  1.00  0.00    -0.259 OA
BRANCH   7   9
HETATM    9  O   LIG     1      15.450  35.963  21.506  1.00  0.00    -0.318 OA
BRANCH   9  10
HETATM   10  C   LIG     1      15.125  34.578  21.377  1.00  0.00     0.179 C 
BRANCH  10  11
HETATM   11  C   LIG     1      15.525  34.073  19.991  1.00  0.00     0.027 C 
BRANCH  11  12
HETATM   12  C   LIG     1      15.711  32.547  19.979  1.00  0.00     0.002 C 
BRANCH  12  13
HETATM   13  C   LIG     1      14.645  31.828  19.137  1.00  0.00    -0.000 C 
BRANCH  13  14
HETATM   14  C   LIG     1      14.748  32.162  17.642  1.00  0.00    -0.005 C 
HETATM   15  C   LIG     1      13.392  32.025  16.954  1.00  0.00     0.005 C 
ENDBRANCH  13  14
ENDBRANCH  12  13
ENDBRANCH  11  12
ENDBRANCH  10  11
ENDBRANCH   9  10
ENDBRANCH   7   9
ENDBRANCH   1   7
BRANCH   4  16
HETATM   16  N   LIG     1      20.343  39.414  18.887  1.00  0.00    -0.399 N 
HETATM   17  H   LIG     1      21.144  38.939  18.415  1.00  0.00     0.156 HD
HETATM   18  H   LIG     1      20.234  40.446  18.763  1.00  0.00     0.156 HD
ENDBRANCH   4  16
TORSDOF 8
ENDMDL
MODEL 4
REMARK VINA RESULT:      -6.8      4.590      6.873
REMARK  8 active torsions:
REMARK  status: ('A' for Active; 'I' for Inactive)
REMARK    1  A    between atoms: C_2  and  C_3 
REMARK    2  A    between atoms: C_3  and  C_4 
REMARK    3  A    between atoms: C_4  and  C_5 
REMARK    4  A    between atoms: C_5  and  C_6 
REMARK    5  A    between atoms: C_6  and  O_7 
REMARK    6  A    between atoms: O_7  and  C_8 
REMARK    7  A    between atoms: C_8  and  C_9 
REMARK    8  A    between atoms: C_12  and  N_13 
ROOT
HETATM    1  C   LIG     1      16.980  36.221  22.194  1.00  0.00     0.039 A 
HETATM    2  C   LIG     1      17.117  35.611  23.454  1.00  0.00     0.020 A 
HETATM    3  C   LIG     1      17.217  36.388  24.611  1.00  0.00     0.030 A 
HETATM    4  C   LIG     1      17.181  37.785  24.530  1.00  0.00     0.025 A 
HETATM    5  C   LIG     1      17.045  38.401  23.278  1.00  0.00     0.030 A 
HETATM    6  C   LIG     1      16.946  37.626  22.118  1.00  0.00     0.020 A 
ENDROOT
BRANCH   1   7
HETATM    7  C   LIG     1      16.878  35.406  20.965  1.00  0.00     0.293 C 
HETATM    8  O   LIG     1      17.232  35.890  19.854  1.00  0.00    -0.259 OA
BRANCH   7   9
HETATM    9  O   LIG     1      16.383  34.097  21.040  1.00  0.00    -0.318 OA
BRANCH   9  10
HETATM   10  C   LIG     1      15.261  33.619  20.295  1.00  0.00     0.179 C 
BRANCH  10  11
HETATM   11  C   LIG     1      15.561  32.231  19.729  1.00  0.00     0.027 C 
BRANCH  11  12
HETATM   12  C   LIG     1      14.555  31.839  18.634  1.00  0.00     0.002 C 
BRANCH  12  13
HETATM   13  C   LIG     1      14.840  32.532  17.293  1.00  0.00    -0.000 C 
BRANCH  13  14
HETATM   14  C   LIG     1      14.598  31.612  16.088  1.00  0.00    -0.005 C 
HETATM   15  C   LIG     1      13.317  30.802  16.264  1.00  0.00     0.005 C 
ENDBRANCH  13  14
ENDBRANCH  12  13
ENDBRANCH  11  12
ENDBRANCH  10  11
ENDBRANCH   9  10
ENDBRANCH   7   9
ENDBRANCH   1   7
BRANCH   4  16
HETATM   16  N   LIG     1      17.283  38.579  25.715  1.00  0.00    -0.399 N 
HETATM   17  H   LIG     1      16.487  39.179  26.027  1.00  0.00     0.156 HD
HETATM   18  H   LIG     1      18.156  38.574  26.289  1.00  0.00     0.156 HD
ENDBRANCH   4  16
TORSDOF 8
ENDMDL
MODEL 5
REMARK VINA RESULT:      -6.7      6.499      7.883
REMARK  8 active torsions:
REMARK  status: ('A' for Active; 'I' for Inactive)
REMARK    1  A    between atoms: C_2  and  C_3 
REMARK    2  A    between atoms: C_3  and  C_4 
REMARK    3  A    between atoms: C_4  and  C_5 
REMARK    4  A    between atoms: C_5  and  C_6 
REMARK    5  A    between atoms: C_6  and  O_7 
REMARK    6  A    between atoms: O_7  and  C_8 
REMARK    7  A    between atoms: C_8  and  C_9 
REMARK    8  A    between atoms: C_12  and  N_13 
ROOT
HETATM    1  C   LIG     1      14.931  32.470  16.350  1.00  0.00     0.039 A 
HETATM    2  C   LIG     1      13.769  31.760  16.703  1.00  0.00     0.020 A 
HETATM    3  C   LIG     1      13.353  30.659  15.949  1.00  0.00     0.030 A 
HETATM    4  C   LIG     1      14.091  30.249  14.831  1.00  0.00     0.025 A 
HETATM    5  C   LIG     1      15.250  30.952  14.473  1.00  0.00     0.030 A 
HETATM    6  C   LIG     1      15.668  32.053  15.226  1.00  0.00     0.020 A 
ENDROOT
BRANCH   1   7
HETATM    7  C   LIG     1      15.375  33.637  17.142  1.00  0.00     0.293 C 
HETATM    8  O   LIG     1      15.776  34.681  16.557  1.00  0.00    -0.259 OA
BRANCH   7   9
HETATM    9  O   LIG     1      15.351  33.575  18.542  1.00  0.00    -0.318 OA
BRANCH   9  10
HETATM   10  C   LIG     1      15.669  34.673  19.399  1.00  0.00     0.179 C 
BRANCH  10  11
HETATM   11  C   LIG     1      15.733  34.203  20.852  1.00  0.00     0.027 C 
BRANCH  11  12
HETATM   12  C   LIG     1      16.670  35.087  21.691  1.00  0.00     0.002 C 
BRANCH  12  13
HETATM   13  C   LIG     1      17.404  36.140  20.845  1.00  0.00    -0.000 C 
BRANCH  13  14
HETATM   14  C   LIG     1      17.504  37.500  21.550  1.00  0.00    -0.005 C 
HETATM   15  C   LIG     1      16.394  37.667  22.584  1.00  0.00     0.005 C 
ENDBRANCH  13  14
ENDBRANCH  12  13
ENDBRANCH  11  12
ENDBRANCH  10  11
ENDBRANCH   9  10
ENDBRANCH   7   9
ENDBRANCH   1   7
BRANCH   4  16
HETATM   16  N   LIG     1      13.665  29.123  14.060  1.00  0.00    -0.399 N 
HETATM   17  H   LIG     1      13.054  29.249  13.223  1.00  0.00     0.156 HD
HETATM   18  H   LIG     1      13.957  28.155  14.321  1.00  0.00     0.156 HD
ENDBRANCH   4  16
TORSDOF 8
ENDMDL
MODEL 6
REMARK VINA RESULT:      -6.6      2.744      4.999
REMARK  8 active torsions:
REMARK  status: ('A' for Active; 'I' for Inactive)
REMARK    1  A    between atoms: C_2  and  C_3 
REMARK    2  A    between atoms: C_3  and  C_4 
REMARK    3  A    between atoms: C_4  and  C_5 
REMARK    4  A    between atoms: C_5  and  C_6 
REMARK    5  A    between atoms: C_6  and  O_7 
REMARK    6  A    between atoms: O_7  and  C_8 
REMARK    7  A    between atoms: C_8  and  C_9 
REMARK    8  A    between atoms: C_12  and  N_13 
ROOT
HETATM    1  C   LIG     1      16.411  36.381  22.922  1.00  0.00     0.039 A 
HETATM    2  C   LIG     1      17.276  35.398  22.409  1.00  0.00     0.020 A 
HETATM    3  C   LIG     1      16.918  34.659  21.278  1.00  0.00     0.030 A 
HETATM    4  C   LIG     1      15.692  34.890  20.642  1.00  0.00     0.025 A 
HETATM    5  C   LIG     1      14.824  35.867  21.148  1.00  0.00     0.030 A 
HETATM    6  C   LIG     1      15.180  36.608  22.279  1.00  0.00     0.020 A 
ENDROOT
BRANCH   1   7
HETATM    7  C   LIG     1      16.781  37.164  24.121  1.00  0.00     0.293 C 
HETATM    8  O   LIG     1      17.135  36.571  25.178  1.00  0.00    -0.259 OA
BRANCH   7   9
HETATM    9  O   LIG     1      16.734  38.564  24.077  1.00  0.00    -0.318 OA
BRANCH   9  10
HETATM   10  C   LIG     1      16.790  39.331  22.873  1.00  0.00     0.179 C 
BRANCH  10  11
HETATM   11  C   LIG     1      18.226  39.378  22.349  1.00  0.00     0.027 C 
BRANCH  11  12
HETATM   12  C   LIG     1      18.329  38.793  20.931  1.00  0.00     0.002 C 
BRANCH  12  13
HETATM   13  C   LIG     1      19.637  39.181  20.225  1.00  0.00    -0.000 C 
BRANCH  13  14
HETATM   14  C   LIG     1      20.172  38.066  19.314  1.00  0.00    -0.005 C 
HETATM   15  C   LIG     1      19.360  36.784  19.481  1.00  0.00     0.005 C 
ENDBRANCH  13  14
ENDBRANCH  12  13
ENDBRANCH  11  12
ENDBRANCH  10  11
ENDBRANCH   9  10
ENDBRANCH   7   9
ENDBRANCH   1   7
BRANCH   4  16
HETATM   16  N   LIG     1      15.326  34.133  19.484  1.00  0.00    -0.399 N 
HETATM   17  H   LIG     1      14.925  33.173  19.578  1.00  0.00     0.156 HD
HETATM   18  H   LIG     1      15.455  34.526  18.525  1.00  0.00     0.156 HD
ENDBRANCH   4  16
TORSDOF 8
ENDMDL
MODEL 7
REMARK VINA RESULT:      -6.5      2.648      3.295
REMARK  8 active torsions:
REMARK  status: ('A' for Active; 'I' for Inactive)
REMARK    1  A    between atoms: C_2  and  C_3 
REMARK    2  A    between atoms: C_3  and  C_4 
REMARK    3  A    between atoms: C_4  and  C_5 
REMARK    4  A    between atoms: C_5  and  C_6 
REMARK    5  A    between atoms: C_6  and  O_7 
REMARK    6  A    between atoms: O_7  and  C_8 
REMARK    7  A    between atoms: C_8  and  C_9 
REMARK    8  A    between atoms: C_12  and  N_13 
ROOT
HETATM    1  C   LIG     1      16.921  37.414  21.850  1.00  0.00     0.039 A 
HETATM    2  C   LIG     1      15.625  36.998  22.202  1.00  0.00     0.020 A 
HETATM    3  C   LIG     1      15.055  35.869  21.605  1.00  0.00     0.030 A 
HETATM    4  C   LIG     1      15.771  35.139  20.649  1.00  0.00     0.025 A 
HETATM    5  C   LIG     1      17.064  35.547  20.293  1.00  0.00     0.030 A 
HETATM    6  C   LIG     1      17.635  36.676  20.888  1.00  0.00     0.020 A 
ENDROOT
BRANCH   1   7
HETATM    7  C   LIG     1      17.529  38.608  22.475  1.00  0.00     0.293 C 
HETATM    8  O   LIG     1      18.632  39.052  22.050  1.00  0.00    -0.259 OA
BRANCH   7   9
HETATM    9  O   LIG     1      16.875  39.241  23.542  1.00  0.00    -0.318 OA
BRANCH   9  10
HETATM   10  C   LIG     1      17.365  39.261  24.884  1.00  0.00     0.179 C 
BRANCH  10  11
HETATM   11  C   LIG     1      17.186  37.886  25.527  1.00  0.00     0.027 C 
BRANCH  11  12
HETATM   12  C   LIG     1      18.540  37.212  25.803  1.00  0.00     0.002 C 
BRANCH  12  13
HETATM   13  C   LIG     1      18.442  36.097  26.856  1.00  0.00    -0.000 C 
BRANCH  13  14
HETATM   14  C   LIG     1      18.185  34.717  26.234  1.00  0.00    -0.005 C 
HETATM   15  C   LIG     1      17.370  34.836  24.949  1.00  0.00     0.005 C 
ENDBRANCH  13  14
ENDBRANCH  12  13
ENDBRANCH  11  12
ENDBRANCH  10  11
ENDBRANCH   9  10
ENDBRANCH   7   9
ENDBRANCH   1   7
BRANCH   4  16
HETATM   16  N   LIG     1      15.188  33.984  20.039  1.00  0.00    -0.399 N 
HETATM   17  H   LIG     1      14.399  34.079  19.361  1.00  0.00     0.156 HD
HETATM   18  H   LIG     1      15.539  33.026  20.261  1.00  0.00     0.156 HD
ENDBRANCH   4  16
TORSDOF 8
ENDMDL
MODEL 8
REMARK VINA RESULT:      -6.5      7.694      9.177
REMARK  8 active torsions:
REMARK  status: ('A' for Active; 'I' for Inactive)
REMARK    1  A    between atoms: C_2  and  C_3 
REMARK    2  A    between atoms: C_3  and  C_4 
REMARK    3  A    between atoms: C_4  and  C_5 
REMARK    4  A    between atoms: C_5  and  C_6 
REMARK    5  A    between atoms: C_6  and  O_7 
REMARK    6  A    between atoms: O_7  and  C_8 
REMARK    7  A    between atoms: C_8  and  C_9 
REMARK    8  A    between atoms: C_12  and  N_13 
ROOT
HETATM    1  C   LIG     1      15.023  31.435  15.294  1.00  0.00     0.039 A 
HETATM    2  C   LIG     1      13.719  31.209  15.772  1.00  0.00     0.020 A 
HETATM    3  C   LIG     1      12.966  30.133  15.295  1.00  0.00     0.030 A 
HETATM    4  C   LIG     1      13.501  29.266  14.335  1.00  0.00     0.025 A 
HETATM    5  C   LIG     1      14.799  29.485  13.854  1.00  0.00     0.030 A 
HETATM    6  C   LIG     1      15.555  30.561  14.329  1.00  0.00     0.020 A 
ENDROOT
BRANCH   1   7
HETATM    7  C   LIG     1      15.824  32.573  15.792  1.00  0.00     0.293 C 
HETATM    8  O   LIG     1      17.084  32.545  15.707  1.00  0.00    -0.259 OA
BRANCH   7   9
HETATM    9  O   LIG     1      15.179  33.680  16.362  1.00  0.00    -0.318 OA
BRANCH   9  10
HETATM   10  C   LIG     1      15.372  34.116  17.708  1.00  0.00     0.179 C 
BRANCH  10  11
HETATM   11  C   LIG     1      15.270  32.927  18.664  1.00  0.00     0.027 C 
BRANCH  11  12
HETATM   12  C   LIG     1      15.411  33.367  20.130  1.00  0.00     0.002 C 
BRANCH  12  13
HETATM   13  C   LIG     1      15.803  34.847  20.268  1.00  0.00    -0.000 C 
BRANCH  13  14
HETATM   14  C   LIG     1      15.687  35.358  21.711  1.00  0.00    -0.005 C 
HETATM   15  C   LIG     1      17.030  35.276  22.432  1.00  0.00     0.005 C 
ENDBRANCH  13  14
ENDBRANCH  12  13
ENDBRANCH  11  12
ENDBRANCH  10  11
ENDBRANCH   9  10
ENDBRANCH   7   9
ENDBRANCH   1   7
BRANCH   4  16
HETATM   16  N   LIG     1      12.730  28.165  13.847  1.00  0.00    -0.399 N 
HETATM   17  H   LIG     1      11.760  28.310  13.486  1.00  0.00     0.156 HD
HETATM   18  H   LIG     1      13.121  27.196  13.844  1.00  0.00     0.156 HD
ENDBRANCH   4  16
TORSDOF 8
ENDMDL
MODEL 9
REMARK VINA RESULT:      -6.4      9.395     11.702
REMARK  8 active torsions:
REMARK  status: ('A' for Active; 'I' for Inactive)
REMARK    1  A    between atoms: C_2  and  C_3 
REMARK    2  A    between atoms: C_3  and  C_4 
REMARK    3  A    between atoms: C_4  and  C_5 
REMARK    4  A    between atoms: C_5  and  C_6 
REMARK    5  A    between atoms: C_6  and  O_7 
REMARK    6  A    between atoms: O_7  and  C_8 
REMARK    7  A    between atoms: C_8  and  C_9 
REMARK    8  A    between atoms: C_12  and  N_13 
ROOT
HETATM    1  C   LIG     1      15.244  31.401  15.351  1.00  0.00     0.039 A 
HETATM    2  C   LIG     1      13.974  31.281  15.942  1.00  0.00     0.020 A 
HETATM    3  C   LIG     1      13.060  30.334  15.472  1.00  0.00     0.030 A 
HETATM    4  C   LIG     1      13.400  29.492  14.406  1.00  0.00     0.025 A 
HETATM    5  C   LIG     1      14.664  29.606  13.812  1.00  0.00     0.030 A 
HETATM    6  C   LIG     1      15.580  30.553  14.280  1.00  0.00     0.020 A 
ENDROOT
BRANCH   1   7
HETATM    7  C   LIG     1      16.215  32.403  15.841  1.00  0.00     0.293 C 
HETATM    8  O   LIG     1      15.879  33.218  16.745  1.00  0.00    -0.259 OA
BRANCH   7   9
HETATM    9  O   LIG     1      17.505  32.445  15.294  1.00  0.00    -0.318 OA
BRANCH   9  10
HETATM   10  C   LIG     1      18.016  33.537  14.528  1.00  0.00     0.179 C 
BRANCH  10  11
HETATM   11  C   LIG     1      17.543  33.428  13.079  1.00  0.00     0.027 C 
BRANCH  11  12
HETATM   12  C   LIG     1      18.634  33.878  12.093  1.00  0.00     0.002 C 
BRANCH  12  13
HETATM   13  C   LIG     1      20.003  34.057  12.768  1.00  0.00    -0.000 C 
BRANCH  13  14
HETATM   14  C   LIG     1      21.151  33.449  11.948  1.00  0.00    -0.005 C 
HETATM   15  C   LIG     1      20.622  32.463  10.911  1.00  0.00     0.005 C 
ENDBRANCH  13  14
ENDBRANCH  12  13
ENDBRANCH  11  12
ENDBRANCH  10  11
ENDBRANCH   9  10
ENDBRANCH   7   9
ENDBRANCH   1   7
BRANCH   4  16
HETATM   16  N   LIG     1      12.464  28.523  13.925  1.00  0.00    -0.399 N 
HETATM   17  H   LIG     1      11.436  28.674  14.031  1.00  0.00     0.156 HD
HETATM   18  H   LIG     1      12.792  27.647  13.461  1.00  0.00     0.156 HD
ENDBRANCH   4  16
TORSDOF 8
ENDMDL
MODEL 10
REMARK VINA RESULT:      -6.4      2.625      6.149
REMARK  8 active torsions:
REMARK  status: ('A' for Active; 'I' for Inactive)
REMARK    1  A    between atoms: C_2  and  C_3 
REMARK    2  A    between atoms: C_3  and  C_4 
REMARK    3  A    between atoms: C_4  and  C_5 
REMARK    4  A    between atoms: C_5  and  C_6 
REMARK    5  A    between atoms: C_6  and  O_7 
REMARK    6  A    between atoms: O_7  and  C_8 
REMARK    7  A    between atoms: C_8  and  C_9 
REMARK    8  A    between atoms: C_12  and  N_13 
ROOT
HETATM    1  C   LIG     1      16.628  36.175  22.791  1.00  0.00     0.039 A 
HETATM    2  C   LIG     1      17.006  35.104  23.621  1.00  0.00     0.020 A 
HETATM    3  C   LIG     1      17.529  35.344  24.894  1.00  0.00     0.030 A 
HETATM    4  C   LIG     1      17.684  36.655  25.359  1.00  0.00     0.025 A 
HETATM    5  C   LIG     1      17.310  37.728  24.538  1.00  0.00     0.030 A 
HETATM    6  C   LIG     1      16.786  37.491  23.263  1.00  0.00     0.020 A 
ENDROOT
BRANCH   1   7
HETATM    7  C   LIG     1      16.076  35.928  21.441  1.00  0.00     0.293 C 
HETATM    8  O   LIG     1      14.829  35.826  21.278  1.00  0.00    -0.259 OA
BRANCH   7   9
HETATM    9  O   LIG     1      16.945  35.806  20.348  1.00  0.00    -0.318 OA
BRANCH   9  10
HETATM   10  C   LIG     1      18.309  36.231  20.356  1.00  0.00     0.179 C 
BRANCH  10  11
HETATM   11  C   LIG     1      18.400  37.706  19.964  1.00  0.00     0.027 C 
BRANCH  11  12
HETATM   12  C   LIG     1      19.848  38.118  19.651  1.00  0.00     0.002 C 
BRANCH  12  13
HETATM   13  C   LIG     1      19.930  39.244  18.609  1.00  0.00    -0.000 C 
BRANCH  13  14
HETATM   14  C   LIG     1      18.577  39.532  17.941  1.00  0.00    -0.005 C 
HETATM   15  C   LIG     1      18.719  39.606  16.424  1.00  0.00     0.005 C 
ENDBRANCH  13  14
ENDBRANCH  12  13
ENDBRANCH  11  12
ENDBRANCH  10  11
ENDBRANCH   9  10
ENDBRANCH   7   9
ENDBRANCH   1   7
BRANCH   4  16
HETATM   16  N   LIG     1      18.220  36.900  26.663  1.00  0.00    -0.399 N 
HETATM   17  H   LIG     1      17.597  37.184  27.452  1.00  0.00     0.156 HD
HETATM   18  H   LIG     1      19.243  36.800  26.848  1.00  0.00     0.156 HD
ENDBRANCH   4  16
TORSDOF 8
ENDMDL
MODEL 11
REMARK VINA RESULT:      -6.2      8.846     11.239
REMARK  8 active torsions:
REMARK  status: ('A' for Active; 'I' for Inactive)
REMARK    1  A    between atoms: C_2  and  C_3 
REMARK    2  A    between atoms: C_3  and  C_4 
REMARK    3  A    between atoms: C_4  and  C_5 
REMARK    4  A    between atoms: C_5  and  C_6 
REMARK    5  A    between atoms: C_6  and  O_7 
REMARK    6  A    between atoms: O_7  and  C_8 
REMARK    7  A    between atoms: C_8  and  C_9 
REMARK    8  A    between atoms: C_12  and  N_13 
ROOT
HETATM    1  C   LIG     1      15.804  32.636  15.507  1.00  0.00     0.039 A 
HETATM    2  C   LIG     1      15.467  31.481  14.779  1.00  0.00     0.020 A 
HETATM    3  C   LIG     1      14.381  30.690  15.165  1.00  0.00     0.030 A 
HETATM    4  C   LIG     1      13.615  31.040  16.284  1.00  0.00     0.025 A 
HETATM    5  C   LIG     1      13.945  32.189  17.015  1.00  0.00     0.030 A 
HETATM    6  C   LIG     1      15.031  32.982  16.631  1.00  0.00     0.020 A 
ENDROOT
BRANCH   1   7
HETATM    7  C   LIG     1      16.953  33.475  15.106  1.00  0.00     0.293 C 
HETATM    8  O   LIG     1      17.046  34.662  15.526  1.00  0.00    -0.259 OA
BRANCH   7   9
HETATM    9  O   LIG     1      17.935  32.947  14.256  1.00  0.00    -0.318 OA
BRANCH   9  10
HETATM   10  C   LIG     1      17.912  33.066  12.833  1.00  0.00     0.179 C 
BRANCH  10  11
HETATM   11  C   LIG     1      18.589  34.368  12.405  1.00  0.00     0.027 C 
BRANCH  11  12
HETATM   12  C   LIG     1      19.551  34.143  11.226  1.00  0.00     0.002 C 
BRANCH  12  13
HETATM   13  C   LIG     1      20.903  33.564  11.669  1.00  0.00    -0.000 C 
BRANCH  13  14
HETATM   14  C   LIG     1      21.328  34.051  13.062  1.00  0.00    -0.005 C 
HETATM   15  C   LIG     1      22.414  35.119  12.964  1.00  0.00     0.005 C 
ENDBRANCH  13  14
ENDBRANCH  12  13
ENDBRANCH  11  12
ENDBRANCH  10  11
ENDBRANCH   9  10
ENDBRANCH   7   9
ENDBRANCH   1   7
BRANCH   4  16
HETATM   16  N   LIG     1      12.504  30.230  16.678  1.00  0.00    -0.399 N 
HETATM   17  H   LIG     1      12.258  29.365  16.147  1.00  0.00     0.156 HD
HETATM   18  H   LIG     1      11.919  30.490  17.504  1.00  0.00     0.156 HD
ENDBRANCH   4  16
TORSDOF 8
ENDMDL
MODEL 12
REMARK VINA RESULT:      -6.2      6.142      7.228
REMARK  8 active torsions:
REMARK  status: ('A' for Active; 'I' for Inactive)
REMARK    1  A    between atoms: C_2  and  C_3 
REMARK    2  A    between atoms: C_3  and  C_4 
REMARK    3  A    between atoms: C_4  and  C_5 
REMARK    4  A    between atoms: C_5  and  C_6 
REMARK    5  A    between atoms: C_6  and  O_7 
REMARK    6  A    between atoms: O_7  and  C_8 
REMARK    7  A    between atoms: C_8  and  C_9 
REMARK    8  A    between atoms: C_12  and  N_13 
ROOT
HETATM    1  C   LIG     1      14.912  31.832  17.264  1.00  0.00     0.039 A 
HETATM    2  C   LIG     1      15.927  32.288  16.403  1.00  0.00     0.020 A 
HETATM    3  C   LIG     1      15.961  31.878  15.067  1.00  0.00     0.030 A 
HETATM    4  C   LIG     1      14.984  31.008  14.570  1.00  0.00     0.025 A 
HETATM    5  C   LIG     1      13.969  30.549  15.422  1.00  0.00     0.030 A 
HETATM    6  C   LIG     1      13.933  30.957  16.759  1.00  0.00     0.020 A 
ENDROOT
BRANCH   1   7
HETATM    7  C   LIG     1      14.872  32.259  18.679  1.00  0.00     0.293 C 
HETATM    8  O   LIG     1      14.327  31.521  19.546  1.00  0.00    -0.259 OA
BRANCH   7   9
HETATM    9  O   LIG     1      15.439  33.487  19.050  1.00  0.00    -0.318 OA
BRANCH   9  10
HETATM   10  C   LIG     1      15.700  33.875  20.400  1.00  0.00     0.179 C 
BRANCH  10  11
HETATM   11  C   LIG     1      16.168  35.329  20.446  1.00  0.00     0.027 C 
BRANCH  11  12
HETATM   12  C   LIG     1      15.763  36.011  21.763  1.00  0.00     0.002 C 
BRANCH  12  13
HETATM   13  C   LIG     1      16.949  36.193  22.723  1.00  0.00    -0.000 C 
BRANCH  13  14
HETATM   14  C   LIG     1      17.048  35.066  23.762  1.00  0.00    -0.005 C 
HETATM   15  C   LIG     1      17.508  35.603  25.113  1.00  0.00     0.005 C 
ENDBRANCH  13  14
ENDBRANCH  12  13
ENDBRANCH  11  12
ENDBRANCH  10  11
ENDBRANCH   9  10
ENDBRANCH   7   9
ENDBRANCH   1   7
BRANCH   4  16
HETATM   16  N   LIG     1      15.019  30.589  13.203  1.00  0.00    -0.399 N 
HETATM   17  H   LIG     1      14.142  30.321  12.703  1.00  0.00     0.156 HD
HETATM   18  H   LIG     1      15.923  30.542  12.681  1.00  0.00     0.156 HD
ENDBRANCH   4  16
TORSDOF 8
ENDMDL
MODEL 13
REMARK VINA RESULT:      -6.1      5.944      7.529
REMARK  8 active torsions:
REMARK  status: ('A' for Active; 'I' for Inactive)
REMARK    1  A    between atoms: C_2  and  C_3 
REMARK    2  A    between atoms: C_3  and  C_4 
REMARK    3  A    between atoms: C_4  and  C_5 
REMARK    4  A    between atoms: C_5  and  C_6 
REMARK    5  A    between atoms: C_6  and  O_7 
REMARK    6  A    between atoms: O_7  and  C_8 
REMARK    7  A    between atoms: C_8  and  C_9 
REMARK    8  A    between atoms: C_12  and  N_13 
ROOT
HETATM    1  C   LIG     1      15.068  32.209  17.230  1.00  0.00     0.039 A 
HETATM    2  C   LIG     1      16.019  32.513  16.239  1.00  0.00     0.020 A 
HETATM    3  C   LIG     1      15.951  31.905  14.982  1.00  0.00     0.030 A 
HETATM    4  C   LIG     1      14.935  30.986  14.695  1.00  0.00     0.025 A 
HETATM    5  C   LIG     1      13.985  30.678  15.678  1.00  0.00     0.030 A 
HETATM    6  C   LIG     1      14.050  31.284  16.936  1.00  0.00     0.020 A 
ENDROOT
BRANCH   1   7
HETATM    7  C   LIG     1      15.136  32.845  18.564  1.00  0.00     0.293 C 
HETATM    8  O   LIG     1      14.708  32.229  19.580  1.00  0.00    -0.259 OA
BRANCH   7   9
HETATM    9  O   LIG     1      15.672  34.134  18.691  1.00  0.00    -0.318 OA
BRANCH   9  10
HETATM   10  C   LIG     1      15.387  35.017  19.777  1.00  0.00     0.179 C 
BRANCH  10  11
HETATM   11  C   LIG     1      16.553  35.023  20.766  1.00  0.00     0.027 C 
BRANCH  11  12
HETATM   12  C   LIG     1      16.560  36.301  21.622  1.00  0.00     0.002 C 
BRANCH  12  13
HETATM   13  C   LIG     1      17.683  37.272  21.226  1.00  0.00    -0.000 C 
BRANCH  13  14
HETATM   14  C   LIG     1      18.507  36.767  20.032  1.00  0.00    -0.005 C 
HETATM   15  C   LIG     1      19.440  37.856  19.510  1.00  0.00     0.005 C 
ENDBRANCH  13  14
ENDBRANCH  12  13
ENDBRANCH  11  12
ENDBRANCH  10  11
ENDBRANCH   9  10
ENDBRANCH   7   9
ENDBRANCH   1   7
BRANCH   4  16
HETATM   16  N   LIG     1      14.867  30.365  13.408  1.00  0.00    -0.399 N 
HETATM   17  H   LIG     1      15.119  30.896  12.545  1.00  0.00     0.156 HD
HETATM   18  H   LIG     1      14.563  29.371  13.310  1.00  0.00     0.156 HD
ENDBRANCH   4  16
TORSDOF 8
ENDMDL
MODEL 14
REMARK VINA RESULT:      -6.1      5.005      7.239
REMARK  8 active torsions:
REMARK  status: ('A' for Active; 'I' for Inactive)
REMARK    1  A    between atoms: C_2  and  C_3 
REMARK    2  A    between atoms: C_3  and  C_4 
REMARK    3  A    between atoms: C_4  and  C_5 
REMARK    4  A    between atoms: C_5  and  C_6 
REMARK    5  A    between atoms: C_6  and  O_7 
REMARK    6  A    between atoms: O_7  and  C_8 
REMARK    7  A    between atoms: C_8  and  C_9 
REMARK    8  A    between atoms: C_12  and  N_13 
ROOT
HETATM    1  C   LIG     1      16.603  35.997  21.031  1.00  0.00     0.039 A 
HETATM    2  C   LIG     1      17.739  36.169  20.220  1.00  0.00     0.020 A 
HETATM    3  C   LIG     1      18.568  37.282  20.386  1.00  0.00     0.030 A 
HETATM    4  C   LIG     1      18.276  38.240  21.364  1.00  0.00     0.025 A 
HETATM    5  C   LIG     1      17.145  38.076  22.176  1.00  0.00     0.030 A 
HETATM    6  C   LIG     1      16.314  36.963  22.012  1.00  0.00     0.020 A 
ENDROOT
BRANCH   1   7
HETATM    7  C   LIG     1      15.720  34.823  20.858  1.00  0.00     0.293 C 
HETATM    8  O   LIG     1      15.219  34.256  21.869  1.00  0.00    -0.259 OA
BRANCH   7   9
HETATM    9  O   LIG     1      15.448  34.343  19.570  1.00  0.00    -0.318 OA
BRANCH   9  10
HETATM   10  C   LIG     1      15.385  32.958  19.226  1.00  0.00     0.179 C 
BRANCH  10  11
HETATM   11  C   LIG     1      15.364  32.795  17.707  1.00  0.00     0.027 C 
BRANCH  11  12
HETATM   12  C   LIG     1      14.069  32.117  17.230  1.00  0.00     0.002 C 
BRANCH  12  13
HETATM   13  C   LIG     1      14.322  31.052  16.152  1.00  0.00    -0.000 C 
BRANCH  13  14
HETATM   14  C   LIG     1      13.023  30.435  15.613  1.00  0.00    -0.005 C 
HETATM   15  C   LIG     1      13.290  29.594  14.367  1.00  0.00     0.005 C 
ENDBRANCH  13  14
ENDBRANCH  12  13
ENDBRANCH  11  12
ENDBRANCH  10  11
ENDBRANCH   9  10
ENDBRANCH   7   9
ENDBRANCH   1   7
BRANCH   4  16
HETATM   16  N   LIG     1      19.124  39.379  21.534  1.00  0.00    -0.399 N 
HETATM   17  H   LIG     1      20.162  39.272  21.570  1.00  0.00     0.156 HD
HETATM   18  H   LIG     1      18.720  40.338  21.625  1.00  0.00     0.156 HD
ENDBRANCH   4  16
TORSDOF 8
ENDMDL
MODEL 15
REMARK VINA RESULT:      -5.5      6.086      7.527
REMARK  8 active torsions:
REMARK  status: ('A' for Active; 'I' for Inactive)
REMARK    1  A    between atoms: C_2  and  C_3 
REMARK    2  A    between atoms: C_3  and  C_4 
REMARK    3  A    between atoms: C_4  and  C_5 
REMARK    4  A    between atoms: C_5  and  C_6 
REMARK    5  A    between atoms: C_6  and  O_7 
REMARK    6  A    between atoms: O_7  and  C_8 
REMARK    7  A    between atoms: C_8  and  C_9 
REMARK    8  A    between atoms: C_12  and  N_13 
ROOT
HETATM    1  C   LIG     1      16.013  32.651  15.334  1.00  0.00     0.039 A 
HETATM    2  C   LIG     1      16.956  33.692  15.413  1.00  0.00     0.020 A 
HETATM    3  C   LIG     1      17.732  34.031  14.301  1.00  0.00     0.030 A 
HETATM    4  C   LIG     1      17.579  33.339  13.094  1.00  0.00     0.025 A 
HETATM    5  C   LIG     1      16.642  32.300  13.008  1.00  0.00     0.030 A 
HETATM    6  C   LIG     1      15.864  31.958  14.119  1.00  0.00     0.020 A 
ENDROOT
BRANCH   1   7
HETATM    7  C   LIG     1      15.191  32.285  16.507  1.00  0.00     0.293 C 
HETATM    8  O   LIG     1      14.105  31.661  16.347  1.00  0.00    -0.259 OA
BRANCH   7   9
HETATM    9  O   LIG     1      15.622  32.636  17.794  1.00  0.00    -0.318 OA
BRANCH   9  10
HETATM   10  C   LIG     1      14.889  32.360  18.989  1.00  0.00     0.179 C 
BRANCH  10  11
HETATM   11  C   LIG     1      15.738  32.700  20.214  1.00  0.00     0.027 C 
BRANCH  11  12
HETATM   12  C   LIG     1      15.256  33.993  20.893  1.00  0.00     0.002 C 
BRANCH  12  13
HETATM   13  C   LIG     1      15.878  35.254  20.272  1.00  0.00    -0.000 C 
BRANCH  13  14
HETATM   14  C   LIG     1      17.104  35.754  21.050  1.00  0.00    -0.005 C 
HETATM   15  C   LIG     1      16.699  36.752  22.131  1.00  0.00     0.005 C 
ENDBRANCH  13  14
ENDBRANCH  12  13
ENDBRANCH  11  12
ENDBRANCH  10  11
ENDBRANCH   9  10
ENDBRANCH   7   9
ENDBRANCH   1   7
BRANCH   4  16
HETATM   16  N   LIG     1      18.374  33.687  11.957  1.00  0.00    -0.399 N 
HETATM   17  H   LIG     1      19.414  33.596  11.984  1.00  0.00     0.156 HD
HETATM   18  H   LIG     1      17.928  34.039  11.081  1.00  0.00     0.156 HD
ENDBRANCH   4  16
TORSDOF 8
ENDMDL
MODEL 16
REMARK VINA RESULT:      -5.3      8.697     11.053
REMARK  8 active torsions:
REMARK  status: ('A' for Active; 'I' for Inactive)
REMARK    1  A    between atoms: C_2  and  C_3 
REMARK    2  A    between atoms: C_3  and  C_4 
REMARK    3  A    between atoms: C_4  and  C_5 
REMARK    4  A    between atoms: C_5  and  C_6 
REMARK    5  A    between atoms: C_6  and  O_7 
REMARK    6  A    between atoms: O_7  and  C_8 
REMARK    7  A    between atoms: C_8  and  C_9 
REMARK    8  A    between atoms: C_12  and  N_13 
ROOT
HETATM    1  C   LIG     1      15.422  31.648  15.093  1.00  0.00     0.039 A 
HETATM    2  C   LIG     1      16.050  32.509  16.011  1.00  0.00     0.020 A 
HETATM    3  C   LIG     1      15.586  32.604  17.326  1.00  0.00     0.030 A 
HETATM    4  C   LIG     1      14.488  31.842  17.745  1.00  0.00     0.025 A 
HETATM    5  C   LIG     1      13.857  30.982  16.835  1.00  0.00     0.030 A 
HETATM    6  C   LIG     1      14.320  30.886  15.519  1.00  0.00     0.020 A 
ENDROOT
BRANCH   1   7
HETATM    7  C   LIG     1      15.906  31.546  13.700  1.00  0.00     0.293 C 
HETATM    8  O   LIG     1      15.414  30.682  12.922  1.00  0.00    -0.259 OA
BRANCH   7   9
HETATM    9  O   LIG     1      16.916  32.408  13.250  1.00  0.00    -0.318 OA
BRANCH   9  10
HETATM   10  C   LIG     1      16.695  33.761  12.850  1.00  0.00     0.179 C 
BRANCH  10  11
HETATM   11  C   LIG     1      18.029  34.499  12.738  1.00  0.00     0.027 C 
BRANCH  11  12
HETATM   12  C   LIG     1      19.213  33.579  13.078  1.00  0.00     0.002 C 
BRANCH  12  13
HETATM   13  C   LIG     1      20.463  33.888  12.239  1.00  0.00    -0.000 C 
BRANCH  13  14
HETATM   14  C   LIG     1      21.759  33.823  13.060  1.00  0.00    -0.005 C 
HETATM   15  C   LIG     1      22.454  35.180  13.098  1.00  0.00     0.005 C 
ENDBRANCH  13  14
ENDBRANCH  12  13
ENDBRANCH  11  12
ENDBRANCH  10  11
ENDBRANCH   9  10
ENDBRANCH   7   9
ENDBRANCH   1   7
BRANCH   4  16
HETATM   16  N   LIG     1      14.013  31.939  19.090  1.00  0.00    -0.399 N 
HETATM   17  H   LIG     1      14.645  31.733  19.896  1.00  0.00     0.156 HD
HETATM   18  H   LIG     1      13.027  32.217  19.291  1.00  0.00     0.156 HD
ENDBRANCH   4  16
TORSDOF 8
ENDMDL
MODEL 17
REMARK VINA RESULT:      -5.3      6.521      9.788
REMARK  8 active torsions:
REMARK  status: ('A' for Active; 'I' for Inactive)
REMARK    1  A    between atoms: C_2  and  C_3 
REMARK    2  A    between atoms: C_3  and  C_4 
REMARK    3  A    between atoms: C_4  and  C_5 
REMARK    4  A    between atoms: C_5  and  C_6 
REMARK    5  A    between atoms: C_6  and  O_7 
REMARK    6  A    between atoms: O_7  and  C_8 
REMARK    7  A    between atoms: C_8  and  C_9 
REMARK    8  A    between atoms: C_12  and  N_13 
ROOT
HETATM    1  C   LIG     1      15.129  32.906  17.716  1.00  0.00     0.039 A 
HETATM    2  C   LIG     1      15.390  34.278  17.881  1.00  0.00     0.020 A 
HETATM    3  C   LIG     1      15.570  34.817  19.158  1.00  0.00     0.030 A 
HETATM    4  C   LIG     1      15.492  33.996  20.289  1.00  0.00     0.025 A 
HETATM    5  C   LIG     1      15.231  32.628  20.133  1.00  0.00     0.030 A 
HETATM    6  C   LIG     1      15.051  32.086  18.856  1.00  0.00     0.020 A 
ENDROOT
BRANCH   1   7
HETATM    7  C   LIG     1      14.934  32.329  16.368  1.00  0.00     0.293 C 
HETATM    8  O   LIG     1      14.165  31.341  16.209  1.00  0.00    -0.259 OA
BRANCH   7   9
HETATM    9  O   LIG     1      15.611  32.882  15.273  1.00  0.00    -0.318 OA
BRANCH   9  10
HETATM   10  C   LIG     1      16.958  32.563  14.917  1.00  0.00     0.179 C 
BRANCH  10  11
HETATM   11  C   LIG     1      17.243  33.016  13.485  1.00  0.00     0.027 C 
BRANCH  11  12
HETATM   12  C   LIG     1      18.364  34.068  13.439  1.00  0.00     0.002 C 
BRANCH  12  13
HETATM   13  C   LIG     1      19.110  34.076  12.096  1.00  0.00    -0.000 C 
BRANCH  13  14
HETATM   14  C   LIG     1      20.528  33.495  12.203  1.00  0.00    -0.005 C 
HETATM   15  C   LIG     1      21.516  34.546  12.701  1.00  0.00     0.005 C 
ENDBRANCH  13  14
ENDBRANCH  12  13
ENDBRANCH  11  12
ENDBRANCH  10  11
ENDBRANCH   9  10
ENDBRANCH   7   9
ENDBRANCH   1   7
BRANCH   4  16
HETATM   16  N   LIG     1      15.676  34.549  21.595  1.00  0.00    -0.399 N 
HETATM   17  H   LIG     1      16.237  34.042  22.316  1.00  0.00     0.156 HD
HETATM   18  H   LIG     1      15.251  35.468  21.852  1.00  0.00     0.156 HD
ENDBRANCH   4  16
TORSDOF 8
ENDMDL
MODEL 18
REMARK VINA RESULT:      -5.2     10.535     12.762
REMARK  8 active torsions:
REMARK  status: ('A' for Active; 'I' for Inactive)
REMARK    1  A    between atoms: C_2  and  C_3 
REMARK    2  A    between atoms: C_3  and  C_4 
REMARK    3  A    between atoms: C_4  and  C_5 
REMARK    4  A    between atoms: C_5  and  C_6 
REMARK    5  A    between atoms: C_6  and  O_7 
REMARK    6  A    between atoms: O_7  and  C_8 
REMARK    7  A    between atoms: C_8  and  C_9 
REMARK    8  A    between atoms: C_12  and  N_13 
ROOT
HETATM    1  C   LIG     1      15.002  31.352  15.258  1.00  0.00     0.039 A 
HETATM    2  C   LIG     1      15.857  32.319  15.816  1.00  0.00     0.020 A 
HETATM    3  C   LIG     1      15.683  32.741  17.138  1.00  0.00     0.030 A 
HETATM    4  C   LIG     1      14.654  32.204  17.921  1.00  0.00     0.025 A 
HETATM    5  C   LIG     1      13.798  31.240  17.371  1.00  0.00     0.030 A 
HETATM    6  C   LIG     1      13.970  30.817  16.050  1.00  0.00     0.020 A 
ENDROOT
BRANCH   1   7
HETATM    7  C   LIG     1      15.178  30.904  13.860  1.00  0.00     0.293 C 
HETATM    8  O   LIG     1      15.775  31.644  13.029  1.00  0.00    -0.259 OA
BRANCH   7   9
HETATM    9  O   LIG     1      14.677  29.656  13.463  1.00  0.00    -0.318 OA
BRANCH   9  10
HETATM   10  C   LIG     1      15.291  28.407  13.781  1.00  0.00     0.179 C 
BRANCH  10  11
HETATM   11  C   LIG     1      14.328  27.258  13.480  1.00  0.00     0.027 C 
BRANCH  11  12
HETATM   12  C   LIG     1      12.863  27.720  13.537  1.00  0.00     0.002 C 
BRANCH  12  13
HETATM   13  C   LIG     1      11.888  26.660  13.002  1.00  0.00    -0.000 C 
BRANCH  13  14
HETATM   14  C   LIG     1      12.459  25.879  11.810  1.00  0.00    -0.005 C 
HETATM   15  C   LIG     1      11.662  26.157  10.539  1.00  0.00     0.005 C 
ENDBRANCH  13  14
ENDBRANCH  12  13
ENDBRANCH  11  12
ENDBRANCH  10  11
ENDBRANCH   9  10
ENDBRANCH   7   9
ENDBRANCH   1   7
BRANCH   4  16
HETATM   16  N   LIG     1      14.477  32.637  19.273  1.00  0.00    -0.399 N 
HETATM   17  H   LIG     1      15.249  32.543  19.970  1.00  0.00     0.156 HD
HETATM   18  H   LIG     1      13.571  33.052  19.587  1.00  0.00     0.156 HD
ENDBRANCH   4  16
TORSDOF 8
ENDMDL
MODEL 19
REMARK VINA RESULT:      -5.2      9.314     11.505
REMARK  8 active torsions:
REMARK  status: ('A' for Active; 'I' for Inactive)
REMARK    1  A    between atoms: C_2  and  C_3 
REMARK    2  A    between atoms: C_3  and  C_4 
REMARK    3  A    between atoms: C_4  and  C_5 
REMARK    4  A    between atoms: C_5  and  C_6 
REMARK    5  A    between atoms: C_6  and  O_7 
REMARK    6  A    between atoms: O_7  and  C_8 
REMARK    7  A    between atoms: C_8  and  C_9 
REMARK    8  A    between atoms: C_12  and  N_13 
ROOT
HETATM    1  C   LIG     1      14.389  32.037  17.337  1.00  0.00     0.039 A 
HETATM    2  C   LIG     1      14.665  33.319  16.828  1.00  0.00     0.020 A 
HETATM    3  C   LIG     1      15.230  34.301  17.646  1.00  0.00     0.030 A 
HETATM    4  C   LIG     1      15.527  34.019  18.985  1.00  0.00     0.025 A 
HETATM    5  C   LIG     1      15.254  32.744  19.500  1.00  0.00     0.030 A 
HETATM    6  C   LIG     1      14.689  31.760  18.683  1.00  0.00     0.020 A 
ENDROOT
BRANCH   1   7
HETATM    7  C   LIG     1      13.789  30.994  16.477  1.00  0.00     0.293 C 
HETATM    8  O   LIG     1      12.622  30.574  16.715  1.00  0.00    -0.259 OA
BRANCH   7   9
HETATM    9  O   LIG     1      14.523  30.474  15.403  1.00  0.00    -0.318 OA
BRANCH   9  10
HETATM   10  C   LIG     1      13.952  29.720  14.331  1.00  0.00     0.179 C 
BRANCH  10  11
HETATM   11  C   LIG     1      14.922  28.627  13.885  1.00  0.00     0.027 C 
BRANCH  11  12
HETATM   12  C   LIG     1      14.178  27.414  13.304  1.00  0.00     0.002 C 
BRANCH  12  13
HETATM   13  C   LIG     1      12.709  27.352  13.751  1.00  0.00    -0.000 C 
BRANCH  13  14
HETATM   14  C   LIG     1      11.794  26.716  12.694  1.00  0.00    -0.005 C 
HETATM   15  C   LIG     1      12.588  25.815  11.752  1.00  0.00     0.005 C 
ENDBRANCH  13  14
ENDBRANCH  12  13
ENDBRANCH  11  12
ENDBRANCH  10  11
ENDBRANCH   9  10
ENDBRANCH   7   9
ENDBRANCH   1   7
BRANCH   4  16
HETATM   16  N   LIG     1      16.105  35.025  19.822  1.00  0.00    -0.399 N 
HETATM   17  H   LIG     1      15.594  35.914  20.020  1.00  0.00     0.156 HD
HETATM   18  H   LIG     1      17.048  34.888  20.250  1.00  0.00     0.156 HD
ENDBRANCH   4  16
TORSDOF 8
ENDMDL
