REMARK  8 active torsions:
REMARK  status: ('A' for Active; 'I' for Inactive)
REMARK    1  A    between atoms: C_2  and  C_3 
REMARK    2  A    between atoms: C_3  and  C_4 
REMARK    3  A    between atoms: C_4  and  C_5 
REMARK    4  A    between atoms: C_5  and  C_6 
REMARK    5  A    between atoms: C_6  and  O_7 
REMARK    6  A    between atoms: O_7  and  C_8 
REMARK    7  A    between atoms: C_8  and  C_9 
REMARK    8  A    between atoms: C_12  and  N_13 
ROOT
HETATM    1  C   LIG     1       2.543  -0.984   0.236  1.00  0.00     0.039 A 
HETATM    2  C   LIG     1       3.419  -1.513  -0.729  1.00  0.00     0.020 A 
HETATM    3  C   LIG     1       4.666  -0.923  -0.954  1.00  0.00     0.030 A 
HETATM    4  C   LIG     1       5.058   0.203  -0.220  1.00  0.00     0.025 A 
HETATM    5  C   LIG     1       4.190   0.736   0.743  1.00  0.00     0.030 A 
HETATM    6  C   LIG     1       2.942   0.148   0.970  1.00  0.00     0.020 A 
ENDROOT
BRANCH   1   7
HETATM    7  C   LIG     1       1.221  -1.601   0.477  1.00  0.00     0.293 C 
HETATM    8  O   LIG     1       0.860  -2.605  -0.198  1.00  0.00    -0.259 OA
BRANCH   7   9
HETATM    9  O   LIG     1       0.372  -1.063   1.454  1.00  0.00    -0.318 OA
BRANCH   9  10
HETATM   10  C   LIG     1      -0.936  -1.560   1.742  1.00  0.00     0.179 C 
BRANCH  10  11
HETATM   11  C   LIG     1      -1.974  -0.459   1.526  1.00  0.00     0.027 C 
BRANCH  11  12
HETATM   12  C   LIG     1      -2.076  -0.062   0.044  1.00  0.00     0.002 C 
BRANCH  12  13
HETATM   13  C   LIG     1      -3.043   1.109  -0.189  1.00  0.00    -0.000 C 
BRANCH  13  14
HETATM   14  C   LIG     1      -4.514   0.707  -0.008  1.00  0.00    -0.005 C 
HETATM   15  C   LIG     1      -5.447   1.857  -0.376  1.00  0.00     0.005 C 
ENDBRANCH  13  14
ENDBRANCH  12  13
ENDBRANCH  11  12
ENDBRANCH  10  11
ENDBRANCH   9  10
ENDBRANCH   7   9
ENDBRANCH   1   7
BRANCH   4  16
HETATM   16  N   LIG     1       6.334   0.806  -0.451  1.00  0.00    -0.399 N 
HETATM   17  H   LIG     1       6.988   0.416  -1.166  1.00  0.00     0.156 HD
HETATM   18  H   LIG     1       6.635   1.646   0.092  1.00  0.00     0.156 HD
ENDBRANCH   4  16
TORSDOF 8
