REMARK  2 active torsions:
REMARK  status: ('A' for Active; 'I' for Inactive)
REMARK    1  A    between atoms: C_2  and  C_3 
REMARK    2  A    between atoms: C_2  and  C_5 
ROOT
HETATM    1  C   LIG     1       0.675   0.016  -0.236  1.00  0.00    -0.054 A 
HETATM    2  C   LIG     1       1.646   0.912  -0.722  1.00  0.00     0.007 A 
HETATM    3  C   LIG     1       2.998   0.721  -0.424  1.00  0.00     0.001 A 
HETATM    4  C   LIG     1       3.397  -0.364   0.360  1.00  0.00     0.000 A 
HETATM    5  C   LIG     1       2.444  -1.260   0.848  1.00  0.00     0.001 A 
HETATM    6  C   LIG     1       1.090  -1.074   0.554  1.00  0.00     0.007 A 
ENDROOT
BRANCH   1   7
HETATM    7  C   LIG     1      -0.792   0.232  -0.564  1.00  0.00     0.014 C 
HETATM    8  C   LIG     1      -1.335  -0.950  -1.381  1.00  0.00     0.015 C 
BRANCH   7   9
HETATM    9  C   LIG     1      -1.603   0.470   0.730  1.00  0.00     0.004 C 
HETATM   10  C   LIG     1      -3.015   0.988   0.456  1.00  0.00     0.006 C 
ENDBRANCH   7   9
ENDBRANCH   1   7
TORSDOF 2
