REMARK  1 active torsions:
REMARK  status: ('A' for Active; 'I' for Inactive)
REMARK    1  A    between atoms: O_1  and  C_2 
ROOT
HETATM    1  C   LIG     1      -2.285  -0.178   0.115  1.00  0.00     0.066 A 
HETATM    2  C   LIG     1      -1.198  -1.005   0.435  1.00  0.00     0.048 A 
HETATM    3  C   LIG     1       0.115  -0.556   0.227  1.00  0.00    -0.023 A 
HETATM    4  C   LIG     1       1.210  -1.375   0.543  1.00  0.00     0.012 A 
HETATM    5  C   LIG     1       2.514  -0.917   0.331  1.00  0.00     0.001 A 
HETATM    6  C   LIG     1       2.734   0.358  -0.197  1.00  0.00     0.001 A 
HETATM    7  C   LIG     1       1.652   1.184  -0.517  1.00  0.00     0.012 A 
HETATM    8  C   LIG     1       0.338   0.736  -0.309  1.00  0.00    -0.026 A 
HETATM    9  C   LIG     1      -0.756   1.555  -0.625  1.00  0.00     0.015 A 
HETATM   10  C   LIG     1      -2.060   1.097  -0.413  1.00  0.00     0.037 A 
ENDROOT
BRANCH   1  11
HETATM   11  O   LIG     1      -3.592  -0.615   0.319  1.00  0.00    -0.361 OA
HETATM   12  H   LIG     1      -3.791  -1.533   0.700  1.00  0.00     0.217 HD
ENDBRANCH   1  11
TORSDOF 1
