MODEL 1
REMARK VINA RESULT:      -7.2      0.000      0.000
REMARK  2 active torsions:
REMARK  status: ('A' for Active; 'I' for Inactive)
REMARK    1  A    between atoms: C_2  and  C_3 
REMARK    2  A    between atoms: C_2  and  C_5 
ROOT
HETATM    1  C   LIG     1      17.219  36.465  24.167  1.00  0.00    -0.054 A 
HETATM    2  C   LIG     1      17.764  37.460  24.999  1.00  0.00     0.007 A 
HETATM    3  C   LIG     1      18.309  37.124  26.241  1.00  0.00     0.001 A 
HETATM    4  C   LIG     1      18.317  35.794  26.667  1.00  0.00     0.000 A 
HETATM    5  C   LIG     1      17.780  34.797  25.851  1.00  0.00     0.001 A 
HETATM    6  C   LIG     1      17.232  35.127  24.608  1.00  0.00     0.007 A 
ENDROOT
BRANCH   1   7
HETATM    7  C   LIG     1      16.627  36.839  22.819  1.00  0.00     0.014 C 
HETATM    8  C   LIG     1      17.076  38.252  22.415  1.00  0.00     0.015 C 
BRANCH   7   9
HETATM    9  C   LIG     1      16.999  35.781  21.756  1.00  0.00     0.004 C 
HETATM   10  C   LIG     1      17.806  36.365  20.597  1.00  0.00     0.006 C 
ENDBRANCH   7   9
ENDBRANCH   1   7
TORSDOF 2
ENDMDL
MODEL 2
REMARK VINA RESULT:      -7.2      0.037      1.532
REMARK  2 active torsions:
REMARK  status: ('A' for Active; 'I' for Inactive)
REMARK    1  A    between atoms: C_2  and  C_3 
REMARK    2  A    between atoms: C_2  and  C_5 
ROOT
HETATM    1  C   LIG     1      17.222  36.488  24.153  1.00  0.00    -0.054 A 
HETATM    2  C   LIG     1      17.207  35.145  24.575  1.00  0.00     0.007 A 
HETATM    3  C   LIG     1      17.750  34.786  25.811  1.00  0.00     0.001 A 
HETATM    4  C   LIG     1      18.313  35.759  26.640  1.00  0.00     0.000 A 
HETATM    5  C   LIG     1      18.334  37.095  26.233  1.00  0.00     0.001 A 
HETATM    6  C   LIG     1      17.793  37.461  24.997  1.00  0.00     0.007 A 
ENDROOT
BRANCH   1   7
HETATM    7  C   LIG     1      16.630  36.870  22.807  1.00  0.00     0.014 C 
HETATM    8  C   LIG     1      17.086  38.280  22.405  1.00  0.00     0.015 C 
BRANCH   7   9
HETATM    9  C   LIG     1      16.993  35.812  21.741  1.00  0.00     0.004 C 
HETATM   10  C   LIG     1      17.821  36.389  20.593  1.00  0.00     0.006 C 
ENDBRANCH   7   9
ENDBRANCH   1   7
TORSDOF 2
ENDMDL
MODEL 3
REMARK VINA RESULT:      -6.9      1.670      4.729
REMARK  2 active torsions:
REMARK  status: ('A' for Active; 'I' for Inactive)
REMARK    1  A    between atoms: C_2  and  C_3 
REMARK    2  A    between atoms: C_2  and  C_5 
ROOT
HETATM    1  C   LIG     1      17.671  37.426  21.365  1.00  0.00    -0.054 A 
HETATM    2  C   LIG     1      18.105  38.761  21.466  1.00  0.00     0.007 A 
HETATM    3  C   LIG     1      19.050  39.268  20.570  1.00  0.00     0.001 A 
HETATM    4  C   LIG     1      19.572  38.452  19.564  1.00  0.00     0.000 A 
HETATM    5  C   LIG     1      19.150  37.126  19.453  1.00  0.00     0.001 A 
HETATM    6  C   LIG     1      18.205  36.612  20.347  1.00  0.00     0.007 A 
ENDROOT
BRANCH   1   7
HETATM    7  C   LIG     1      16.644  36.883  22.343  1.00  0.00     0.014 C 
HETATM    8  C   LIG     1      16.884  35.386  22.592  1.00  0.00     0.015 C 
BRANCH   7   9
HETATM    9  C   LIG     1      16.664  37.703  23.653  1.00  0.00     0.004 C 
HETATM   10  C   LIG     1      17.269  36.931  24.826  1.00  0.00     0.006 C 
ENDBRANCH   7   9
ENDBRANCH   1   7
TORSDOF 2
ENDMDL
MODEL 4
REMARK VINA RESULT:      -6.7      2.795      4.795
REMARK  2 active torsions:
REMARK  status: ('A' for Active; 'I' for Inactive)
REMARK    1  A    between atoms: C_2  and  C_3 
REMARK    2  A    between atoms: C_2  and  C_5 
ROOT
HETATM    1  C   LIG     1      17.773  37.459  21.364  1.00  0.00    -0.054 A 
HETATM    2  C   LIG     1      18.272  36.701  20.288  1.00  0.00     0.007 A 
HETATM    3  C   LIG     1      19.114  37.287  19.338  1.00  0.00     0.001 A 
HETATM    4  C   LIG     1      19.466  38.634  19.451  1.00  0.00     0.000 A 
HETATM    5  C   LIG     1      18.978  39.397  20.513  1.00  0.00     0.001 A 
HETATM    6  C   LIG     1      18.135  38.816  21.466  1.00  0.00     0.007 A 
ENDROOT
BRANCH   1   7
HETATM    7  C   LIG     1      16.859  36.813  22.390  1.00  0.00     0.014 C 
HETATM    8  C   LIG     1      15.742  37.786  22.797  1.00  0.00     0.015 C 
BRANCH   7   9
HETATM    9  C   LIG     1      16.301  35.477  21.849  1.00  0.00     0.004 C 
HETATM   10  C   LIG     1      14.885  35.611  21.289  1.00  0.00     0.006 C 
ENDBRANCH   7   9
ENDBRANCH   1   7
TORSDOF 2
ENDMDL
MODEL 5
REMARK VINA RESULT:      -6.1      1.971      3.423
REMARK  2 active torsions:
REMARK  status: ('A' for Active; 'I' for Inactive)
REMARK    1  A    between atoms: C_2  and  C_3 
REMARK    2  A    between atoms: C_2  and  C_5 
ROOT
HETATM    1  C   LIG     1      17.683  37.371  21.393  1.00  0.00    -0.054 A 
HETATM    2  C   LIG     1      17.429  37.588  22.761  1.00  0.00     0.007 A 
HETATM    3  C   LIG     1      16.986  36.540  23.573  1.00  0.00     0.001 A 
HETATM    4  C   LIG     1      16.793  35.267  23.033  1.00  0.00     0.000 A 
HETATM    5  C   LIG     1      17.041  35.039  21.678  1.00  0.00     0.001 A 
HETATM    6  C   LIG     1      17.484  36.082  20.860  1.00  0.00     0.007 A 
ENDROOT
BRANCH   1   7
HETATM    7  C   LIG     1      18.163  38.515  20.518  1.00  0.00     0.014 C 
HETATM    8  C   LIG     1      18.798  39.616  21.381  1.00  0.00     0.015 C 
BRANCH   7   9
HETATM    9  C   LIG     1      19.131  37.992  19.432  1.00  0.00     0.004 C 
HETATM   10  C   LIG     1      20.473  38.725  19.434  1.00  0.00     0.006 C 
ENDBRANCH   7   9
ENDBRANCH   1   7
TORSDOF 2
ENDMDL
MODEL 6
REMARK VINA RESULT:      -6.0      2.763      4.649
REMARK  2 active torsions:
REMARK  status: ('A' for Active; 'I' for Inactive)
REMARK    1  A    between atoms: C_2  and  C_3 
REMARK    2  A    between atoms: C_2  and  C_5 
ROOT
HETATM    1  C   LIG     1      18.440  38.198  20.361  1.00  0.00    -0.054 A 
HETATM    2  C   LIG     1      17.943  38.865  21.497  1.00  0.00     0.007 A 
HETATM    3  C   LIG     1      17.209  38.169  22.462  1.00  0.00     0.001 A 
HETATM    4  C   LIG     1      16.964  36.802  22.306  1.00  0.00     0.000 A 
HETATM    5  C   LIG     1      17.452  36.130  21.184  1.00  0.00     0.001 A 
HETATM    6  C   LIG     1      18.186  36.820  20.215  1.00  0.00     0.007 A 
ENDROOT
BRANCH   1   7
HETATM    7  C   LIG     1      19.235  38.963  19.318  1.00  0.00     0.014 C 
HETATM    8  C   LIG     1      20.735  38.670  19.470  1.00  0.00     0.015 C 
BRANCH   7   9
HETATM    9  C   LIG     1      18.717  38.635  17.899  1.00  0.00     0.004 C 
HETATM   10  C   LIG     1      18.649  39.865  16.995  1.00  0.00     0.006 C 
ENDBRANCH   7   9
ENDBRANCH   1   7
TORSDOF 2
ENDMDL
MODEL 7
REMARK VINA RESULT:      -6.0      1.165      1.683
REMARK  2 active torsions:
REMARK  status: ('A' for Active; 'I' for Inactive)
REMARK    1  A    between atoms: C_2  and  C_3 
REMARK    2  A    between atoms: C_2  and  C_5 
ROOT
HETATM    1  C   LIG     1      17.110  36.199  23.020  1.00  0.00    -0.054 A 
HETATM    2  C   LIG     1      17.485  37.433  23.583  1.00  0.00     0.007 A 
HETATM    3  C   LIG     1      17.825  37.521  24.936  1.00  0.00     0.001 A 
HETATM    4  C   LIG     1      17.797  36.380  25.741  1.00  0.00     0.000 A 
HETATM    5  C   LIG     1      17.427  35.149  25.195  1.00  0.00     0.001 A 
HETATM    6  C   LIG     1      17.085  35.056  23.843  1.00  0.00     0.007 A 
ENDROOT
BRANCH   1   7
HETATM    7  C   LIG     1      16.741  36.113  21.549  1.00  0.00     0.014 C 
HETATM    8  C   LIG     1      17.902  36.617  20.679  1.00  0.00     0.015 C 
BRANCH   7   9
HETATM    9  C   LIG     1      16.319  34.672  21.183  1.00  0.00     0.004 C 
HETATM   10  C   LIG     1      15.348  34.622  20.004  1.00  0.00     0.006 C 
ENDBRANCH   7   9
ENDBRANCH   1   7
TORSDOF 2
ENDMDL
MODEL 8
REMARK VINA RESULT:      -5.8      7.443     10.343
REMARK  2 active torsions:
REMARK  status: ('A' for Active; 'I' for Inactive)
REMARK    1  A    between atoms: C_2  and  C_3 
REMARK    2  A    between atoms: C_2  and  C_5 
ROOT
HETATM    1  C   LIG     1      14.896  31.666  16.108  1.00  0.00    -0.054 A 
HETATM    2  C   LIG     1      13.705  30.918  16.177  1.00  0.00     0.007 A 
HETATM    3  C   LIG     1      13.347  30.058  15.135  1.00  0.00     0.001 A 
HETATM    4  C   LIG     1      14.171  29.935  14.013  1.00  0.00     0.000 A 
HETATM    5  C   LIG     1      15.354  30.671  13.932  1.00  0.00     0.001 A 
HETATM    6  C   LIG     1      15.717  31.533  14.971  1.00  0.00     0.007 A 
ENDROOT
BRANCH   1   7
HETATM    7  C   LIG     1      15.276  32.598  17.245  1.00  0.00     0.014 C 
HETATM    8  C   LIG     1      14.886  34.044  16.902  1.00  0.00     0.015 C 
BRANCH   7   9
HETATM    9  C   LIG     1      14.639  32.119  18.569  1.00  0.00     0.004 C 
HETATM   10  C   LIG     1      15.633  32.100  19.730  1.00  0.00     0.006 C 
ENDBRANCH   7   9
ENDBRANCH   1   7
TORSDOF 2
ENDMDL
MODEL 9
REMARK VINA RESULT:      -5.5      8.851     11.228
REMARK  2 active torsions:
REMARK  status: ('A' for Active; 'I' for Inactive)
REMARK    1  A    between atoms: C_2  and  C_3 
REMARK    2  A    between atoms: C_2  and  C_5 
ROOT
HETATM    1  C   LIG     1      14.496  30.795  15.141  1.00  0.00    -0.054 A 
HETATM    2  C   LIG     1      15.567  31.706  15.054  1.00  0.00     0.007 A 
HETATM    3  C   LIG     1      15.755  32.674  16.043  1.00  0.00     0.001 A 
HETATM    4  C   LIG     1      14.881  32.745  17.130  1.00  0.00     0.000 A 
HETATM    5  C   LIG     1      13.815  31.848  17.229  1.00  0.00     0.001 A 
HETATM    6  C   LIG     1      13.621  30.878  16.242  1.00  0.00     0.007 A 
ENDROOT
BRANCH   1   7
HETATM    7  C   LIG     1      14.299  29.747  14.060  1.00  0.00     0.014 C 
HETATM    8  C   LIG     1      15.498  28.787  14.023  1.00  0.00     0.015 C 
BRANCH   7   9
HETATM    9  C   LIG     1      12.961  29.003  14.271  1.00  0.00     0.004 C 
HETATM   10  C   LIG     1      12.997  27.564  13.756  1.00  0.00     0.006 C 
ENDBRANCH   7   9
ENDBRANCH   1   7
TORSDOF 2
ENDMDL
MODEL 10
REMARK VINA RESULT:      -5.5      8.844     11.266
REMARK  2 active torsions:
REMARK  status: ('A' for Active; 'I' for Inactive)
REMARK    1  A    between atoms: C_2  and  C_3 
REMARK    2  A    between atoms: C_2  and  C_5 
ROOT
HETATM    1  C   LIG     1      14.509  30.801  15.140  1.00  0.00    -0.054 A 
HETATM    2  C   LIG     1      13.631  30.856  16.238  1.00  0.00     0.007 A 
HETATM    3  C   LIG     1      13.806  31.815  17.239  1.00  0.00     0.001 A 
HETATM    4  C   LIG     1      14.858  32.731  17.156  1.00  0.00     0.000 A 
HETATM    5  C   LIG     1      15.737  32.688  16.072  1.00  0.00     0.001 A 
HETATM    6  C   LIG     1      15.566  31.730  15.068  1.00  0.00     0.007 A 
ENDROOT
BRANCH   1   7
HETATM    7  C   LIG     1      14.311  29.755  14.058  1.00  0.00     0.014 C 
HETATM    8  C   LIG     1      15.502  28.785  14.030  1.00  0.00     0.015 C 
BRANCH   7   9
HETATM    9  C   LIG     1      12.965  29.022  14.258  1.00  0.00     0.004 C 
HETATM   10  C   LIG     1      13.003  27.572  13.773  1.00  0.00     0.006 C 
ENDBRANCH   7   9
ENDBRANCH   1   7
TORSDOF 2
ENDMDL
MODEL 11
REMARK VINA RESULT:      -5.2      7.682     10.575
REMARK  2 active torsions:
REMARK  status: ('A' for Active; 'I' for Inactive)
REMARK    1  A    between atoms: C_2  and  C_3 
REMARK    2  A    between atoms: C_2  and  C_5 
ROOT
HETATM    1  C   LIG     1      15.038  31.655  15.604  1.00  0.00    -0.054 A 
HETATM    2  C   LIG     1      15.495  30.936  14.483  1.00  0.00     0.007 A 
HETATM    3  C   LIG     1      14.723  29.906  13.939  1.00  0.00     0.001 A 
HETATM    4  C   LIG     1      13.488  29.582  14.505  1.00  0.00     0.000 A 
HETATM    5  C   LIG     1      13.023  30.286  15.617  1.00  0.00     0.001 A 
HETATM    6  C   LIG     1      13.791  31.317  16.166  1.00  0.00     0.007 A 
ENDROOT
BRANCH   1   7
HETATM    7  C   LIG     1      15.884  32.772  16.189  1.00  0.00     0.014 C 
HETATM    8  C   LIG     1      16.885  33.286  15.143  1.00  0.00     0.015 C 
BRANCH   7   9
HETATM    9  C   LIG     1      14.981  33.900  16.738  1.00  0.00     0.004 C 
HETATM   10  C   LIG     1      15.395  34.361  18.136  1.00  0.00     0.006 C 
ENDBRANCH   7   9
ENDBRANCH   1   7
TORSDOF 2
ENDMDL
MODEL 12
REMARK VINA RESULT:      -5.2      8.616     10.996
REMARK  2 active torsions:
REMARK  status: ('A' for Active; 'I' for Inactive)
REMARK    1  A    between atoms: C_2  and  C_3 
REMARK    2  A    between atoms: C_2  and  C_5 
ROOT
HETATM    1  C   LIG     1      14.630  30.953  15.467  1.00  0.00    -0.054 A 
HETATM    2  C   LIG     1      15.791  31.615  15.024  1.00  0.00     0.007 A 
HETATM    3  C   LIG     1      16.146  32.856  15.561  1.00  0.00     0.001 A 
HETATM    4  C   LIG     1      15.350  33.450  16.543  1.00  0.00     0.000 A 
HETATM    5  C   LIG     1      14.197  32.803  16.991  1.00  0.00     0.001 A 
HETATM    6  C   LIG     1      13.835  31.562  16.458  1.00  0.00     0.007 A 
ENDROOT
BRANCH   1   7
HETATM    7  C   LIG     1      14.251  29.606  14.878  1.00  0.00     0.014 C 
HETATM    8  C   LIG     1      12.788  29.621  14.410  1.00  0.00     0.015 C 
BRANCH   7   9
HETATM    9  C   LIG     1      15.225  29.224  13.740  1.00  0.00     0.004 C 
HETATM   10  C   LIG     1      15.351  27.711  13.553  1.00  0.00     0.006 C 
ENDBRANCH   7   9
ENDBRANCH   1   7
TORSDOF 2
ENDMDL
MODEL 13
REMARK VINA RESULT:      -5.2      9.286     10.533
REMARK  2 active torsions:
REMARK  status: ('A' for Active; 'I' for Inactive)
REMARK    1  A    between atoms: C_2  and  C_3 
REMARK    2  A    between atoms: C_2  and  C_5 
ROOT
HETATM    1  C   LIG     1      15.195  31.530  15.269  1.00  0.00    -0.054 A 
HETATM    2  C   LIG     1      14.315  30.538  14.797  1.00  0.00     0.007 A 
HETATM    3  C   LIG     1      13.108  30.290  15.456  1.00  0.00     0.001 A 
HETATM    4  C   LIG     1      12.765  31.027  16.592  1.00  0.00     0.000 A 
HETATM    5  C   LIG     1      13.629  32.014  17.071  1.00  0.00     0.001 A 
HETATM    6  C   LIG     1      14.837  32.266  16.416  1.00  0.00     0.007 A 
ENDROOT
BRANCH   1   7
HETATM    7  C   LIG     1      16.504  31.792  14.547  1.00  0.00     0.014 C 
HETATM    8  C   LIG     1      16.236  32.246  13.104  1.00  0.00     0.015 C 
BRANCH   7   9
HETATM    9  C   LIG     1      17.356  32.815  15.332  1.00  0.00     0.004 C 
HETATM   10  C   LIG     1      17.636  34.089  14.534  1.00  0.00     0.006 C 
ENDBRANCH   7   9
ENDBRANCH   1   7
TORSDOF 2
ENDMDL
MODEL 14
REMARK VINA RESULT:      -5.1      5.772      7.993
REMARK  2 active torsions:
REMARK  status: ('A' for Active; 'I' for Inactive)
REMARK    1  A    between atoms: C_2  and  C_3 
REMARK    2  A    between atoms: C_2  and  C_5 
ROOT
HETATM    1  C   LIG     1      15.024  32.982  17.717  1.00  0.00    -0.054 A 
HETATM    2  C   LIG     1      15.009  32.082  18.800  1.00  0.00     0.007 A 
HETATM    3  C   LIG     1      15.292  32.527  20.094  1.00  0.00     0.001 A 
HETATM    4  C   LIG     1      15.592  33.872  20.324  1.00  0.00     0.000 A 
HETATM    5  C   LIG     1      15.610  34.774  19.259  1.00  0.00     0.001 A 
HETATM    6  C   LIG     1      15.328  34.335  17.962  1.00  0.00     0.007 A 
ENDROOT
BRANCH   1   7
HETATM    7  C   LIG     1      14.716  32.489  16.314  1.00  0.00     0.014 C 
HETATM    8  C   LIG     1      16.013  32.339  15.506  1.00  0.00     0.015 C 
BRANCH   7   9
HETATM    9  C   LIG     1      13.907  31.173  16.372  1.00  0.00     0.004 C 
HETATM   10  C   LIG     1      14.009  30.359  15.081  1.00  0.00     0.006 C 
ENDBRANCH   7   9
ENDBRANCH   1   7
TORSDOF 2
ENDMDL
MODEL 15
REMARK VINA RESULT:      -5.0      9.255     11.072
REMARK  2 active torsions:
REMARK  status: ('A' for Active; 'I' for Inactive)
REMARK    1  A    between atoms: C_2  and  C_3 
REMARK    2  A    between atoms: C_2  and  C_5 
ROOT
HETATM    1  C   LIG     1      15.723  31.878  14.514  1.00  0.00    -0.054 A 
HETATM    2  C   LIG     1      16.322  32.124  13.264  1.00  0.00     0.007 A 
HETATM    3  C   LIG     1      17.283  33.129  13.125  1.00  0.00     0.001 A 
HETATM    4  C   LIG     1      17.658  33.899  14.228  1.00  0.00     0.000 A 
HETATM    5  C   LIG     1      17.071  33.665  15.474  1.00  0.00     0.001 A 
HETATM    6  C   LIG     1      16.109  32.661  15.619  1.00  0.00     0.007 A 
ENDROOT
BRANCH   1   7
HETATM    7  C   LIG     1      14.679  30.784  14.655  1.00  0.00     0.014 C 
HETATM    8  C   LIG     1      15.247  29.440  14.175  1.00  0.00     0.015 C 
BRANCH   7   9
HETATM    9  C   LIG     1      14.166  30.715  16.112  1.00  0.00     0.004 C 
HETATM   10  C   LIG     1      12.670  31.004  16.226  1.00  0.00     0.006 C 
ENDBRANCH   7   9
ENDBRANCH   1   7
TORSDOF 2
ENDMDL
MODEL 16
REMARK VINA RESULT:      -5.0      7.279     10.226
REMARK  2 active torsions:
REMARK  status: ('A' for Active; 'I' for Inactive)
REMARK    1  A    between atoms: C_2  and  C_3 
REMARK    2  A    between atoms: C_2  and  C_5 
ROOT
HETATM    1  C   LIG     1      15.141  32.175  15.967  1.00  0.00    -0.054 A 
HETATM    2  C   LIG     1      14.856  31.237  14.957  1.00  0.00     0.007 A 
HETATM    3  C   LIG     1      15.592  31.230  13.769  1.00  0.00     0.001 A 
HETATM    4  C   LIG     1      16.619  32.156  13.574  1.00  0.00     0.000 A 
HETATM    5  C   LIG     1      16.912  33.091  14.568  1.00  0.00     0.001 A 
HETATM    6  C   LIG     1      16.180  33.104  15.759  1.00  0.00     0.007 A 
ENDROOT
BRANCH   1   7
HETATM    7  C   LIG     1      14.336  32.177  17.254  1.00  0.00     0.014 C 
HETATM    8  C   LIG     1      13.526  30.877  17.377  1.00  0.00     0.015 C 
BRANCH   7   9
HETATM    9  C   LIG     1      15.264  32.404  18.469  1.00  0.00     0.004 C 
HETATM   10  C   LIG     1      14.857  31.575  19.687  1.00  0.00     0.006 C 
ENDBRANCH   7   9
ENDBRANCH   1   7
TORSDOF 2
ENDMDL
MODEL 17
REMARK VINA RESULT:      -5.0      6.143      9.118
REMARK  2 active torsions:
REMARK  status: ('A' for Active; 'I' for Inactive)
REMARK    1  A    between atoms: C_2  and  C_3 
REMARK    2  A    between atoms: C_2  and  C_5 
ROOT
HETATM    1  C   LIG     1      14.678  31.959  17.764  1.00  0.00    -0.054 A 
HETATM    2  C   LIG     1      13.769  31.036  17.213  1.00  0.00     0.007 A 
HETATM    3  C   LIG     1      13.810  30.729  15.850  1.00  0.00     0.001 A 
HETATM    4  C   LIG     1      14.758  31.337  15.023  1.00  0.00     0.000 A 
HETATM    5  C   LIG     1      15.665  32.254  15.557  1.00  0.00     0.001 A 
HETATM    6  C   LIG     1      15.628  32.566  16.919  1.00  0.00     0.007 A 
ENDROOT
BRANCH   1   7
HETATM    7  C   LIG     1      14.624  32.288  19.246  1.00  0.00     0.014 C 
HETATM    8  C   LIG     1      14.931  31.035  20.081  1.00  0.00     0.015 C 
BRANCH   7   9
HETATM    9  C   LIG     1      15.581  33.457  19.573  1.00  0.00     0.004 C 
HETATM   10  C   LIG     1      15.323  34.064  20.951  1.00  0.00     0.006 C 
ENDBRANCH   7   9
ENDBRANCH   1   7
TORSDOF 2
ENDMDL
MODEL 18
REMARK VINA RESULT:      -4.9      9.001     10.910
REMARK  2 active torsions:
REMARK  status: ('A' for Active; 'I' for Inactive)
REMARK    1  A    between atoms: C_2  and  C_3 
REMARK    2  A    between atoms: C_2  and  C_5 
ROOT
HETATM    1  C   LIG     1      14.718  31.007  15.219  1.00  0.00    -0.054 A 
HETATM    2  C   LIG     1      15.005  32.056  16.113  1.00  0.00     0.007 A 
HETATM    3  C   LIG     1      14.051  32.475  17.043  1.00  0.00     0.001 A 
HETATM    4  C   LIG     1      12.800  31.854  17.094  1.00  0.00     0.000 A 
HETATM    5  C   LIG     1      12.503  30.812  16.213  1.00  0.00     0.001 A 
HETATM    6  C   LIG     1      13.453  30.389  15.279  1.00  0.00     0.007 A 
ENDROOT
BRANCH   1   7
HETATM    7  C   LIG     1      15.761  30.559  14.210  1.00  0.00     0.014 C 
HETATM    8  C   LIG     1      15.418  29.161  13.675  1.00  0.00     0.015 C 
BRANCH   7   9
HETATM    9  C   LIG     1      15.896  31.602  13.078  1.00  0.00     0.004 C 
HETATM   10  C   LIG     1      16.898  32.708  13.409  1.00  0.00     0.006 C 
ENDBRANCH   7   9
ENDBRANCH   1   7
TORSDOF 2
ENDMDL
MODEL 19
REMARK VINA RESULT:      -4.4      7.845     10.427
REMARK  2 active torsions:
REMARK  status: ('A' for Active; 'I' for Inactive)
REMARK    1  A    between atoms: C_2  and  C_3 
REMARK    2  A    between atoms: C_2  and  C_5 
ROOT
HETATM    1  C   LIG     1      15.563  32.055  15.660  1.00  0.00    -0.054 A 
HETATM    2  C   LIG     1      16.524  33.074  15.799  1.00  0.00     0.007 A 
HETATM    3  C   LIG     1      17.294  33.475  14.704  1.00  0.00     0.001 A 
HETATM    4  C   LIG     1      17.115  32.867  13.460  1.00  0.00     0.000 A 
HETATM    5  C   LIG     1      16.164  31.855  13.308  1.00  0.00     0.001 A 
HETATM    6  C   LIG     1      15.391  31.449  14.400  1.00  0.00     0.007 A 
ENDROOT
BRANCH   1   7
HETATM    7  C   LIG     1      14.731  31.625  16.856  1.00  0.00     0.014 C 
HETATM    8  C   LIG     1      15.059  32.500  18.075  1.00  0.00     0.015 C 
BRANCH   7   9
HETATM    9  C   LIG     1      13.227  31.653  16.503  1.00  0.00     0.004 C 
HETATM   10  C   LIG     1      12.759  30.378  15.802  1.00  0.00     0.006 C 
ENDBRANCH   7   9
ENDBRANCH   1   7
TORSDOF 2
ENDMDL
