MODEL 1
REMARK VINA RESULT:      -8.1      0.000      0.000
REMARK  1 active torsions:
REMARK  status: ('A' for Active; 'I' for Inactive)
REMARK    1  A    between atoms: O_1  and  C_2 
ROOT
HETATM    1  C   LIG     1      16.084  37.731  22.707  1.00  0.00     0.066 A 
HETATM    2  C   LIG     1      17.018  38.702  22.314  1.00  0.00     0.048 A 
HETATM    3  C   LIG     1      17.973  38.404  21.330  1.00  0.00    -0.023 A 
HETATM    4  C   LIG     1      18.912  39.368  20.930  1.00  0.00     0.012 A 
HETATM    5  C   LIG     1      19.860  39.060  19.949  1.00  0.00     0.001 A 
HETATM    6  C   LIG     1      19.877  37.792  19.362  1.00  0.00     0.001 A 
HETATM    7  C   LIG     1      18.947  36.823  19.751  1.00  0.00     0.012 A 
HETATM    8  C   LIG     1      17.991  37.119  20.735  1.00  0.00    -0.026 A 
HETATM    9  C   LIG     1      17.052  36.156  21.135  1.00  0.00     0.015 A 
HETATM   10  C   LIG     1      16.105  36.464  22.116  1.00  0.00     0.037 A 
ENDROOT
BRANCH   1  11
HETATM   11  O   LIG     1      15.132  38.017  23.682  1.00  0.00    -0.361 OA
HETATM   12  H   LIG     1      14.214  37.586  23.670  1.00  0.00     0.217 HD
ENDBRANCH   1  11
TORSDOF 1
ENDMDL
MODEL 2
REMARK VINA RESULT:      -7.8      2.290      3.969
REMARK  1 active torsions:
REMARK  status: ('A' for Active; 'I' for Inactive)
REMARK    1  A    between atoms: O_1  and  C_2 
ROOT
HETATM    1  C   LIG     1      19.780  38.820  19.660  1.00  0.00     0.066 A 
HETATM    2  C   LIG     1      18.993  39.356  20.689  1.00  0.00     0.048 A 
HETATM    3  C   LIG     1      18.035  38.558  21.333  1.00  0.00    -0.023 A 
HETATM    4  C   LIG     1      17.241  39.085  22.364  1.00  0.00     0.012 A 
HETATM    5  C   LIG     1      16.289  38.280  22.998  1.00  0.00     0.001 A 
HETATM    6  C   LIG     1      16.123  36.949  22.608  1.00  0.00     0.001 A 
HETATM    7  C   LIG     1      16.906  36.412  21.582  1.00  0.00     0.012 A 
HETATM    8  C   LIG     1      17.865  37.209  20.937  1.00  0.00    -0.026 A 
HETATM    9  C   LIG     1      18.658  36.683  19.907  1.00  0.00     0.015 A 
HETATM   10  C   LIG     1      19.610  37.487  19.273  1.00  0.00     0.037 A 
ENDROOT
BRANCH   1  11
HETATM   11  O   LIG     1      20.735  39.604  19.016  1.00  0.00    -0.361 OA
HETATM   12  H   LIG     1      21.251  40.324  19.509  1.00  0.00     0.217 HD
ENDBRANCH   1  11
TORSDOF 1
ENDMDL
MODEL 3
REMARK VINA RESULT:      -7.6      3.107      4.597
REMARK  1 active torsions:
REMARK  status: ('A' for Active; 'I' for Inactive)
REMARK    1  A    between atoms: O_1  and  C_2 
ROOT
HETATM    1  C   LIG     1      17.428  38.151  22.486  1.00  0.00     0.066 A 
HETATM    2  C   LIG     1      17.870  38.256  23.813  1.00  0.00     0.048 A 
HETATM    3  C   LIG     1      17.827  37.139  24.661  1.00  0.00    -0.023 A 
HETATM    4  C   LIG     1      18.266  37.233  25.991  1.00  0.00     0.012 A 
HETATM    5  C   LIG     1      18.218  36.113  26.827  1.00  0.00     0.001 A 
HETATM    6  C   LIG     1      17.732  34.895  26.343  1.00  0.00     0.001 A 
HETATM    7  C   LIG     1      17.291  34.788  25.021  1.00  0.00     0.012 A 
HETATM    8  C   LIG     1      17.334  35.905  24.171  1.00  0.00    -0.026 A 
HETATM    9  C   LIG     1      16.895  35.811  22.842  1.00  0.00     0.015 A 
HETATM   10  C   LIG     1      16.943  36.931  22.006  1.00  0.00     0.037 A 
ENDROOT
BRANCH   1  11
HETATM   11  O   LIG     1      17.468  39.255  21.636  1.00  0.00    -0.361 OA
HETATM   12  H   LIG     1      16.623  39.743  21.360  1.00  0.00     0.217 HD
ENDBRANCH   1  11
TORSDOF 1
ENDMDL
MODEL 4
REMARK VINA RESULT:      -7.6      3.052      4.870
REMARK  1 active torsions:
REMARK  status: ('A' for Active; 'I' for Inactive)
REMARK    1  A    between atoms: O_1  and  C_2 
ROOT
HETATM    1  C   LIG     1      16.544  36.062  21.841  1.00  0.00     0.066 A 
HETATM    2  C   LIG     1      16.809  35.183  22.901  1.00  0.00     0.048 A 
HETATM    3  C   LIG     1      17.281  35.678  24.127  1.00  0.00    -0.023 A 
HETATM    4  C   LIG     1      17.550  34.808  25.194  1.00  0.00     0.012 A 
HETATM    5  C   LIG     1      18.020  35.312  26.411  1.00  0.00     0.001 A 
HETATM    6  C   LIG     1      18.224  36.686  26.570  1.00  0.00     0.001 A 
HETATM    7  C   LIG     1      17.960  37.564  25.514  1.00  0.00     0.012 A 
HETATM    8  C   LIG     1      17.489  37.070  24.288  1.00  0.00    -0.026 A 
HETATM    9  C   LIG     1      17.220  37.940  23.221  1.00  0.00     0.015 A 
HETATM   10  C   LIG     1      16.750  37.435  22.004  1.00  0.00     0.037 A 
ENDROOT
BRANCH   1  11
HETATM   11  O   LIG     1      16.075  35.579  20.621  1.00  0.00    -0.361 OA
HETATM   12  H   LIG     1      16.434  35.928  19.739  1.00  0.00     0.217 HD
ENDBRANCH   1  11
TORSDOF 1
ENDMDL
MODEL 5
REMARK VINA RESULT:      -7.4      1.163      2.285
REMARK  1 active torsions:
REMARK  status: ('A' for Active; 'I' for Inactive)
REMARK    1  A    between atoms: O_1  and  C_2 
ROOT
HETATM    1  C   LIG     1      16.207  35.912  21.791  1.00  0.00     0.066 A 
HETATM    2  C   LIG     1      17.198  35.858  20.799  1.00  0.00     0.048 A 
HETATM    3  C   LIG     1      18.045  36.957  20.588  1.00  0.00    -0.023 A 
HETATM    4  C   LIG     1      19.039  36.914  19.598  1.00  0.00     0.012 A 
HETATM    5  C   LIG     1      19.877  38.015  19.397  1.00  0.00     0.001 A 
HETATM    6  C   LIG     1      19.729  39.164  20.179  1.00  0.00     0.001 A 
HETATM    7  C   LIG     1      18.742  39.220  21.168  1.00  0.00     0.012 A 
HETATM    8  C   LIG     1      17.894  38.121  21.380  1.00  0.00    -0.026 A 
HETATM    9  C   LIG     1      16.901  38.164  22.370  1.00  0.00     0.015 A 
HETATM   10  C   LIG     1      16.063  37.063  22.571  1.00  0.00     0.037 A 
ENDROOT
BRANCH   1  11
HETATM   11  O   LIG     1      15.362  34.826  22.008  1.00  0.00    -0.361 OA
HETATM   12  H   LIG     1      15.474  33.957  21.498  1.00  0.00     0.217 HD
ENDBRANCH   1  11
TORSDOF 1
ENDMDL
MODEL 6
REMARK VINA RESULT:      -7.3      2.305      4.301
REMARK  1 active torsions:
REMARK  status: ('A' for Active; 'I' for Inactive)
REMARK    1  A    between atoms: O_1  and  C_2 
ROOT
HETATM    1  C   LIG     1      19.634  38.898  19.894  1.00  0.00     0.066 A 
HETATM    2  C   LIG     1      19.078  37.626  19.695  1.00  0.00     0.048 A 
HETATM    3  C   LIG     1      18.071  37.155  20.552  1.00  0.00    -0.023 A 
HETATM    4  C   LIG     1      17.508  35.883  20.362  1.00  0.00     0.012 A 
HETATM    5  C   LIG     1      16.506  35.424  21.222  1.00  0.00     0.001 A 
HETATM    6  C   LIG     1      16.060  36.227  22.275  1.00  0.00     0.001 A 
HETATM    7  C   LIG     1      16.614  37.496  22.476  1.00  0.00     0.012 A 
HETATM    8  C   LIG     1      17.621  37.969  21.619  1.00  0.00    -0.026 A 
HETATM    9  C   LIG     1      18.183  39.239  21.809  1.00  0.00     0.015 A 
HETATM   10  C   LIG     1      19.185  39.699  20.949  1.00  0.00     0.037 A 
ENDROOT
BRANCH   1  11
HETATM   11  O   LIG     1      20.633  39.375  19.048  1.00  0.00    -0.361 OA
HETATM   12  H   LIG     1      21.158  40.214  19.267  1.00  0.00     0.217 HD
ENDBRANCH   1  11
TORSDOF 1
ENDMDL
MODEL 7
REMARK VINA RESULT:      -7.1      0.738      2.157
REMARK  1 active torsions:
REMARK  status: ('A' for Active; 'I' for Inactive)
REMARK    1  A    between atoms: O_1  and  C_2 
ROOT
HETATM    1  C   LIG     1      16.315  38.111  22.862  1.00  0.00     0.066 A 
HETATM    2  C   LIG     1      16.763  37.151  21.942  1.00  0.00     0.048 A 
HETATM    3  C   LIG     1      17.844  37.438  21.094  1.00  0.00    -0.023 A 
HETATM    4  C   LIG     1      18.300  36.485  20.170  1.00  0.00     0.012 A 
HETATM    5  C   LIG     1      19.377  36.782  19.329  1.00  0.00     0.001 A 
HETATM    6  C   LIG     1      20.005  38.029  19.404  1.00  0.00     0.001 A 
HETATM    7  C   LIG     1      19.560  38.987  20.320  1.00  0.00     0.012 A 
HETATM    8  C   LIG     1      18.479  38.701  21.170  1.00  0.00    -0.026 A 
HETATM    9  C   LIG     1      18.024  39.653  22.093  1.00  0.00     0.015 A 
HETATM   10  C   LIG     1      16.946  39.356  22.934  1.00  0.00     0.037 A 
ENDROOT
BRANCH   1  11
HETATM   11  O   LIG     1      15.244  37.835  23.709  1.00  0.00    -0.361 OA
HETATM   12  H   LIG     1      15.388  37.506  24.657  1.00  0.00     0.217 HD
ENDBRANCH   1  11
TORSDOF 1
ENDMDL
MODEL 8
REMARK VINA RESULT:      -6.7      2.524      3.913
REMARK  1 active torsions:
REMARK  status: ('A' for Active; 'I' for Inactive)
REMARK    1  A    between atoms: O_1  and  C_2 
ROOT
HETATM    1  C   LIG     1      17.566  36.476  25.786  1.00  0.00     0.066 A 
HETATM    2  C   LIG     1      17.299  35.487  24.828  1.00  0.00     0.048 A 
HETATM    3  C   LIG     1      17.206  35.828  23.470  1.00  0.00    -0.023 A 
HETATM    4  C   LIG     1      16.939  34.847  22.502  1.00  0.00     0.012 A 
HETATM    5  C   LIG     1      16.848  35.199  21.152  1.00  0.00     0.001 A 
HETATM    6  C   LIG     1      17.022  36.529  20.759  1.00  0.00     0.001 A 
HETATM    7  C   LIG     1      17.288  37.516  21.713  1.00  0.00     0.012 A 
HETATM    8  C   LIG     1      17.382  37.176  23.071  1.00  0.00    -0.026 A 
HETATM    9  C   LIG     1      17.649  38.157  24.038  1.00  0.00     0.015 A 
HETATM   10  C   LIG     1      17.739  37.805  25.388  1.00  0.00     0.037 A 
ENDROOT
BRANCH   1  11
HETATM   11  O   LIG     1      17.661  36.146  27.137  1.00  0.00    -0.361 OA
HETATM   12  H   LIG     1      16.928  35.630  27.609  1.00  0.00     0.217 HD
ENDBRANCH   1  11
TORSDOF 1
ENDMDL
MODEL 9
REMARK VINA RESULT:      -6.5      2.550      3.994
REMARK  1 active torsions:
REMARK  status: ('A' for Active; 'I' for Inactive)
REMARK    1  A    between atoms: O_1  and  C_2 
ROOT
HETATM    1  C   LIG     1      17.094  35.978  20.864  1.00  0.00     0.066 A 
HETATM    2  C   LIG     1      17.302  37.221  21.480  1.00  0.00     0.048 A 
HETATM    3  C   LIG     1      17.355  37.315  22.879  1.00  0.00    -0.023 A 
HETATM    4  C   LIG     1      17.562  38.553  23.506  1.00  0.00     0.012 A 
HETATM    5  C   LIG     1      17.612  38.634  24.901  1.00  0.00     0.001 A 
HETATM    6  C   LIG     1      17.454  37.484  25.678  1.00  0.00     0.001 A 
HETATM    7  C   LIG     1      17.246  36.244  25.066  1.00  0.00     0.012 A 
HETATM    8  C   LIG     1      17.194  36.149  23.667  1.00  0.00    -0.026 A 
HETATM    9  C   LIG     1      16.987  34.911  23.041  1.00  0.00     0.015 A 
HETATM   10  C   LIG     1      16.937  34.829  21.646  1.00  0.00     0.037 A 
ENDROOT
BRANCH   1  11
HETATM   11  O   LIG     1      17.042  35.875  19.476  1.00  0.00    -0.361 OA
HETATM   12  H   LIG     1      16.824  36.674  18.892  1.00  0.00     0.217 HD
ENDBRANCH   1  11
TORSDOF 1
ENDMDL
MODEL 10
REMARK VINA RESULT:      -6.4      2.346      4.317
REMARK  1 active torsions:
REMARK  status: ('A' for Active; 'I' for Inactive)
REMARK    1  A    between atoms: O_1  and  C_2 
ROOT
HETATM    1  C   LIG     1      18.194  37.146  19.793  1.00  0.00     0.066 A 
HETATM    2  C   LIG     1      17.654  36.286  20.762  1.00  0.00     0.048 A 
HETATM    3  C   LIG     1      17.506  36.722  22.087  1.00  0.00    -0.023 A 
HETATM    4  C   LIG     1      16.967  35.871  23.064  1.00  0.00     0.012 A 
HETATM    5  C   LIG     1      16.825  36.316  24.382  1.00  0.00     0.001 A 
HETATM    6  C   LIG     1      17.218  37.611  24.733  1.00  0.00     0.001 A 
HETATM    7  C   LIG     1      17.756  38.469  23.769  1.00  0.00     0.012 A 
HETATM    8  C   LIG     1      17.905  38.034  22.443  1.00  0.00    -0.026 A 
HETATM    9  C   LIG     1      18.443  38.885  21.466  1.00  0.00     0.015 A 
HETATM   10  C   LIG     1      18.586  38.440  20.149  1.00  0.00     0.037 A 
ENDROOT
BRANCH   1  11
HETATM   11  O   LIG     1      18.344  36.722  18.474  1.00  0.00    -0.361 OA
HETATM   12  H   LIG     1      19.226  36.360  18.131  1.00  0.00     0.217 HD
ENDBRANCH   1  11
TORSDOF 1
ENDMDL
MODEL 11
REMARK VINA RESULT:      -6.4      8.069      9.390
REMARK  1 active torsions:
REMARK  status: ('A' for Active; 'I' for Inactive)
REMARK    1  A    between atoms: O_1  and  C_2 
ROOT
HETATM    1  C   LIG     1      15.206  33.377  16.710  1.00  0.00     0.066 A 
HETATM    2  C   LIG     1      15.805  32.710  15.631  1.00  0.00     0.048 A 
HETATM    3  C   LIG     1      15.229  31.537  15.120  1.00  0.00    -0.023 A 
HETATM    4  C   LIG     1      15.820  30.861  14.042  1.00  0.00     0.012 A 
HETATM    5  C   LIG     1      15.238  29.693  13.541  1.00  0.00     0.001 A 
HETATM    6  C   LIG     1      14.065  29.192  14.112  1.00  0.00     0.001 A 
HETATM    7  C   LIG     1      13.466  29.855  15.187  1.00  0.00     0.012 A 
HETATM    8  C   LIG     1      14.041  31.029  15.699  1.00  0.00    -0.026 A 
HETATM    9  C   LIG     1      13.450  31.704  16.777  1.00  0.00     0.015 A 
HETATM   10  C   LIG     1      14.032  32.872  17.278  1.00  0.00     0.037 A 
ENDROOT
BRANCH   1  11
HETATM   11  O   LIG     1      15.770  34.543  17.224  1.00  0.00    -0.361 OA
HETATM   12  H   LIG     1      16.497  35.044  16.726  1.00  0.00     0.217 HD
ENDBRANCH   1  11
TORSDOF 1
ENDMDL
MODEL 12
REMARK VINA RESULT:      -6.4      8.874     10.150
REMARK  1 active torsions:
REMARK  status: ('A' for Active; 'I' for Inactive)
REMARK    1  A    between atoms: O_1  and  C_2 
ROOT
HETATM    1  C   LIG     1      13.447  29.231  14.337  1.00  0.00     0.066 A 
HETATM    2  C   LIG     1      13.034  30.085  15.370  1.00  0.00     0.048 A 
HETATM    3  C   LIG     1      13.865  31.133  15.793  1.00  0.00    -0.023 A 
HETATM    4  C   LIG     1      13.462  31.994  16.826  1.00  0.00     0.012 A 
HETATM    5  C   LIG     1      14.299  33.035  17.240  1.00  0.00     0.001 A 
HETATM    6  C   LIG     1      15.540  33.224  16.627  1.00  0.00     0.001 A 
HETATM    7  C   LIG     1      15.954  32.374  15.597  1.00  0.00     0.012 A 
HETATM    8  C   LIG     1      15.124  31.325  15.173  1.00  0.00    -0.026 A 
HETATM    9  C   LIG     1      15.527  30.465  14.140  1.00  0.00     0.015 A 
HETATM   10  C   LIG     1      14.690  29.424  13.727  1.00  0.00     0.037 A 
ENDROOT
BRANCH   1  11
HETATM   11  O   LIG     1      12.628  28.188  13.909  1.00  0.00    -0.361 OA
HETATM   12  H   LIG     1      12.977  27.240  13.827  1.00  0.00     0.217 HD
ENDBRANCH   1  11
TORSDOF 1
ENDMDL
MODEL 13
REMARK VINA RESULT:      -6.3      7.818      9.259
REMARK  1 active torsions:
REMARK  status: ('A' for Active; 'I' for Inactive)
REMARK    1  A    between atoms: O_1  and  C_2 
ROOT
HETATM    1  C   LIG     1      15.259  33.565  16.858  1.00  0.00     0.066 A 
HETATM    2  C   LIG     1      14.235  32.606  16.838  1.00  0.00     0.048 A 
HETATM    3  C   LIG     1      14.258  31.569  15.893  1.00  0.00    -0.023 A 
HETATM    4  C   LIG     1      13.239  30.605  15.864  1.00  0.00     0.012 A 
HETATM    5  C   LIG     1      13.272  29.576  14.917  1.00  0.00     0.001 A 
HETATM    6  C   LIG     1      14.320  29.502  13.995  1.00  0.00     0.001 A 
HETATM    7  C   LIG     1      15.342  30.457  14.013  1.00  0.00     0.012 A 
HETATM    8  C   LIG     1      15.320  31.495  14.958  1.00  0.00    -0.026 A 
HETATM    9  C   LIG     1      16.339  32.458  14.987  1.00  0.00     0.015 A 
HETATM   10  C   LIG     1      16.305  33.487  15.933  1.00  0.00     0.037 A 
ENDROOT
BRANCH   1  11
HETATM   11  O   LIG     1      15.245  34.597  17.793  1.00  0.00    -0.361 OA
HETATM   12  H   LIG     1      15.299  35.569  17.510  1.00  0.00     0.217 HD
ENDBRANCH   1  11
TORSDOF 1
ENDMDL
MODEL 14
REMARK VINA RESULT:      -6.2      8.358     10.039
REMARK  1 active torsions:
REMARK  status: ('A' for Active; 'I' for Inactive)
REMARK    1  A    between atoms: O_1  and  C_2 
ROOT
HETATM    1  C   LIG     1      16.999  32.539  13.508  1.00  0.00     0.066 A 
HETATM    2  C   LIG     1      16.012  31.544  13.443  1.00  0.00     0.048 A 
HETATM    3  C   LIG     1      15.147  31.337  14.529  1.00  0.00    -0.023 A 
HETATM    4  C   LIG     1      14.156  30.345  14.475  1.00  0.00     0.012 A 
HETATM    5  C   LIG     1      13.300  30.147  15.563  1.00  0.00     0.001 A 
HETATM    6  C   LIG     1      13.426  30.936  16.709  1.00  0.00     0.001 A 
HETATM    7  C   LIG     1      14.410  31.928  16.776  1.00  0.00     0.012 A 
HETATM    8  C   LIG     1      15.276  32.137  15.691  1.00  0.00    -0.026 A 
HETATM    9  C   LIG     1      16.266  33.129  15.745  1.00  0.00     0.015 A 
HETATM   10  C   LIG     1      17.122  33.326  14.657  1.00  0.00     0.037 A 
ENDROOT
BRANCH   1  11
HETATM   11  O   LIG     1      17.862  32.753  12.436  1.00  0.00    -0.361 OA
HETATM   12  H   LIG     1      17.969  33.669  12.015  1.00  0.00     0.217 HD
ENDBRANCH   1  11
TORSDOF 1
ENDMDL
MODEL 15
REMARK VINA RESULT:      -6.2      7.456      8.481
REMARK  1 active torsions:
REMARK  status: ('A' for Active; 'I' for Inactive)
REMARK    1  A    between atoms: O_1  and  C_2 
ROOT
HETATM    1  C   LIG     1      14.306  31.736  17.547  1.00  0.00     0.066 A 
HETATM    2  C   LIG     1      15.353  32.548  17.085  1.00  0.00     0.048 A 
HETATM    3  C   LIG     1      15.794  32.442  15.757  1.00  0.00    -0.023 A 
HETATM    4  C   LIG     1      16.841  33.248  15.284  1.00  0.00     0.012 A 
HETATM    5  C   LIG     1      17.272  33.133  13.959  1.00  0.00     0.001 A 
HETATM    6  C   LIG     1      16.664  32.215  13.099  1.00  0.00     0.001 A 
HETATM    7  C   LIG     1      15.620  31.405  13.557  1.00  0.00     0.012 A 
HETATM    8  C   LIG     1      15.178  31.511  14.885  1.00  0.00    -0.026 A 
HETATM    9  C   LIG     1      14.131  30.705  15.358  1.00  0.00     0.015 A 
HETATM   10  C   LIG     1      13.700  30.819  16.683  1.00  0.00     0.037 A 
ENDROOT
BRANCH   1  11
HETATM   11  O   LIG     1      13.861  31.835  18.864  1.00  0.00    -0.361 OA
HETATM   12  H   LIG     1      13.672  32.733  19.294  1.00  0.00     0.217 HD
ENDBRANCH   1  11
TORSDOF 1
ENDMDL
MODEL 16
REMARK VINA RESULT:      -6.1      8.212      9.707
REMARK  1 active torsions:
REMARK  status: ('A' for Active; 'I' for Inactive)
REMARK    1  A    between atoms: O_1  and  C_2 
ROOT
HETATM    1  C   LIG     1      16.508  32.087  13.505  1.00  0.00     0.066 A 
HETATM    2  C   LIG     1      16.411  32.659  14.782  1.00  0.00     0.048 A 
HETATM    3  C   LIG     1      15.476  32.169  15.706  1.00  0.00    -0.023 A 
HETATM    4  C   LIG     1      15.370  32.733  16.986  1.00  0.00     0.012 A 
HETATM    5  C   LIG     1      14.434  32.236  17.898  1.00  0.00     0.001 A 
HETATM    6  C   LIG     1      13.598  31.175  17.539  1.00  0.00     0.001 A 
HETATM    7  C   LIG     1      13.692  30.604  16.267  1.00  0.00     0.012 A 
HETATM    8  C   LIG     1      14.628  31.094  15.342  1.00  0.00    -0.026 A 
HETATM    9  C   LIG     1      14.733  30.529  14.062  1.00  0.00     0.015 A 
HETATM   10  C   LIG     1      15.669  31.026  13.151  1.00  0.00     0.037 A 
ENDROOT
BRANCH   1  11
HETATM   11  O   LIG     1      17.434  32.568  12.582  1.00  0.00    -0.361 OA
HETATM   12  H   LIG     1      17.383  32.318  11.601  1.00  0.00     0.217 HD
ENDBRANCH   1  11
TORSDOF 1
ENDMDL
MODEL 17
REMARK VINA RESULT:      -6.1      7.831      9.003
REMARK  1 active torsions:
REMARK  status: ('A' for Active; 'I' for Inactive)
REMARK    1  A    between atoms: O_1  and  C_2 
ROOT
HETATM    1  C   LIG     1      13.413  30.816  16.458  1.00  0.00     0.066 A 
HETATM    2  C   LIG     1      13.999  30.702  15.189  1.00  0.00     0.048 A 
HETATM    3  C   LIG     1      15.093  31.510  14.842  1.00  0.00    -0.023 A 
HETATM    4  C   LIG     1      15.688  31.404  13.575  1.00  0.00     0.012 A 
HETATM    5  C   LIG     1      16.777  32.215  13.241  1.00  0.00     0.001 A 
HETATM    6  C   LIG     1      17.278  33.135  14.165  1.00  0.00     0.001 A 
HETATM    7  C   LIG     1      16.695  33.251  15.431  1.00  0.00     0.012 A 
HETATM    8  C   LIG     1      15.601  32.443  15.779  1.00  0.00    -0.026 A 
HETATM    9  C   LIG     1      15.007  32.549  17.045  1.00  0.00     0.015 A 
HETATM   10  C   LIG     1      13.918  31.738  17.380  1.00  0.00     0.037 A 
ENDROOT
BRANCH   1  11
HETATM   11  O   LIG     1      12.327  30.018  16.811  1.00  0.00    -0.361 OA
HETATM   12  H   LIG     1      11.496  30.411  17.238  1.00  0.00     0.217 HD
ENDBRANCH   1  11
TORSDOF 1
ENDMDL
