REMARK  7 active torsions:
REMARK  status: ('A' for Active; 'I' for Inactive)
REMARK    1  A    between atoms: O_1  and  C_2 
REMARK    2  A    between atoms: C_3  and  C_9 
REMARK    3  A    between atoms: C_6  and  O_7 
REMARK    4  A    between atoms: C_9  and  C_10 
REMARK    5  A    between atoms: C_10  and  C_11 
REMARK    6  A    between atoms: C_11  and  C_12 
REMARK    7  A    between atoms: C_12  and  C_13 
ROOT
HETATM    1  C   LIG     1      -2.608  -0.601  -1.069  1.00  0.00     0.074 A 
HETATM    2  C   LIG     1      -2.022  -0.296   0.185  1.00  0.00    -0.025 A 
HETATM    3  C   LIG     1      -2.550   0.763   0.946  1.00  0.00     0.012 A 
HETATM    4  C   LIG     1      -3.654   1.486   0.488  1.00  0.00     0.037 A 
HETATM    5  C   LIG     1      -4.241   1.172  -0.738  1.00  0.00     0.068 A 
HETATM    6  C   LIG     1      -3.716   0.131  -1.512  1.00  0.00     0.073 A 
ENDROOT
BRANCH   2   7
HETATM    7  C   LIG     1      -0.818  -1.040   0.713  1.00  0.00     0.041 C 
BRANCH   7   8
HETATM    8  C   LIG     1       0.475  -0.484   0.105  1.00  0.00     0.005 C 
BRANCH   8   9
HETATM    9  C   LIG     1       1.702  -1.242   0.634  1.00  0.00     0.000 C 
BRANCH   9  10
HETATM   10  C   LIG     1       3.008  -0.801  -0.046  1.00  0.00    -0.000 C 
BRANCH  10  11
HETATM   11  C   LIG     1       3.449   0.608   0.379  1.00  0.00    -0.005 C 
HETATM   12  C   LIG     1       4.814   0.956  -0.208  1.00  0.00     0.005 C 
ENDBRANCH  10  11
ENDBRANCH   9  10
ENDBRANCH   8   9
ENDBRANCH   7   8
ENDBRANCH   2   7
BRANCH   1  13
HETATM   13  O   LIG     1      -2.118  -1.613  -1.898  1.00  0.00    -0.360 OA
HETATM   14  H   LIG     1      -1.304  -2.172  -1.679  1.00  0.00     0.217 HD
ENDBRANCH   1  13
BRANCH   5  15
HETATM   15  O   LIG     1      -5.343   1.901  -1.180  1.00  0.00    -0.361 OA
HETATM   16  H   LIG     1      -5.791   1.698  -2.066  1.00  0.00     0.217 HD
ENDBRANCH   5  15
TORSDOF 7
