REMARK  5 active torsions:
REMARK  status: ('A' for Active; 'I' for Inactive)
REMARK    1  A    between atoms: C_2  and  C_3 
REMARK    2  A    between atoms: C_2  and  O_9 
REMARK    3  A    between atoms: O_9  and  C_10 
REMARK    4  A    between atoms: C_10  and  C_11 
REMARK    5  A    between atoms: C_11  and  C_12 
ROOT
HETATM    1  O   LIG     1      -0.207  -0.405   1.667  1.00  0.00    -0.259 OA
HETATM    2  C   LIG     1      -0.709  -0.531   0.516  1.00  0.00     0.293 C 
ENDROOT
BRANCH   2   3
HETATM    3  C   LIG     1      -2.143  -0.243   0.296  1.00  0.00     0.039 A 
HETATM    4  C   LIG     1      -2.964   0.173   1.361  1.00  0.00     0.017 A 
HETATM    5  C   LIG     1      -4.319   0.444   1.146  1.00  0.00     0.001 A 
HETATM    6  C   LIG     1      -4.867   0.304  -0.131  1.00  0.00     0.000 A 
HETATM    7  C   LIG     1      -4.062  -0.107  -1.195  1.00  0.00     0.001 A 
HETATM    8  C   LIG     1      -2.707  -0.380  -0.986  1.00  0.00     0.017 A 
ENDBRANCH   2   3
BRANCH   2   9
HETATM    9  O   LIG     1       0.090  -0.950  -0.556  1.00  0.00    -0.318 OA
BRANCH   9  10
HETATM   10  C   LIG     1       1.491  -1.193  -0.447  1.00  0.00     0.179 C 
BRANCH  10  11
HETATM   11  C   LIG     1       2.263   0.129  -0.401  1.00  0.00     0.026 C 
BRANCH  11  12
HETATM   12  C   LIG     1       3.774  -0.117  -0.335  1.00  0.00    -0.002 C 
HETATM   13  C   LIG     1       4.545   1.198  -0.289  1.00  0.00     0.005 C 
ENDBRANCH  11  12
ENDBRANCH  10  11
ENDBRANCH   9  10
ENDBRANCH   2   9
TORSDOF 5
