MODEL 1
REMARK VINA RESULT:      -7.9      0.000      0.000
REMARK  5 active torsions:
REMARK  status: ('A' for Active; 'I' for Inactive)
REMARK    1  A    between atoms: C_2  and  C_3 
REMARK    2  A    between atoms: C_2  and  O_9 
REMARK    3  A    between atoms: O_9  and  C_10 
REMARK    4  A    between atoms: C_10  and  C_11 
REMARK    5  A    between atoms: C_11  and  C_12 
ROOT
HETATM    1  O   LIG     1      15.472  38.176  23.094  1.00  0.00    -0.259 OA
HETATM    2  C   LIG     1      16.724  38.314  23.172  1.00  0.00     0.293 C 
ENDROOT
BRANCH   2   3
HETATM    3  C   LIG     1      17.568  38.127  21.972  1.00  0.00     0.039 A 
HETATM    4  C   LIG     1      17.548  36.912  21.261  1.00  0.00     0.017 A 
HETATM    5  C   LIG     1      18.347  36.742  20.127  1.00  0.00     0.001 A 
HETATM    6  C   LIG     1      19.173  37.780  19.690  1.00  0.00     0.000 A 
HETATM    7  C   LIG     1      19.200  38.990  20.386  1.00  0.00     0.001 A 
HETATM    8  C   LIG     1      18.403  39.166  21.521  1.00  0.00     0.017 A 
ENDBRANCH   2   3
BRANCH   2   9
HETATM    9  O   LIG     1      17.320  38.638  24.398  1.00  0.00    -0.318 OA
BRANCH   9  10
HETATM   10  C   LIG     1      17.225  37.819  25.562  1.00  0.00     0.179 C 
BRANCH  10  11
HETATM   11  C   LIG     1      18.573  37.157  25.863  1.00  0.00     0.026 C 
BRANCH  11  12
HETATM   12  C   LIG     1      18.379  35.770  26.486  1.00  0.00    -0.002 C 
HETATM   13  C   LIG     1      17.440  34.914  25.642  1.00  0.00     0.005 C 
ENDBRANCH  11  12
ENDBRANCH  10  11
ENDBRANCH   9  10
ENDBRANCH   2   9
TORSDOF 5
ENDMDL
MODEL 2
REMARK VINA RESULT:      -7.6      1.127      4.956
REMARK  5 active torsions:
REMARK  status: ('A' for Active; 'I' for Inactive)
REMARK    1  A    between atoms: C_2  and  C_3 
REMARK    2  A    between atoms: C_2  and  O_9 
REMARK    3  A    between atoms: O_9  and  C_10 
REMARK    4  A    between atoms: C_10  and  C_11 
REMARK    5  A    between atoms: C_11  and  C_12 
ROOT
HETATM    1  O   LIG     1      15.470  38.168  23.313  1.00  0.00    -0.259 OA
HETATM    2  C   LIG     1      16.649  37.723  23.241  1.00  0.00     0.293 C 
ENDROOT
BRANCH   2   3
HETATM    3  C   LIG     1      17.211  36.927  24.354  1.00  0.00     0.039 A 
HETATM    4  C   LIG     1      17.075  35.527  24.376  1.00  0.00     0.017 A 
HETATM    5  C   LIG     1      17.609  34.780  25.432  1.00  0.00     0.001 A 
HETATM    6  C   LIG     1      18.283  35.422  26.473  1.00  0.00     0.000 A 
HETATM    7  C   LIG     1      18.425  36.811  26.461  1.00  0.00     0.001 A 
HETATM    8  C   LIG     1      17.893  37.563  25.409  1.00  0.00     0.017 A 
ENDBRANCH   2   3
BRANCH   2   9
HETATM    9  O   LIG     1      17.431  37.987  22.109  1.00  0.00    -0.318 OA
BRANCH   9  10
HETATM   10  C   LIG     1      18.428  39.006  22.060  1.00  0.00     0.179 C 
BRANCH  10  11
HETATM   11  C   LIG     1      18.681  39.440  20.613  1.00  0.00     0.026 C 
BRANCH  11  12
HETATM   12  C   LIG     1      19.853  38.665  20.002  1.00  0.00    -0.002 C 
HETATM   13  C   LIG     1      19.388  37.340  19.408  1.00  0.00     0.005 C 
ENDBRANCH  11  12
ENDBRANCH  10  11
ENDBRANCH   9  10
ENDBRANCH   2   9
TORSDOF 5
ENDMDL
MODEL 3
REMARK VINA RESULT:      -7.4      1.233      1.776
REMARK  5 active torsions:
REMARK  status: ('A' for Active; 'I' for Inactive)
REMARK    1  A    between atoms: C_2  and  C_3 
REMARK    2  A    between atoms: C_2  and  O_9 
REMARK    3  A    between atoms: O_9  and  C_10 
REMARK    4  A    between atoms: C_10  and  C_11 
REMARK    5  A    between atoms: C_11  and  C_12 
ROOT
HETATM    1  O   LIG     1      16.335  35.506  21.539  1.00  0.00    -0.259 OA
HETATM    2  C   LIG     1      16.817  36.575  22.005  1.00  0.00     0.293 C 
ENDROOT
BRANCH   2   3
HETATM    3  C   LIG     1      17.778  37.367  21.207  1.00  0.00     0.039 A 
HETATM    4  C   LIG     1      18.517  36.766  20.170  1.00  0.00     0.017 A 
HETATM    5  C   LIG     1      19.424  37.520  19.419  1.00  0.00     0.001 A 
HETATM    6  C   LIG     1      19.602  38.878  19.693  1.00  0.00     0.000 A 
HETATM    7  C   LIG     1      18.874  39.484  20.718  1.00  0.00     0.001 A 
HETATM    8  C   LIG     1      17.966  38.736  21.473  1.00  0.00     0.017 A 
ENDBRANCH   2   3
BRANCH   2   9
HETATM    9  O   LIG     1      16.447  37.013  23.284  1.00  0.00    -0.318 OA
BRANCH   9  10
HETATM   10  C   LIG     1      17.220  36.767  24.456  1.00  0.00     0.179 C 
BRANCH  10  11
HETATM   11  C   LIG     1      17.360  35.261  24.700  1.00  0.00     0.026 C 
BRANCH  11  12
HETATM   12  C   LIG     1      17.731  34.971  26.158  1.00  0.00    -0.002 C 
HETATM   13  C   LIG     1      18.463  36.152  26.786  1.00  0.00     0.005 C 
ENDBRANCH  11  12
ENDBRANCH  10  11
ENDBRANCH   9  10
ENDBRANCH   2   9
TORSDOF 5
ENDMDL
MODEL 4
REMARK VINA RESULT:      -7.0      2.676      5.350
REMARK  5 active torsions:
REMARK  status: ('A' for Active; 'I' for Inactive)
REMARK    1  A    between atoms: C_2  and  C_3 
REMARK    2  A    between atoms: C_2  and  O_9 
REMARK    3  A    between atoms: O_9  and  C_10 
REMARK    4  A    between atoms: C_10  and  C_11 
REMARK    5  A    between atoms: C_11  and  C_12 
ROOT
HETATM    1  O   LIG     1      15.854  37.509  22.612  1.00  0.00    -0.259 OA
HETATM    2  C   LIG     1      16.681  36.574  22.805  1.00  0.00     0.293 C 
ENDROOT
BRANCH   2   3
HETATM    3  C   LIG     1      17.223  36.332  24.159  1.00  0.00     0.039 A 
HETATM    4  C   LIG     1      17.327  35.024  24.669  1.00  0.00     0.017 A 
HETATM    5  C   LIG     1      17.841  34.802  25.950  1.00  0.00     0.001 A 
HETATM    6  C   LIG     1      18.258  35.880  26.734  1.00  0.00     0.000 A 
HETATM    7  C   LIG     1      18.161  37.182  26.239  1.00  0.00     0.001 A 
HETATM    8  C   LIG     1      17.647  37.410  24.959  1.00  0.00     0.017 A 
ENDBRANCH   2   3
BRANCH   2   9
HETATM    9  O   LIG     1      17.090  35.768  21.735  1.00  0.00    -0.318 OA
BRANCH   9  10
HETATM   10  C   LIG     1      16.229  35.377  20.668  1.00  0.00     0.179 C 
BRANCH  10  11
HETATM   11  C   LIG     1      15.596  34.013  20.961  1.00  0.00     0.026 C 
BRANCH  11  12
HETATM   12  C   LIG     1      15.468  33.178  19.683  1.00  0.00    -0.002 C 
HETATM   13  C   LIG     1      14.908  31.792  19.983  1.00  0.00     0.005 C 
ENDBRANCH  11  12
ENDBRANCH  10  11
ENDBRANCH   9  10
ENDBRANCH   2   9
TORSDOF 5
ENDMDL
MODEL 5
REMARK VINA RESULT:      -6.7      2.796      4.469
REMARK  5 active torsions:
REMARK  status: ('A' for Active; 'I' for Inactive)
REMARK    1  A    between atoms: C_2  and  C_3 
REMARK    2  A    between atoms: C_2  and  O_9 
REMARK    3  A    between atoms: O_9  and  C_10 
REMARK    4  A    between atoms: C_10  and  C_11 
REMARK    5  A    between atoms: C_11  and  C_12 
ROOT
HETATM    1  O   LIG     1      16.654  36.667  23.311  1.00  0.00    -0.259 OA
HETATM    2  C   LIG     1      16.598  36.671  22.050  1.00  0.00     0.293 C 
ENDROOT
BRANCH   2   3
HETATM    3  C   LIG     1      17.623  37.391  21.264  1.00  0.00     0.039 A 
HETATM    4  C   LIG     1      17.937  38.733  21.550  1.00  0.00     0.017 A 
HETATM    5  C   LIG     1      18.908  39.407  20.803  1.00  0.00     0.001 A 
HETATM    6  C   LIG     1      19.574  38.751  19.766  1.00  0.00     0.000 A 
HETATM    7  C   LIG     1      19.272  37.420  19.474  1.00  0.00     0.001 A 
HETATM    8  C   LIG     1      18.302  36.741  20.217  1.00  0.00     0.017 A 
ENDBRANCH   2   3
BRANCH   2   9
HETATM    9  O   LIG     1      15.560  35.998  21.392  1.00  0.00    -0.318 OA
BRANCH   9  10
HETATM   10  C   LIG     1      15.357  34.589  21.474  1.00  0.00     0.179 C 
BRANCH  10  11
HETATM   11  C   LIG     1      15.704  33.918  20.142  1.00  0.00     0.026 C 
BRANCH  11  12
HETATM   12  C   LIG     1      15.131  32.499  20.074  1.00  0.00    -0.002 C 
HETATM   13  C   LIG     1      14.807  32.103  18.637  1.00  0.00     0.005 C 
ENDBRANCH  11  12
ENDBRANCH  10  11
ENDBRANCH   9  10
ENDBRANCH   2   9
TORSDOF 5
ENDMDL
MODEL 6
REMARK VINA RESULT:      -6.5      1.914      5.054
REMARK  5 active torsions:
REMARK  status: ('A' for Active; 'I' for Inactive)
REMARK    1  A    between atoms: C_2  and  C_3 
REMARK    2  A    between atoms: C_2  and  O_9 
REMARK    3  A    between atoms: O_9  and  C_10 
REMARK    4  A    between atoms: C_10  and  C_11 
REMARK    5  A    between atoms: C_11  and  C_12 
ROOT
HETATM    1  O   LIG     1      15.024  35.522  21.133  1.00  0.00    -0.259 OA
HETATM    2  C   LIG     1      16.213  35.881  21.358  1.00  0.00     0.293 C 
ENDROOT
BRANCH   2   3
HETATM    3  C   LIG     1      16.670  36.106  22.747  1.00  0.00     0.039 A 
HETATM    4  C   LIG     1      17.069  35.026  23.556  1.00  0.00     0.017 A 
HETATM    5  C   LIG     1      17.500  35.246  24.868  1.00  0.00     0.001 A 
HETATM    6  C   LIG     1      17.538  36.544  25.384  1.00  0.00     0.000 A 
HETATM    7  C   LIG     1      17.146  37.623  24.590  1.00  0.00     0.001 A 
HETATM    8  C   LIG     1      16.713  37.408  23.278  1.00  0.00     0.017 A 
ENDBRANCH   2   3
BRANCH   2   9
HETATM    9  O   LIG     1      17.102  36.072  20.293  1.00  0.00    -0.318 OA
BRANCH   9  10
HETATM   10  C   LIG     1      18.416  36.604  20.448  1.00  0.00     0.179 C 
BRANCH  10  11
HETATM   11  C   LIG     1      18.888  37.259  19.146  1.00  0.00     0.026 C 
BRANCH  11  12
HETATM   12  C   LIG     1      19.268  38.726  19.373  1.00  0.00    -0.002 C 
HETATM   13  C   LIG     1      18.832  39.200  20.755  1.00  0.00     0.005 C 
ENDBRANCH  11  12
ENDBRANCH  10  11
ENDBRANCH   9  10
ENDBRANCH   2   9
TORSDOF 5
ENDMDL
MODEL 7
REMARK VINA RESULT:      -6.4      6.545      8.068
REMARK  5 active torsions:
REMARK  status: ('A' for Active; 'I' for Inactive)
REMARK    1  A    between atoms: C_2  and  C_3 
REMARK    2  A    between atoms: C_2  and  O_9 
REMARK    3  A    between atoms: O_9  and  C_10 
REMARK    4  A    between atoms: C_10  and  C_11 
REMARK    5  A    between atoms: C_11  and  C_12 
ROOT
HETATM    1  O   LIG     1      15.737  34.599  16.539  1.00  0.00    -0.259 OA
HETATM    2  C   LIG     1      15.304  33.609  17.190  1.00  0.00     0.293 C 
ENDROOT
BRANCH   2   3
HETATM    3  C   LIG     1      14.743  32.440  16.478  1.00  0.00     0.039 A 
HETATM    4  C   LIG     1      15.425  31.866  15.389  1.00  0.00     0.017 A 
HETATM    5  C   LIG     1      14.889  30.761  14.721  1.00  0.00     0.001 A 
HETATM    6  C   LIG     1      13.669  30.218  15.132  1.00  0.00     0.000 A 
HETATM    7  C   LIG     1      12.984  30.779  16.212  1.00  0.00     0.001 A 
HETATM    8  C   LIG     1      13.515  31.884  16.883  1.00  0.00     0.017 A 
ENDBRANCH   2   3
BRANCH   2   9
HETATM    9  O   LIG     1      15.349  33.616  18.590  1.00  0.00    -0.318 OA
BRANCH   9  10
HETATM   10  C   LIG     1      15.632  34.781  19.364  1.00  0.00     0.179 C 
BRANCH  10  11
HETATM   11  C   LIG     1      15.975  34.397  20.806  1.00  0.00     0.026 C 
BRANCH  11  12
HETATM   12  C   LIG     1      16.990  35.373  21.410  1.00  0.00    -0.002 C 
HETATM   13  C   LIG     1      17.020  35.265  22.931  1.00  0.00     0.005 C 
ENDBRANCH  11  12
ENDBRANCH  10  11
ENDBRANCH   9  10
ENDBRANCH   2   9
TORSDOF 5
ENDMDL
MODEL 8
REMARK VINA RESULT:      -6.0      3.290      5.050
REMARK  5 active torsions:
REMARK  status: ('A' for Active; 'I' for Inactive)
REMARK    1  A    between atoms: C_2  and  C_3 
REMARK    2  A    between atoms: C_2  and  O_9 
REMARK    3  A    between atoms: O_9  and  C_10 
REMARK    4  A    between atoms: C_10  and  C_11 
REMARK    5  A    between atoms: C_11  and  C_12 
ROOT
HETATM    1  O   LIG     1      18.606  36.384  19.860  1.00  0.00    -0.259 OA
HETATM    2  C   LIG     1      17.538  36.172  20.497  1.00  0.00     0.293 C 
ENDROOT
BRANCH   2   3
HETATM    3  C   LIG     1      17.354  36.743  21.849  1.00  0.00     0.039 A 
HETATM    4  C   LIG     1      17.235  35.904  22.973  1.00  0.00     0.017 A 
HETATM    5  C   LIG     1      17.062  36.450  24.249  1.00  0.00     0.001 A 
HETATM    6  C   LIG     1      17.007  37.836  24.416  1.00  0.00     0.000 A 
HETATM    7  C   LIG     1      17.126  38.678  23.308  1.00  0.00     0.001 A 
HETATM    8  C   LIG     1      17.298  38.137  22.030  1.00  0.00     0.017 A 
ENDBRANCH   2   3
BRANCH   2   9
HETATM    9  O   LIG     1      16.525  35.389  19.928  1.00  0.00    -0.318 OA
BRANCH   9  10
HETATM   10  C   LIG     1      15.236  35.218  20.516  1.00  0.00     0.179 C 
BRANCH  10  11
HETATM   11  C   LIG     1      15.024  33.759  20.928  1.00  0.00     0.026 C 
BRANCH  11  12
HETATM   12  C   LIG     1      15.493  32.801  19.827  1.00  0.00    -0.002 C 
HETATM   13  C   LIG     1      14.845  31.429  19.977  1.00  0.00     0.005 C 
ENDBRANCH  11  12
ENDBRANCH  10  11
ENDBRANCH   9  10
ENDBRANCH   2   9
TORSDOF 5
ENDMDL
MODEL 9
REMARK VINA RESULT:      -6.0      6.919      8.382
REMARK  5 active torsions:
REMARK  status: ('A' for Active; 'I' for Inactive)
REMARK    1  A    between atoms: C_2  and  C_3 
REMARK    2  A    between atoms: C_2  and  O_9 
REMARK    3  A    between atoms: O_9  and  C_10 
REMARK    4  A    between atoms: C_10  and  C_11 
REMARK    5  A    between atoms: C_11  and  C_12 
ROOT
HETATM    1  O   LIG     1      13.620  31.582  18.081  1.00  0.00    -0.259 OA
HETATM    2  C   LIG     1      14.638  32.073  17.520  1.00  0.00     0.293 C 
ENDROOT
BRANCH   2   3
HETATM    3  C   LIG     1      14.947  31.734  16.114  1.00  0.00     0.039 A 
HETATM    4  C   LIG     1      14.321  30.641  15.484  1.00  0.00     0.017 A 
HETATM    5  C   LIG     1      14.617  30.326  14.155  1.00  0.00     0.001 A 
HETATM    6  C   LIG     1      15.538  31.097  13.441  1.00  0.00     0.000 A 
HETATM    7  C   LIG     1      16.164  32.183  14.055  1.00  0.00     0.001 A 
HETATM    8  C   LIG     1      15.873  32.502  15.385  1.00  0.00     0.017 A 
ENDBRANCH   2   3
BRANCH   2   9
HETATM    9  O   LIG     1      15.482  32.937  18.230  1.00  0.00    -0.318 OA
BRANCH   9  10
HETATM   10  C   LIG     1      15.451  33.080  19.649  1.00  0.00     0.179 C 
BRANCH  10  11
HETATM   11  C   LIG     1      15.680  34.541  20.047  1.00  0.00     0.026 C 
BRANCH  11  12
HETATM   12  C   LIG     1      15.640  34.711  21.569  1.00  0.00    -0.002 C 
HETATM   13  C   LIG     1      16.993  35.161  22.109  1.00  0.00     0.005 C 
ENDBRANCH  11  12
ENDBRANCH  10  11
ENDBRANCH   9  10
ENDBRANCH   2   9
TORSDOF 5
ENDMDL
MODEL 10
REMARK VINA RESULT:      -6.0      9.276     11.358
REMARK  5 active torsions:
REMARK  status: ('A' for Active; 'I' for Inactive)
REMARK    1  A    between atoms: C_2  and  C_3 
REMARK    2  A    between atoms: C_2  and  O_9 
REMARK    3  A    between atoms: O_9  and  C_10 
REMARK    4  A    between atoms: C_10  and  C_11 
REMARK    5  A    between atoms: C_11  and  C_12 
ROOT
HETATM    1  O   LIG     1      16.944  34.163  15.492  1.00  0.00    -0.259 OA
HETATM    2  C   LIG     1      16.860  33.077  14.856  1.00  0.00     0.293 C 
ENDROOT
BRANCH   2   3
HETATM    3  C   LIG     1      15.742  32.145  15.122  1.00  0.00     0.039 A 
HETATM    4  C   LIG     1      14.939  32.296  16.269  1.00  0.00     0.017 A 
HETATM    5  C   LIG     1      13.883  31.412  16.515  1.00  0.00     0.001 A 
HETATM    6  C   LIG     1      13.618  30.373  15.621  1.00  0.00     0.000 A 
HETATM    7  C   LIG     1      14.407  30.214  14.480  1.00  0.00     0.001 A 
HETATM    8  C   LIG     1      15.464  31.094  14.229  1.00  0.00     0.017 A 
ENDBRANCH   2   3
BRANCH   2   9
HETATM    9  O   LIG     1      17.828  32.746  13.898  1.00  0.00    -0.318 OA
BRANCH   9  10
HETATM   10  C   LIG     1      18.769  33.681  13.374  1.00  0.00     0.179 C 
BRANCH  10  11
HETATM   11  C   LIG     1      19.013  33.419  11.885  1.00  0.00     0.026 C 
BRANCH  11  12
HETATM   12  C   LIG     1      20.502  33.528  11.543  1.00  0.00    -0.002 C 
HETATM   13  C   LIG     1      21.268  34.258  12.641  1.00  0.00     0.005 C 
ENDBRANCH  11  12
ENDBRANCH  10  11
ENDBRANCH   9  10
ENDBRANCH   2   9
TORSDOF 5
ENDMDL
MODEL 11
REMARK VINA RESULT:      -5.8      7.847      9.469
REMARK  5 active torsions:
REMARK  status: ('A' for Active; 'I' for Inactive)
REMARK    1  A    between atoms: C_2  and  C_3 
REMARK    2  A    between atoms: C_2  and  O_9 
REMARK    3  A    between atoms: O_9  and  C_10 
REMARK    4  A    between atoms: C_10  and  C_11 
REMARK    5  A    between atoms: C_11  and  C_12 
ROOT
HETATM    1  O   LIG     1      16.244  33.683  15.263  1.00  0.00    -0.259 OA
HETATM    2  C   LIG     1      15.776  32.778  16.008  1.00  0.00     0.293 C 
ENDROOT
BRANCH   2   3
HETATM    3  C   LIG     1      15.072  31.620  15.415  1.00  0.00     0.039 A 
HETATM    4  C   LIG     1      15.601  30.954  14.294  1.00  0.00     0.017 A 
HETATM    5  C   LIG     1      14.930  29.859  13.740  1.00  0.00     0.001 A 
HETATM    6  C   LIG     1      13.727  29.420  14.297  1.00  0.00     0.000 A 
HETATM    7  C   LIG     1      13.193  30.073  15.410  1.00  0.00     0.001 A 
HETATM    8  C   LIG     1      13.859  31.168  15.968  1.00  0.00     0.017 A 
ENDBRANCH   2   3
BRANCH   2   9
HETATM    9  O   LIG     1      15.918  32.871  17.398  1.00  0.00    -0.318 OA
BRANCH   9  10
HETATM   10  C   LIG     1      15.135  33.739  18.215  1.00  0.00     0.179 C 
BRANCH  10  11
HETATM   11  C   LIG     1      15.410  33.474  19.698  1.00  0.00     0.026 C 
BRANCH  11  12
HETATM   12  C   LIG     1      15.889  32.036  19.922  1.00  0.00    -0.002 C 
HETATM   13  C   LIG     1      14.711  31.082  20.090  1.00  0.00     0.005 C 
ENDBRANCH  11  12
ENDBRANCH  10  11
ENDBRANCH   9  10
ENDBRANCH   2   9
TORSDOF 5
ENDMDL
MODEL 12
REMARK VINA RESULT:      -5.7      4.388      6.453
REMARK  5 active torsions:
REMARK  status: ('A' for Active; 'I' for Inactive)
REMARK    1  A    between atoms: C_2  and  C_3 
REMARK    2  A    between atoms: C_2  and  O_9 
REMARK    3  A    between atoms: O_9  and  C_10 
REMARK    4  A    between atoms: C_10  and  C_11 
REMARK    5  A    between atoms: C_11  and  C_12 
ROOT
HETATM    1  O   LIG     1      14.521  34.075  21.649  1.00  0.00    -0.259 OA
HETATM    2  C   LIG     1      15.496  34.433  20.933  1.00  0.00     0.293 C 
ENDROOT
BRANCH   2   3
HETATM    3  C   LIG     1      16.213  35.692  21.231  1.00  0.00     0.039 A 
HETATM    4  C   LIG     1      15.735  36.575  22.218  1.00  0.00     0.017 A 
HETATM    5  C   LIG     1      16.418  37.763  22.495  1.00  0.00     0.001 A 
HETATM    6  C   LIG     1      17.583  38.081  21.794  1.00  0.00     0.000 A 
HETATM    7  C   LIG     1      18.067  37.213  20.814  1.00  0.00     0.001 A 
HETATM    8  C   LIG     1      17.388  36.024  20.532  1.00  0.00     0.017 A 
ENDBRANCH   2   3
BRANCH   2   9
HETATM    9  O   LIG     1      15.898  33.643  19.848  1.00  0.00    -0.318 OA
BRANCH   9  10
HETATM   10  C   LIG     1      15.209  33.607  18.600  1.00  0.00     0.179 C 
BRANCH  10  11
HETATM   11  C   LIG     1      14.767  32.178  18.272  1.00  0.00     0.026 C 
BRANCH  11  12
HETATM   12  C   LIG     1      14.480  32.020  16.775  1.00  0.00    -0.002 C 
HETATM   13  C   LIG     1      13.437  30.935  16.526  1.00  0.00     0.005 C 
ENDBRANCH  11  12
ENDBRANCH  10  11
ENDBRANCH   9  10
ENDBRANCH   2   9
TORSDOF 5
ENDMDL
MODEL 13
REMARK VINA RESULT:      -5.5     10.635     12.973
REMARK  5 active torsions:
REMARK  status: ('A' for Active; 'I' for Inactive)
REMARK    1  A    between atoms: C_2  and  C_3 
REMARK    2  A    between atoms: C_2  and  O_9 
REMARK    3  A    between atoms: O_9  and  C_10 
REMARK    4  A    between atoms: C_10  and  C_11 
REMARK    5  A    between atoms: C_11  and  C_12 
ROOT
HETATM    1  O   LIG     1      13.021  29.113  14.211  1.00  0.00    -0.259 OA
HETATM    2  C   LIG     1      14.172  29.615  14.343  1.00  0.00     0.293 C 
ENDROOT
BRANCH   2   3
HETATM    3  C   LIG     1      14.385  30.751  15.266  1.00  0.00     0.039 A 
HETATM    4  C   LIG     1      15.452  31.647  15.067  1.00  0.00     0.017 A 
HETATM    5  C   LIG     1      15.648  32.720  15.943  1.00  0.00     0.001 A 
HETATM    6  C   LIG     1      14.782  32.909  17.023  1.00  0.00     0.000 A 
HETATM    7  C   LIG     1      13.720  32.026  17.229  1.00  0.00     0.001 A 
HETATM    8  C   LIG     1      13.520  30.952  16.357  1.00  0.00     0.017 A 
ENDBRANCH   2   3
BRANCH   2   9
HETATM    9  O   LIG     1      15.250  29.100  13.611  1.00  0.00    -0.318 OA
BRANCH   9  10
HETATM   10  C   LIG     1      15.690  27.746  13.702  1.00  0.00     0.179 C 
BRANCH  10  11
HETATM   11  C   LIG     1      15.112  26.915  12.554  1.00  0.00     0.026 C 
BRANCH  11  12
HETATM   12  C   LIG     1      16.118  26.786  11.405  1.00  0.00    -0.002 C 
HETATM   13  C   LIG     1      15.468  26.171  10.170  1.00  0.00     0.005 C 
ENDBRANCH  11  12
ENDBRANCH  10  11
ENDBRANCH   9  10
ENDBRANCH   2   9
TORSDOF 5
ENDMDL
MODEL 14
REMARK VINA RESULT:      -5.1      4.475      7.133
REMARK  5 active torsions:
REMARK  status: ('A' for Active; 'I' for Inactive)
REMARK    1  A    between atoms: C_2  and  C_3 
REMARK    2  A    between atoms: C_2  and  O_9 
REMARK    3  A    between atoms: O_9  and  C_10 
REMARK    4  A    between atoms: C_10  and  C_11 
REMARK    5  A    between atoms: C_11  and  C_12 
ROOT
HETATM    1  O   LIG     1      15.154  32.861  20.520  1.00  0.00    -0.259 OA
HETATM    2  C   LIG     1      15.625  33.878  19.939  1.00  0.00     0.293 C 
ENDROOT
BRANCH   2   3
HETATM    3  C   LIG     1      16.278  34.947  20.725  1.00  0.00     0.039 A 
HETATM    4  C   LIG     1      17.053  35.935  20.090  1.00  0.00     0.017 A 
HETATM    5  C   LIG     1      17.667  36.943  20.840  1.00  0.00     0.001 A 
HETATM    6  C   LIG     1      17.513  36.976  22.227  1.00  0.00     0.000 A 
HETATM    7  C   LIG     1      16.745  36.002  22.868  1.00  0.00     0.001 A 
HETATM    8  C   LIG     1      16.130  34.992  22.124  1.00  0.00     0.017 A 
ENDBRANCH   2   3
BRANCH   2   9
HETATM    9  O   LIG     1      15.525  34.000  18.546  1.00  0.00    -0.318 OA
BRANCH   9  10
HETATM   10  C   LIG     1      15.219  32.909  17.680  1.00  0.00     0.179 C 
BRANCH  10  11
HETATM   11  C   LIG     1      15.458  33.301  16.219  1.00  0.00     0.026 C 
BRANCH  11  12
HETATM   12  C   LIG     1      16.449  32.344  15.547  1.00  0.00    -0.002 C 
HETATM   13  C   LIG     1      17.485  33.109  14.729  1.00  0.00     0.005 C 
ENDBRANCH  11  12
ENDBRANCH  10  11
ENDBRANCH   9  10
ENDBRANCH   2   9
TORSDOF 5
ENDMDL
MODEL 15
REMARK VINA RESULT:      -4.9      7.253      9.654
REMARK  5 active torsions:
REMARK  status: ('A' for Active; 'I' for Inactive)
REMARK    1  A    between atoms: C_2  and  C_3 
REMARK    2  A    between atoms: C_2  and  O_9 
REMARK    3  A    between atoms: O_9  and  C_10 
REMARK    4  A    between atoms: C_10  and  C_11 
REMARK    5  A    between atoms: C_11  and  C_12 
ROOT
HETATM    1  O   LIG     1      13.654  31.182  17.143  1.00  0.00    -0.259 OA
HETATM    2  C   LIG     1      14.466  32.138  16.999  1.00  0.00     0.293 C 
ENDROOT
BRANCH   2   3
HETATM    3  C   LIG     1      14.924  32.906  18.177  1.00  0.00     0.039 A 
HETATM    4  C   LIG     1      15.027  32.293  19.439  1.00  0.00     0.017 A 
HETATM    5  C   LIG     1      15.461  33.025  20.549  1.00  0.00     0.001 A 
HETATM    6  C   LIG     1      15.798  34.373  20.410  1.00  0.00     0.000 A 
HETATM    7  C   LIG     1      15.701  34.992  19.162  1.00  0.00     0.001 A 
HETATM    8  C   LIG     1      15.267  34.265  18.050  1.00  0.00     0.017 A 
ENDBRANCH   2   3
BRANCH   2   9
HETATM    9  O   LIG     1      14.931  32.478  15.722  1.00  0.00    -0.318 OA
BRANCH   9  10
HETATM   10  C   LIG     1      15.989  31.788  15.059  1.00  0.00     0.179 C 
BRANCH  10  11
HETATM   11  C   LIG     1      15.553  31.360  13.654  1.00  0.00     0.026 C 
BRANCH  11  12
HETATM   12  C   LIG     1      15.366  29.841  13.574  1.00  0.00    -0.002 C 
HETATM   13  C   LIG     1      14.063  29.410  14.240  1.00  0.00     0.005 C 
ENDBRANCH  11  12
ENDBRANCH  10  11
ENDBRANCH   9  10
ENDBRANCH   2   9
TORSDOF 5
ENDMDL
MODEL 16
REMARK VINA RESULT:      -4.9      6.999      8.698
REMARK  5 active torsions:
REMARK  status: ('A' for Active; 'I' for Inactive)
REMARK    1  A    between atoms: C_2  and  C_3 
REMARK    2  A    between atoms: C_2  and  O_9 
REMARK    3  A    between atoms: O_9  and  C_10 
REMARK    4  A    between atoms: C_10  and  C_11 
REMARK    5  A    between atoms: C_11  and  C_12 
ROOT
HETATM    1  O   LIG     1      14.101  30.651  16.022  1.00  0.00    -0.259 OA
HETATM    2  C   LIG     1      14.705  31.722  16.306  1.00  0.00     0.293 C 
ENDROOT
BRANCH   2   3
HETATM    3  C   LIG     1      15.673  32.304  15.351  1.00  0.00     0.039 A 
HETATM    4  C   LIG     1      16.509  33.369  15.735  1.00  0.00     0.017 A 
HETATM    5  C   LIG     1      17.422  33.915  14.828  1.00  0.00     0.001 A 
HETATM    6  C   LIG     1      17.510  33.404  13.531  1.00  0.00     0.000 A 
HETATM    7  C   LIG     1      16.687  32.347  13.139  1.00  0.00     0.001 A 
HETATM    8  C   LIG     1      15.772  31.798  14.042  1.00  0.00     0.017 A 
ENDBRANCH   2   3
BRANCH   2   9
HETATM    9  O   LIG     1      14.465  32.359  17.531  1.00  0.00    -0.318 OA
BRANCH   9  10
HETATM   10  C   LIG     1      14.497  31.687  18.789  1.00  0.00     0.179 C 
BRANCH  10  11
HETATM   11  C   LIG     1      15.563  32.303  19.699  1.00  0.00     0.026 C 
BRANCH  11  12
HETATM   12  C   LIG     1      15.432  33.829  19.747  1.00  0.00    -0.002 C 
HETATM   13  C   LIG     1      16.150  34.407  20.962  1.00  0.00     0.005 C 
ENDBRANCH  11  12
ENDBRANCH  10  11
ENDBRANCH   9  10
ENDBRANCH   2   9
TORSDOF 5
ENDMDL
