MODEL 1
REMARK VINA RESULT:      -5.9      0.000      0.000
REMARK  3 active torsions:
REMARK  status: ('A' for Active; 'I' for Inactive)
REMARK    1  A    between atoms: C_5  and  C_10 
REMARK    2  A    between atoms: C_5  and  O_6 
REMARK    3  A    between atoms: O_6  and  C_7 
ROOT
HETATM    1  C   LIG     1      26.903  25.595  19.977  1.00  0.00     0.019 C 
HETATM    2  C   LIG     1      27.101  24.315  19.094  1.00  0.00    -0.001 C 
HETATM    3  C   LIG     1      25.790  24.043  18.258  1.00  0.00     0.013 C 
HETATM    4  C   LIG     1      24.870  22.933  18.848  1.00  0.00     0.007 C 
HETATM    5  C   LIG     1      28.442  24.479  18.284  1.00  0.00     0.138 C 
HETATM    6  C   LIG     1      29.538  24.089  19.328  1.00  0.00     0.048 C 
HETATM    7  C   LIG     1      28.858  23.275  20.444  1.00  0.00     0.009 C 
HETATM    8  C   LIG     1      27.426  23.090  19.961  1.00  0.00     0.005 C 
HETATM    9  C   LIG     1      26.307  22.643  20.946  1.00  0.00     0.020 C 
HETATM   10  C   LIG     1      26.346  23.160  22.362  1.00  0.00     0.003 C 
HETATM   11  C   LIG     1      25.337  22.820  23.181  1.00  0.00     0.038 C 
HETATM   12 CL   LIG     1      25.355  23.354  24.856  1.00  0.00    -0.084 Cl
HETATM   13  C   LIG     1      24.889  22.957  20.393  1.00  0.00     0.010 C 
HETATM   14  C   LIG     1      23.809  22.108  21.161  1.00  0.00     0.007 C 
HETATM   15  C   LIG     1      23.595  20.728  20.550  1.00  0.00    -0.008 C 
HETATM   16  C   LIG     1      23.128  19.717  21.291  1.00  0.00     0.052 C 
HETATM   17  C   LIG     1      22.450  22.844  21.119  1.00  0.00     0.025 C 
HETATM   18  C   LIG     1      24.227  21.976  22.648  1.00  0.00    -0.021 C 
HETATM   19  C   LIG     1      23.730  20.983  23.403  1.00  0.00     0.064 C 
HETATM   20  C   LIG     1      23.042  19.857  22.753  1.00  0.00     0.172 C 
HETATM   21  O   LIG     1      22.470  18.974  23.445  1.00  0.00    -0.289 OA
ENDROOT
BRANCH   5  22
HETATM   22  C   LIG     1      28.522  23.559  17.054  1.00  0.00     0.158 C 
HETATM   23  C   LIG     1      28.749  22.076  17.182  1.00  0.00     0.094 C 
HETATM   24  O   LIG     1      28.413  24.024  15.929  1.00  0.00    -0.295 OA
ENDBRANCH   5  22
BRANCH   5  25
HETATM   25  O   LIG     1      28.613  25.848  17.878  1.00  0.00    -0.302 OA
BRANCH  25  26
HETATM   26  C   LIG     1      29.847  26.506  17.768  1.00  0.00     0.256 C 
HETATM   27  C   LIG     1      30.148  27.650  18.673  1.00  0.00     0.126 C 
HETATM   28  O   LIG     1      30.684  26.172  16.885  1.00  0.00    -0.266 OA
ENDBRANCH  25  26
ENDBRANCH   5  25
TORSDOF 3
ENDMDL
MODEL 2
REMARK VINA RESULT:      -5.5      4.250      6.416
REMARK  3 active torsions:
REMARK  status: ('A' for Active; 'I' for Inactive)
REMARK    1  A    between atoms: C_5  and  C_10 
REMARK    2  A    between atoms: C_5  and  O_6 
REMARK    3  A    between atoms: O_6  and  C_7 
ROOT
HETATM    1  C   LIG     1      23.168  22.340  21.996  1.00  0.00     0.019 C 
HETATM    2  C   LIG     1      23.557  20.830  22.156  1.00  0.00    -0.001 C 
HETATM    3  C   LIG     1      22.452  20.089  23.007  1.00  0.00     0.013 C 
HETATM    4  C   LIG     1      22.829  19.871  24.502  1.00  0.00     0.007 C 
HETATM    5  C   LIG     1      23.868  20.247  20.727  1.00  0.00     0.138 C 
HETATM    6  C   LIG     1      25.330  20.731  20.456  1.00  0.00     0.048 C 
HETATM    7  C   LIG     1      25.966  21.092  21.811  1.00  0.00     0.009 C 
HETATM    8  C   LIG     1      24.923  20.682  22.843  1.00  0.00     0.005 C 
HETATM    9  C   LIG     1      25.006  21.203  24.306  1.00  0.00     0.020 C 
HETATM   10  C   LIG     1      25.485  22.614  24.542  1.00  0.00     0.003 C 
HETATM   11  C   LIG     1      25.488  23.072  25.804  1.00  0.00     0.038 C 
HETATM   12 CL   LIG     1      26.082  24.691  26.144  1.00  0.00    -0.084 Cl
HETATM   13  C   LIG     1      23.648  21.062  25.049  1.00  0.00     0.010 C 
HETATM   14  C   LIG     1      23.871  21.156  26.604  1.00  0.00     0.007 C 
HETATM   15  C   LIG     1      24.205  19.810  27.238  1.00  0.00    -0.008 C 
HETATM   16  C   LIG     1      24.888  19.747  28.387  1.00  0.00     0.052 C 
HETATM   17  C   LIG     1      22.579  21.673  27.279  1.00  0.00     0.025 C 
HETATM   18  C   LIG     1      24.997  22.181  26.897  1.00  0.00    -0.021 C 
HETATM   19  C   LIG     1      25.659  22.140  28.065  1.00  0.00     0.064 C 
HETATM   20  C   LIG     1      25.531  20.955  28.927  1.00  0.00     0.172 C 
HETATM   21  O   LIG     1      26.049  20.943  30.074  1.00  0.00    -0.289 OA
ENDROOT
BRANCH   5  22
HETATM   22  C   LIG     1      23.793  18.712  20.671  1.00  0.00     0.158 C 
HETATM   23  C   LIG     1      22.496  17.986  20.435  1.00  0.00     0.094 C 
HETATM   24  O   LIG     1      24.801  18.040  20.835  1.00  0.00    -0.295 OA
ENDBRANCH   5  22
BRANCH   5  25
HETATM   25  O   LIG     1      22.973  20.813  19.754  1.00  0.00    -0.302 OA
BRANCH  25  26
HETATM   26  C   LIG     1      23.304  21.081  18.417  1.00  0.00     0.256 C 
HETATM   27  C   LIG     1      23.377  19.956  17.444  1.00  0.00     0.126 C 
HETATM   28  O   LIG     1      23.584  22.251  18.040  1.00  0.00    -0.266 OA
ENDBRANCH  25  26
ENDBRANCH   5  25
TORSDOF 3
ENDMDL
MODEL 3
REMARK VINA RESULT:      -5.5      3.395      6.289
REMARK  3 active torsions:
REMARK  status: ('A' for Active; 'I' for Inactive)
REMARK    1  A    between atoms: C_5  and  C_10 
REMARK    2  A    between atoms: C_5  and  O_6 
REMARK    3  A    between atoms: O_6  and  C_7 
ROOT
HETATM    1  C   LIG     1      24.497  19.923  22.041  1.00  0.00     0.019 C 
HETATM    2  C   LIG     1      25.067  21.190  21.315  1.00  0.00    -0.001 C 
HETATM    3  C   LIG     1      26.646  21.153  21.355  1.00  0.00     0.013 C 
HETATM    4  C   LIG     1      27.282  22.059  22.450  1.00  0.00     0.007 C 
HETATM    5  C   LIG     1      24.391  21.291  19.897  1.00  0.00     0.138 C 
HETATM    6  C   LIG     1      23.001  21.935  20.210  1.00  0.00     0.048 C 
HETATM    7  C   LIG     1      23.098  22.617  21.588  1.00  0.00     0.009 C 
HETATM    8  C   LIG     1      24.563  22.480  21.979  1.00  0.00     0.005 C 
HETATM    9  C   LIG     1      25.017  22.707  23.449  1.00  0.00     0.020 C 
HETATM   10  C   LIG     1      24.108  22.250  24.562  1.00  0.00     0.003 C 
HETATM   11  C   LIG     1      24.543  22.392  25.825  1.00  0.00     0.038 C 
HETATM   12 CL   LIG     1      23.505  21.922  27.163  1.00  0.00    -0.084 Cl
HETATM   13  C   LIG     1      26.413  22.083  23.728  1.00  0.00     0.010 C 
HETATM   14  C   LIG     1      27.033  22.705  25.034  1.00  0.00     0.007 C 
HETATM   15  C   LIG     1      27.808  23.991  24.768  1.00  0.00    -0.008 C 
HETATM   16  C   LIG     1      27.976  24.900  25.735  1.00  0.00     0.052 C 
HETATM   17  C   LIG     1      28.019  21.697  25.667  1.00  0.00     0.025 C 
HETATM   18  C   LIG     1      25.901  22.965  26.061  1.00  0.00    -0.021 C 
HETATM   19  C   LIG     1      26.081  23.851  27.054  1.00  0.00     0.064 C 
HETATM   20  C   LIG     1      27.215  24.787  26.990  1.00  0.00     0.172 C 
HETATM   21  O   LIG     1      27.469  25.547  27.961  1.00  0.00    -0.289 OA
ENDROOT
BRANCH   5  22
HETATM   22  C   LIG     1      25.180  22.172  18.913  1.00  0.00     0.158 C 
HETATM   23  C   LIG     1      26.005  21.583  17.801  1.00  0.00     0.094 C 
HETATM   24  O   LIG     1      25.162  23.390  19.027  1.00  0.00    -0.295 OA
ENDBRANCH   5  22
BRANCH   5  25
HETATM   25  O   LIG     1      24.212  19.979  19.337  1.00  0.00    -0.302 OA
BRANCH  25  26
HETATM   26  C   LIG     1      23.055  19.538  18.677  1.00  0.00     0.256 C 
HETATM   27  C   LIG     1      22.246  18.440  19.278  1.00  0.00     0.126 C 
HETATM   28  O   LIG     1      22.717  20.024  17.564  1.00  0.00    -0.266 OA
ENDBRANCH  25  26
ENDBRANCH   5  25
TORSDOF 3
ENDMDL
MODEL 4
REMARK VINA RESULT:      -5.0      3.800      6.637
REMARK  3 active torsions:
REMARK  status: ('A' for Active; 'I' for Inactive)
REMARK    1  A    between atoms: C_5  and  C_10 
REMARK    2  A    between atoms: C_5  and  O_6 
REMARK    3  A    between atoms: O_6  and  C_7 
ROOT
HETATM    1  C   LIG     1      24.318  23.181  21.452  1.00  0.00     0.019 C 
HETATM    2  C   LIG     1      24.675  21.776  22.047  1.00  0.00    -0.001 C 
HETATM    3  C   LIG     1      24.005  21.620  23.469  1.00  0.00     0.013 C 
HETATM    4  C   LIG     1      24.972  21.864  24.665  1.00  0.00     0.007 C 
HETATM    5  C   LIG     1      24.327  20.681  20.971  1.00  0.00     0.138 C 
HETATM    6  C   LIG     1      25.554  20.730  20.003  1.00  0.00     0.048 C 
HETATM    7  C   LIG     1      26.719  21.401  20.754  1.00  0.00     0.009 C 
HETATM    8  C   LIG     1      26.196  21.598  22.170  1.00  0.00     0.005 C 
HETATM    9  C   LIG     1      26.913  22.567  23.154  1.00  0.00     0.020 C 
HETATM   10  C   LIG     1      27.506  23.842  22.605  1.00  0.00     0.003 C 
HETATM   11  C   LIG     1      28.062  24.700  23.476  1.00  0.00     0.038 C 
HETATM   12 CL   LIG     1      28.811  26.177  22.887  1.00  0.00    -0.084 Cl
HETATM   13  C   LIG     1      25.994  22.976  24.339  1.00  0.00     0.010 C 
HETATM   14  C   LIG     1      26.859  23.557  25.518  1.00  0.00     0.007 C 
HETATM   15  C   LIG     1      27.374  22.478  26.464  1.00  0.00    -0.008 C 
HETATM   16  C   LIG     1      28.476  22.680  27.195  1.00  0.00     0.052 C 
HETATM   17  C   LIG     1      25.998  24.530  26.357  1.00  0.00     0.025 C 
HETATM   18  C   LIG     1      28.044  24.365  24.930  1.00  0.00    -0.021 C 
HETATM   19  C   LIG     1      29.136  24.599  25.676  1.00  0.00     0.064 C 
HETATM   20  C   LIG     1      29.338  23.841  26.921  1.00  0.00     0.172 C 
HETATM   21  O   LIG     1      30.292  24.123  27.692  1.00  0.00    -0.289 OA
ENDROOT
BRANCH   5  22
HETATM   22  C   LIG     1      24.171  19.273  21.569  1.00  0.00     0.158 C 
HETATM   23  C   LIG     1      22.836  18.741  22.017  1.00  0.00     0.094 C 
HETATM   24  O   LIG     1      25.148  18.551  21.706  1.00  0.00    -0.295 OA
ENDBRANCH   5  22
BRANCH   5  25
HETATM   25  O   LIG     1      23.128  21.044  20.263  1.00  0.00    -0.302 OA
BRANCH  25  26
HETATM   26  C   LIG     1      22.965  20.981  18.872  1.00  0.00     0.256 C 
HETATM   27  C   LIG     1      22.604  19.682  18.237  1.00  0.00     0.126 C 
HETATM   28  O   LIG     1      23.164  21.995  18.148  1.00  0.00    -0.266 OA
ENDBRANCH  25  26
ENDBRANCH   5  25
TORSDOF 3
ENDMDL
MODEL 5
REMARK VINA RESULT:      -4.8      1.833      7.290
REMARK  3 active torsions:
REMARK  status: ('A' for Active; 'I' for Inactive)
REMARK    1  A    between atoms: C_5  and  C_10 
REMARK    2  A    between atoms: C_5  and  O_6 
REMARK    3  A    between atoms: O_6  and  C_7 
ROOT
HETATM    1  C   LIG     1      26.237  21.157  22.090  1.00  0.00     0.019 C 
HETATM    2  C   LIG     1      25.430  21.263  20.750  1.00  0.00    -0.001 C 
HETATM    3  C   LIG     1      26.261  20.600  19.582  1.00  0.00     0.013 C 
HETATM    4  C   LIG     1      27.016  21.615  18.673  1.00  0.00     0.007 C 
HETATM    5  C   LIG     1      23.981  20.703  21.002  1.00  0.00     0.138 C 
HETATM    6  C   LIG     1      23.250  21.902  21.689  1.00  0.00     0.048 C 
HETATM    7  C   LIG     1      24.044  23.183  21.371  1.00  0.00     0.009 C 
HETATM    8  C   LIG     1      25.127  22.729  20.401  1.00  0.00     0.005 C 
HETATM    9  C   LIG     1      26.365  23.626  20.116  1.00  0.00     0.020 C 
HETATM   10  C   LIG     1      26.948  24.431  21.251  1.00  0.00     0.003 C 
HETATM   11  C   LIG     1      28.056  25.149  21.005  1.00  0.00     0.038 C 
HETATM   12 CL   LIG     1      28.751  26.144  22.276  1.00  0.00    -0.084 Cl
HETATM   13  C   LIG     1      27.537  22.817  19.493  1.00  0.00     0.010 C 
HETATM   14  C   LIG     1      28.564  23.793  18.808  1.00  0.00     0.007 C 
HETATM   15  C   LIG     1      28.199  24.119  17.364  1.00  0.00    -0.008 C 
HETATM   16  C   LIG     1      28.622  25.252  16.791  1.00  0.00     0.052 C 
HETATM   17  C   LIG     1      29.964  23.138  18.790  1.00  0.00     0.025 C 
HETATM   18  C   LIG     1      28.664  25.095  19.643  1.00  0.00    -0.021 C 
HETATM   19  C   LIG     1      29.123  26.224  19.078  1.00  0.00     0.064 C 
HETATM   20  C   LIG     1      29.238  26.305  17.614  1.00  0.00     0.172 C 
HETATM   21  O   LIG     1      29.771  27.308  17.071  1.00  0.00    -0.289 OA
ENDROOT
BRANCH   5  22
HETATM   22  C   LIG     1      23.253  20.304  19.707  1.00  0.00     0.158 C 
HETATM   23  C   LIG     1      22.810  21.326  18.694  1.00  0.00     0.094 C 
HETATM   24  O   LIG     1      23.005  19.129  19.477  1.00  0.00    -0.295 OA
ENDBRANCH   5  22
BRANCH   5  25
HETATM   25  O   LIG     1      24.031  19.579  21.897  1.00  0.00    -0.302 OA
BRANCH  25  26
HETATM   26  C   LIG     1      23.143  19.356  22.959  1.00  0.00     0.256 C 
HETATM   27  C   LIG     1      23.513  19.813  24.328  1.00  0.00     0.126 C 
HETATM   28  O   LIG     1      22.059  18.736  22.781  1.00  0.00    -0.266 OA
ENDBRANCH  25  26
ENDBRANCH   5  25
TORSDOF 3
ENDMDL
MODEL 6
REMARK VINA RESULT:      -4.8      4.015      8.482
REMARK  3 active torsions:
REMARK  status: ('A' for Active; 'I' for Inactive)
REMARK    1  A    between atoms: C_5  and  C_10 
REMARK    2  A    between atoms: C_5  and  O_6 
REMARK    3  A    between atoms: O_6  and  C_7 
ROOT
HETATM    1  C   LIG     1      28.368  22.238  26.507  1.00  0.00     0.019 C 
HETATM    2  C   LIG     1      26.864  22.074  26.098  1.00  0.00    -0.001 C 
HETATM    3  C   LIG     1      26.745  21.002  24.945  1.00  0.00     0.013 C 
HETATM    4  C   LIG     1      26.592  21.606  23.518  1.00  0.00     0.007 C 
HETATM    5  C   LIG     1      26.024  21.812  27.404  1.00  0.00     0.138 C 
HETATM    6  C   LIG     1      25.841  23.245  28.002  1.00  0.00     0.048 C 
HETATM    7  C   LIG     1      26.090  24.263  26.874  1.00  0.00     0.009 C 
HETATM    8  C   LIG     1      26.271  23.410  25.625  1.00  0.00     0.005 C 
HETATM    9  C   LIG     1      26.901  24.011  24.337  1.00  0.00     0.020 C 
HETATM   10  C   LIG     1      28.019  25.014  24.482  1.00  0.00     0.003 C 
HETATM   11  C   LIG     1      28.599  25.474  23.361  1.00  0.00     0.038 C 
HETATM   12 CL   LIG     1      29.873  26.680  23.469  1.00  0.00    -0.084 Cl
HETATM   13  C   LIG     1      27.415  22.906  23.372  1.00  0.00     0.010 C 
HETATM   14  C   LIG     1      27.614  23.499  21.928  1.00  0.00     0.007 C 
HETATM   15  C   LIG     1      26.343  23.454  21.088  1.00  0.00    -0.008 C 
HETATM   16  C   LIG     1      26.161  24.311  20.076  1.00  0.00     0.052 C 
HETATM   17  C   LIG     1      28.689  22.679  21.178  1.00  0.00     0.025 C 
HETATM   18  C   LIG     1      28.130  24.957  22.042  1.00  0.00    -0.021 C 
HETATM   19  C   LIG     1      27.980  25.807  21.013  1.00  0.00     0.064 C 
HETATM   20  C   LIG     1      27.069  25.457  19.913  1.00  0.00     0.172 C 
HETATM   21  O   LIG     1      27.000  26.184  18.887  1.00  0.00    -0.289 OA
ENDROOT
BRANCH   5  22
HETATM   22  C   LIG     1      24.655  21.170  27.124  1.00  0.00     0.158 C 
HETATM   23  C   LIG     1      23.396  21.989  27.025  1.00  0.00     0.094 C 
HETATM   24  O   LIG     1      24.559  19.959  26.987  1.00  0.00    -0.295 OA
ENDBRANCH   5  22
BRANCH   5  25
HETATM   25  O   LIG     1      26.769  20.988  28.318  1.00  0.00    -0.302 OA
BRANCH  25  26
HETATM   26  C   LIG     1      26.659  21.035  29.715  1.00  0.00     0.256 C 
HETATM   27  C   LIG     1      27.754  21.656  30.513  1.00  0.00     0.126 C 
HETATM   28  O   LIG     1      25.672  20.520  30.307  1.00  0.00    -0.266 OA
ENDBRANCH  25  26
ENDBRANCH   5  25
TORSDOF 3
ENDMDL
MODEL 7
REMARK VINA RESULT:      -4.7      4.352      7.676
REMARK  3 active torsions:
REMARK  status: ('A' for Active; 'I' for Inactive)
REMARK    1  A    between atoms: C_5  and  C_10 
REMARK    2  A    between atoms: C_5  and  O_6 
REMARK    3  A    between atoms: O_6  and  C_7 
ROOT
HETATM    1  C   LIG     1      23.990  21.172  26.422  1.00  0.00     0.019 C 
HETATM    2  C   LIG     1      25.319  21.745  25.821  1.00  0.00    -0.001 C 
HETATM    3  C   LIG     1      25.041  23.163  25.186  1.00  0.00     0.013 C 
HETATM    4  C   LIG     1      24.882  23.154  23.636  1.00  0.00     0.007 C 
HETATM    5  C   LIG     1      26.435  21.666  26.928  1.00  0.00     0.138 C 
HETATM    6  C   LIG     1      26.895  20.173  26.864  1.00  0.00     0.048 C 
HETATM    7  C   LIG     1      26.463  19.605  25.499  1.00  0.00     0.009 C 
HETATM    8  C   LIG     1      25.893  20.803  24.752  1.00  0.00     0.005 C 
HETATM    9  C   LIG     1      25.014  20.603  23.484  1.00  0.00     0.020 C 
HETATM   10  C   LIG     1      24.068  19.429  23.441  1.00  0.00     0.003 C 
HETATM   11  C   LIG     1      23.268  19.307  22.369  1.00  0.00     0.038 C 
HETATM   12 CL   LIG     1      22.180  17.933  22.244  1.00  0.00    -0.084 Cl
HETATM   13  C   LIG     1      24.173  21.868  23.156  1.00  0.00     0.010 C 
HETATM   14  C   LIG     1      23.669  21.811  21.666  1.00  0.00     0.007 C 
HETATM   15  C   LIG     1      24.676  22.389  20.677  1.00  0.00    -0.008 C 
HETATM   16  C   LIG     1      24.673  22.004  19.396  1.00  0.00     0.052 C 
HETATM   17  C   LIG     1      22.368  22.636  21.530  1.00  0.00     0.025 C 
HETATM   18  C   LIG     1      23.336  20.343  21.296  1.00  0.00    -0.021 C 
HETATM   19  C   LIG     1      23.298  19.964  20.008  1.00  0.00     0.064 C 
HETATM   20  C   LIG     1      23.863  20.848  18.978  1.00  0.00     0.172 C 
HETATM   21  O   LIG     1      23.736  20.568  17.757  1.00  0.00    -0.289 OA
ENDROOT
BRANCH   5  22
HETATM   22  C   LIG     1      27.623  22.605  26.658  1.00  0.00     0.158 C 
HETATM   23  C   LIG     1      27.718  23.969  27.286  1.00  0.00     0.094 C 
HETATM   24  O   LIG     1      28.521  22.260  25.903  1.00  0.00    -0.295 OA
ENDBRANCH   5  22
BRANCH   5  25
HETATM   25  O   LIG     1      25.874  21.952  28.221  1.00  0.00    -0.302 OA
BRANCH  25  26
HETATM   26  C   LIG     1      26.223  21.299  29.412  1.00  0.00     0.256 C 
HETATM   27  C   LIG     1      25.330  20.234  29.949  1.00  0.00     0.126 C 
HETATM   28  O   LIG     1      27.254  21.632  30.057  1.00  0.00    -0.266 OA
ENDBRANCH  25  26
ENDBRANCH   5  25
TORSDOF 3
ENDMDL
MODEL 8
REMARK VINA RESULT:      -4.6      3.740      5.688
REMARK  3 active torsions:
REMARK  status: ('A' for Active; 'I' for Inactive)
REMARK    1  A    between atoms: C_5  and  C_10 
REMARK    2  A    between atoms: C_5  and  O_6 
REMARK    3  A    between atoms: O_6  and  C_7 
ROOT
HETATM    1  C   LIG     1      24.434  22.735  23.492  1.00  0.00     0.019 C 
HETATM    2  C   LIG     1      25.799  22.823  22.727  1.00  0.00    -0.001 C 
HETATM    3  C   LIG     1      25.636  23.757  21.463  1.00  0.00     0.013 C 
HETATM    4  C   LIG     1      25.455  22.993  20.118  1.00  0.00     0.007 C 
HETATM    5  C   LIG     1      26.920  23.213  23.761  1.00  0.00     0.138 C 
HETATM    6  C   LIG     1      27.248  21.853  24.459  1.00  0.00     0.048 C 
HETATM    7  C   LIG     1      26.750  20.720  23.543  1.00  0.00     0.009 C 
HETATM    8  C   LIG     1      26.275  21.431  22.283  1.00  0.00     0.005 C 
HETATM    9  C   LIG     1      25.364  20.702  21.255  1.00  0.00     0.020 C 
HETATM   10  C   LIG     1      24.319  19.743  21.770  1.00  0.00     0.003 C 
HETATM   11  C   LIG     1      23.497  19.172  20.876  1.00  0.00     0.038 C 
HETATM   12 CL   LIG     1      22.292  18.011  21.415  1.00  0.00    -0.084 Cl
HETATM   13  C   LIG     1      24.630  21.701  20.317  1.00  0.00     0.010 C 
HETATM   14  C   LIG     1      24.103  20.954  19.036  1.00  0.00     0.007 C 
HETATM   15  C   LIG     1      25.142  20.879  17.923  1.00  0.00    -0.008 C 
HETATM   16  C   LIG     1      25.087  19.911  17.001  1.00  0.00     0.052 C 
HETATM   17  C   LIG     1      22.876  21.705  18.470  1.00  0.00     0.025 C 
HETATM   18  C   LIG     1      23.639  19.528  19.433  1.00  0.00    -0.021 C 
HETATM   19  C   LIG     1      23.550  18.565  18.502  1.00  0.00     0.064 C 
HETATM   20  C   LIG     1      24.174  18.771  17.186  1.00  0.00     0.172 C 
HETATM   21  O   LIG     1      24.006  17.933  16.262  1.00  0.00    -0.289 OA
ENDROOT
BRANCH   5  22
HETATM   22  C   LIG     1      28.180  23.793  23.098  1.00  0.00     0.158 C 
HETATM   23  C   LIG     1      28.365  25.273  22.896  1.00  0.00     0.094 C 
HETATM   24  O   LIG     1      29.065  23.048  22.701  1.00  0.00    -0.295 OA
ENDBRANCH   5  22
BRANCH   5  25
HETATM   25  O   LIG     1      26.404  24.148  24.724  1.00  0.00    -0.302 OA
BRANCH  25  26
HETATM   26  C   LIG     1      26.672  24.116  26.100  1.00  0.00     0.256 C 
HETATM   27  C   LIG     1      27.960  24.668  26.606  1.00  0.00     0.126 C 
HETATM   28  O   LIG     1      25.860  23.587  26.908  1.00  0.00    -0.266 OA
ENDBRANCH  25  26
ENDBRANCH   5  25
TORSDOF 3
ENDMDL
MODEL 9
REMARK VINA RESULT:      -4.5      4.809      7.122
REMARK  3 active torsions:
REMARK  status: ('A' for Active; 'I' for Inactive)
REMARK    1  A    between atoms: C_5  and  C_10 
REMARK    2  A    between atoms: C_5  and  O_6 
REMARK    3  A    between atoms: O_6  and  C_7 
ROOT
HETATM    1  C   LIG     1      26.810  21.407  23.295  1.00  0.00     0.019 C 
HETATM    2  C   LIG     1      25.498  20.760  23.857  1.00  0.00    -0.001 C 
HETATM    3  C   LIG     1      25.530  19.201  23.607  1.00  0.00     0.013 C 
HETATM    4  C   LIG     1      24.692  18.730  22.382  1.00  0.00     0.007 C 
HETATM    5  C   LIG     1      25.310  21.240  25.345  1.00  0.00     0.138 C 
HETATM    6  C   LIG     1      24.693  22.668  25.183  1.00  0.00     0.048 C 
HETATM    7  C   LIG     1      24.098  22.767  23.766  1.00  0.00     0.009 C 
HETATM    8  C   LIG     1      24.253  21.366  23.189  1.00  0.00     0.005 C 
HETATM    9  C   LIG     1      24.118  21.117  21.660  1.00  0.00     0.020 C 
HETATM   10  C   LIG     1      24.648  22.162  20.710  1.00  0.00     0.003 C 
HETATM   11  C   LIG     1      24.584  21.903  19.394  1.00  0.00     0.038 C 
HETATM   12 CL   LIG     1      25.142  23.106  18.240  1.00  0.00    -0.084 Cl
HETATM   13  C   LIG     1      24.752  19.763  21.234  1.00  0.00     0.010 C 
HETATM   14  C   LIG     1      24.211  19.333  19.820  1.00  0.00     0.007 C 
HETATM   15  C   LIG     1      22.908  18.545  19.898  1.00  0.00    -0.008 C 
HETATM   16  C   LIG     1      22.061  18.521  18.863  1.00  0.00     0.052 C 
HETATM   17  C   LIG     1      25.253  18.429  19.123  1.00  0.00     0.025 C 
HETATM   18  C   LIG     1      24.021  20.597  18.942  1.00  0.00    -0.021 C 
HETATM   19  C   LIG     1      23.198  20.563  17.881  1.00  0.00     0.064 C 
HETATM   20  C   LIG     1      22.256  19.443  17.733  1.00  0.00     0.172 C 
HETATM   21  O   LIG     1      21.557  19.331  16.691  1.00  0.00    -0.289 OA
ENDROOT
BRANCH   5  22
HETATM   22  C   LIG     1      24.365  20.338  26.156  1.00  0.00     0.158 C 
HETATM   23  C   LIG     1      22.877  20.564  26.187  1.00  0.00     0.094 C 
HETATM   24  O   LIG     1      24.815  19.411  26.816  1.00  0.00    -0.295 OA
ENDBRANCH   5  22
BRANCH   5  25
HETATM   25  O   LIG     1      26.585  21.326  26.004  1.00  0.00    -0.302 OA
BRANCH  25  26
HETATM   26  C   LIG     1      26.947  22.318  26.928  1.00  0.00     0.256 C 
HETATM   27  C   LIG     1      27.942  23.355  26.534  1.00  0.00     0.126 C 
HETATM   28  O   LIG     1      26.479  22.316  28.099  1.00  0.00    -0.266 OA
ENDBRANCH  25  26
ENDBRANCH   5  25
TORSDOF 3
ENDMDL
MODEL 10
REMARK VINA RESULT:      -4.3      4.004      6.647
REMARK  3 active torsions:
REMARK  status: ('A' for Active; 'I' for Inactive)
REMARK    1  A    between atoms: C_5  and  C_10 
REMARK    2  A    between atoms: C_5  and  O_6 
REMARK    3  A    between atoms: O_6  and  C_7 
ROOT
HETATM    1  C   LIG     1      26.217  23.586  24.425  1.00  0.00     0.019 C 
HETATM    2  C   LIG     1      26.819  22.145  24.292  1.00  0.00    -0.001 C 
HETATM    3  C   LIG     1      27.918  22.136  23.158  1.00  0.00     0.013 C 
HETATM    4  C   LIG     1      27.431  21.561  21.795  1.00  0.00     0.007 C 
HETATM    5  C   LIG     1      27.266  21.665  25.723  1.00  0.00     0.138 C 
HETATM    6  C   LIG     1      25.927  21.187  26.373  1.00  0.00     0.048 C 
HETATM    7  C   LIG     1      24.919  20.925  25.239  1.00  0.00     0.009 C 
HETATM    8  C   LIG     1      25.726  21.117  23.961  1.00  0.00     0.005 C 
HETATM    9  C   LIG     1      25.012  21.306  22.592  1.00  0.00     0.020 C 
HETATM   10  C   LIG     1      23.727  22.095  22.553  1.00  0.00     0.003 C 
HETATM   11  C   LIG     1      23.157  22.306  21.355  1.00  0.00     0.038 C 
HETATM   12 CL   LIG     1      21.634  23.177  21.254  1.00  0.00    -0.084 Cl
HETATM   13  C   LIG     1      25.955  21.935  21.528  1.00  0.00     0.010 C 
HETATM   14  C   LIG     1      25.378  21.692  20.084  1.00  0.00     0.007 C 
HETATM   15  C   LIG     1      25.814  20.358  19.488  1.00  0.00    -0.008 C 
HETATM   16  C   LIG     1      25.080  19.760  18.544  1.00  0.00     0.052 C 
HETATM   17  C   LIG     1      25.880  22.805  19.135  1.00  0.00     0.025 C 
HETATM   18  C   LIG     1      23.831  21.778  20.132  1.00  0.00    -0.021 C 
HETATM   19  C   LIG     1      23.094  21.208  19.165  1.00  0.00     0.064 C 
HETATM   20  C   LIG     1      23.727  20.254  18.241  1.00  0.00     0.172 C 
HETATM   21  O   LIG     1      23.085  19.796  17.259  1.00  0.00    -0.289 OA
ENDROOT
BRANCH   5  22
HETATM   22  C   LIG     1      28.283  20.511  25.683  1.00  0.00     0.158 C 
HETATM   23  C   LIG     1      29.757  20.742  25.885  1.00  0.00     0.094 C 
HETATM   24  O   LIG     1      27.909  19.367  25.468  1.00  0.00    -0.295 OA
ENDBRANCH   5  22
BRANCH   5  25
HETATM   25  O   LIG     1      27.811  22.766  26.470  1.00  0.00    -0.302 OA
BRANCH  25  26
HETATM   26  C   LIG     1      27.534  23.040  27.817  1.00  0.00     0.256 C 
HETATM   27  C   LIG     1      26.601  24.149  28.160  1.00  0.00     0.126 C 
HETATM   28  O   LIG     1      28.098  22.391  28.741  1.00  0.00    -0.266 OA
ENDBRANCH  25  26
ENDBRANCH   5  25
TORSDOF 3
ENDMDL
MODEL 11
REMARK VINA RESULT:      -4.1      2.547      7.864
REMARK  3 active torsions:
REMARK  status: ('A' for Active; 'I' for Inactive)
REMARK    1  A    between atoms: C_5  and  C_10 
REMARK    2  A    between atoms: C_5  and  O_6 
REMARK    3  A    between atoms: O_6  and  C_7 
ROOT
HETATM    1  C   LIG     1      23.225  20.786  21.341  1.00  0.00     0.019 C 
HETATM    2  C   LIG     1      24.389  21.228  22.293  1.00  0.00    -0.001 C 
HETATM    3  C   LIG     1      24.466  22.805  22.334  1.00  0.00     0.013 C 
HETATM    4  C   LIG     1      25.582  23.417  21.436  1.00  0.00     0.007 C 
HETATM    5  C   LIG     1      24.208  20.487  23.671  1.00  0.00     0.138 C 
HETATM    6  C   LIG     1      24.799  19.067  23.392  1.00  0.00     0.048 C 
HETATM    7  C   LIG     1      25.706  19.170  22.152  1.00  0.00     0.009 C 
HETATM    8  C   LIG     1      25.736  20.656  21.823  1.00  0.00     0.005 C 
HETATM    9  C   LIG     1      26.234  21.153  20.436  1.00  0.00     0.020 C 
HETATM   10  C   LIG     1      25.909  20.328  19.216  1.00  0.00     0.003 C 
HETATM   11  C   LIG     1      26.288  20.804  18.019  1.00  0.00     0.038 C 
HETATM   12 CL   LIG     1      25.978  19.861  16.568  1.00  0.00    -0.084 Cl
HETATM   13  C   LIG     1      25.761  22.603  20.135  1.00  0.00     0.010 C 
HETATM   14  C   LIG     1      26.632  23.228  18.983  1.00  0.00     0.007 C 
HETATM   15  C   LIG     1      27.905  23.893  19.496  1.00  0.00    -0.008 C 
HETATM   16  C   LIG     1      28.971  24.032  18.701  1.00  0.00     0.052 C 
HETATM   17  C   LIG     1      25.812  24.313  18.247  1.00  0.00     0.025 C 
HETATM   18  C   LIG     1      26.982  22.123  17.953  1.00  0.00    -0.021 C 
HETATM   19  C   LIG     1      28.032  22.278  17.129  1.00  0.00     0.064 C 
HETATM   20  C   LIG     1      29.018  23.334  17.405  1.00  0.00     0.172 C 
HETATM   21  O   LIG     1      29.945  23.571  16.587  1.00  0.00    -0.289 OA
ENDROOT
BRANCH   5  22
HETATM   22  C   LIG     1      24.963  21.165  24.826  1.00  0.00     0.158 C 
HETATM   23  C   LIG     1      24.408  22.365  25.546  1.00  0.00     0.094 C 
HETATM   24  O   LIG     1      26.056  20.744  25.178  1.00  0.00    -0.295 OA
ENDBRANCH   5  22
BRANCH   5  25
HETATM   25  O   LIG     1      22.811  20.384  23.999  1.00  0.00    -0.302 OA
BRANCH  25  26
HETATM   26  C   LIG     1      22.248  19.390  24.813  1.00  0.00     0.256 C 
HETATM   27  C   LIG     1      21.336  18.380  24.207  1.00  0.00     0.126 C 
HETATM   28  O   LIG     1      22.466  19.368  26.056  1.00  0.00    -0.266 OA
ENDBRANCH  25  26
ENDBRANCH   5  25
TORSDOF 3
ENDMDL
MODEL 12
REMARK VINA RESULT:      -4.0      9.243     11.665
REMARK  3 active torsions:
REMARK  status: ('A' for Active; 'I' for Inactive)
REMARK    1  A    between atoms: C_5  and  C_10 
REMARK    2  A    between atoms: C_5  and  O_6 
REMARK    3  A    between atoms: O_6  and  C_7 
ROOT
HETATM    1  C   LIG     1      28.843  23.810  29.665  1.00  0.00     0.019 C 
HETATM    2  C   LIG     1      28.969  24.995  28.647  1.00  0.00    -0.001 C 
HETATM    3  C   LIG     1      30.398  25.656  28.782  1.00  0.00     0.013 C 
HETATM    4  C   LIG     1      30.421  26.972  29.614  1.00  0.00     0.007 C 
HETATM    5  C   LIG     1      28.560  24.466  27.222  1.00  0.00     0.138 C 
HETATM    6  C   LIG     1      26.998  24.498  27.265  1.00  0.00     0.048 C 
HETATM    7  C   LIG     1      26.577  25.450  28.400  1.00  0.00     0.009 C 
HETATM    8  C   LIG     1      27.885  26.055  28.894  1.00  0.00     0.005 C 
HETATM    9  C   LIG     1      27.953  26.786  30.265  1.00  0.00     0.020 C 
HETATM   10  C   LIG     1      27.130  26.249  31.410  1.00  0.00     0.003 C 
HETATM   11  C   LIG     1      27.250  26.851  32.605  1.00  0.00     0.038 C 
HETATM   12 CL   LIG     1      26.279  26.299  33.961  1.00  0.00    -0.084 Cl
HETATM   13  C   LIG     1      29.413  26.910  30.784  1.00  0.00     0.010 C 
HETATM   14  C   LIG     1      29.499  28.020  31.896  1.00  0.00     0.007 C 
HETATM   15  C   LIG     1      29.725  29.416  31.325  1.00  0.00    -0.008 C 
HETATM   16  C   LIG     1      29.347  30.502  32.007  1.00  0.00     0.052 C 
HETATM   17  C   LIG     1      30.684  27.713  32.840  1.00  0.00     0.025 C 
HETATM   18  C   LIG     1      28.202  27.992  32.746  1.00  0.00    -0.021 C 
HETATM   19  C   LIG     1      27.840  29.071  33.459  1.00  0.00     0.064 C 
HETATM   20  C   LIG     1      28.495  30.362  33.199  1.00  0.00     0.172 C 
HETATM   21  O   LIG     1      28.254  31.358  33.931  1.00  0.00    -0.289 OA
ENDROOT
BRANCH   5  22
HETATM   22  C   LIG     1      29.082  25.350  26.076  1.00  0.00     0.158 C 
HETATM   23  C   LIG     1      28.217  25.728  24.904  1.00  0.00     0.094 C 
HETATM   24  O   LIG     1      30.235  25.758  26.090  1.00  0.00    -0.295 OA
ENDBRANCH   5  22
BRANCH   5  25
HETATM   25  O   LIG     1      29.021  23.116  27.042  1.00  0.00    -0.302 OA
BRANCH  25  26
HETATM   26  C   LIG     1      28.318  22.110  26.362  1.00  0.00     0.256 C 
HETATM   27  C   LIG     1      27.721  20.986  27.136  1.00  0.00     0.126 C 
HETATM   28  O   LIG     1      28.224  22.120  25.104  1.00  0.00    -0.266 OA
ENDBRANCH  25  26
ENDBRANCH   5  25
TORSDOF 3
ENDMDL
MODEL 13
REMARK VINA RESULT:      -4.0      5.299      9.086
REMARK  3 active torsions:
REMARK  status: ('A' for Active; 'I' for Inactive)
REMARK    1  A    between atoms: C_5  and  C_10 
REMARK    2  A    between atoms: C_5  and  O_6 
REMARK    3  A    between atoms: O_6  and  C_7 
ROOT
HETATM    1  C   LIG     1      26.610  21.478  27.236  1.00  0.00     0.019 C 
HETATM    2  C   LIG     1      26.666  22.175  25.833  1.00  0.00    -0.001 C 
HETATM    3  C   LIG     1      28.151  22.162  25.297  1.00  0.00     0.013 C 
HETATM    4  C   LIG     1      28.914  23.506  25.485  1.00  0.00     0.007 C 
HETATM    5  C   LIG     1      25.570  21.518  24.913  1.00  0.00     0.138 C 
HETATM    6  C   LIG     1      24.253  22.233  25.361  1.00  0.00     0.048 C 
HETATM    7  C   LIG     1      24.646  23.536  26.080  1.00  0.00     0.009 C 
HETATM    8  C   LIG     1      26.158  23.622  25.914  1.00  0.00     0.005 C 
HETATM    9  C   LIG     1      27.000  24.586  26.797  1.00  0.00     0.020 C 
HETATM   10  C   LIG     1      26.595  24.784  28.237  1.00  0.00     0.003 C 
HETATM   11  C   LIG     1      27.371  25.566  29.004  1.00  0.00     0.038 C 
HETATM   12 CL   LIG     1      26.921  25.871  30.676  1.00  0.00    -0.084 Cl
HETATM   13  C   LIG     1      28.506  24.200  26.805  1.00  0.00     0.010 C 
HETATM   14  C   LIG     1      29.374  25.414  27.304  1.00  0.00     0.007 C 
HETATM   15  C   LIG     1      29.762  26.367  26.180  1.00  0.00    -0.008 C 
HETATM   16  C   LIG     1      30.048  27.648  26.438  1.00  0.00     0.052 C 
HETATM   17  C   LIG     1      30.684  24.886  27.932  1.00  0.00     0.025 C 
HETATM   18  C   LIG     1      28.596  26.176  28.408  1.00  0.00    -0.021 C 
HETATM   19  C   LIG     1      28.907  27.451  28.693  1.00  0.00     0.064 C 
HETATM   20  C   LIG     1      29.759  28.212  27.766  1.00  0.00     0.172 C 
HETATM   21  O   LIG     1      30.156  29.368  28.068  1.00  0.00    -0.289 OA
ENDROOT
BRANCH   5  22
HETATM   22  C   LIG     1      25.821  21.750  23.413  1.00  0.00     0.158 C 
HETATM   23  C   LIG     1      25.008  22.730  22.611  1.00  0.00     0.094 C 
HETATM   24  O   LIG     1      26.693  21.121  22.831  1.00  0.00    -0.295 OA
ENDBRANCH   5  22
BRANCH   5  25
HETATM   25  O   LIG     1      25.479  20.107  25.177  1.00  0.00    -0.302 OA
BRANCH  25  26
HETATM   26  C   LIG     1      24.344  19.316  24.943  1.00  0.00     0.256 C 
HETATM   27  C   LIG     1      23.817  18.454  26.037  1.00  0.00     0.126 C 
HETATM   28  O   LIG     1      23.794  19.290  23.808  1.00  0.00    -0.266 OA
ENDBRANCH  25  26
ENDBRANCH   5  25
TORSDOF 3
ENDMDL
MODEL 14
REMARK VINA RESULT:      -4.0      3.842      6.168
REMARK  3 active torsions:
REMARK  status: ('A' for Active; 'I' for Inactive)
REMARK    1  A    between atoms: C_5  and  C_10 
REMARK    2  A    between atoms: C_5  and  O_6 
REMARK    3  A    between atoms: O_6  and  C_7 
ROOT
HETATM    1  C   LIG     1      26.577  23.335  21.492  1.00  0.00     0.019 C 
HETATM    2  C   LIG     1      25.645  22.201  22.040  1.00  0.00    -0.001 C 
HETATM    3  C   LIG     1      24.464  22.844  22.868  1.00  0.00     0.013 C 
HETATM    4  C   LIG     1      24.661  22.797  24.412  1.00  0.00     0.007 C 
HETATM    5  C   LIG     1      25.246  21.266  20.838  1.00  0.00     0.138 C 
HETATM    6  C   LIG     1      26.496  20.341  20.677  1.00  0.00     0.048 C 
HETATM    7  C   LIG     1      27.293  20.392  21.993  1.00  0.00     0.009 C 
HETATM    8  C   LIG     1      26.427  21.223  22.931  1.00  0.00     0.005 C 
HETATM    9  C   LIG     1      27.021  21.825  24.236  1.00  0.00     0.020 C 
HETATM   10  C   LIG     1      28.445  22.325  24.216  1.00  0.00     0.003 C 
HETATM   11  C   LIG     1      28.922  22.902  25.331  1.00  0.00     0.038 C 
HETATM   12 CL   LIG     1      30.588  23.459  25.381  1.00  0.00    -0.084 Cl
HETATM   13  C   LIG     1      26.148  22.984  24.791  1.00  0.00     0.010 C 
HETATM   14  C   LIG     1      26.500  23.253  26.301  1.00  0.00     0.007 C 
HETATM   15  C   LIG     1      25.706  22.375  27.261  1.00  0.00    -0.008 C 
HETATM   16  C   LIG     1      26.180  22.093  28.480  1.00  0.00     0.052 C 
HETATM   17  C   LIG     1      26.178  24.724  26.651  1.00  0.00     0.025 C 
HETATM   18  C   LIG     1      28.021  23.042  26.514  1.00  0.00    -0.021 C 
HETATM   19  C   LIG     1      28.502  22.795  27.744  1.00  0.00     0.064 C 
HETATM   20  C   LIG     1      27.572  22.425  28.822  1.00  0.00     0.172 C 
HETATM   21  O   LIG     1      27.985  22.301  30.005  1.00  0.00    -0.289 OA
ENDROOT
BRANCH   5  22
HETATM   22  C   LIG     1      23.989  20.425  21.117  1.00  0.00     0.158 C 
HETATM   23  C   LIG     1      24.021  18.920  21.112  1.00  0.00     0.094 C 
HETATM   24  O   LIG     1      22.918  20.972  21.337  1.00  0.00    -0.295 OA
ENDBRANCH   5  22
BRANCH   5  25
HETATM   25  O   LIG     1      25.054  22.046  19.645  1.00  0.00    -0.302 OA
BRANCH  25  26
HETATM   26  C   LIG     1      24.441  21.582  18.471  1.00  0.00     0.256 C 
HETATM   27  C   LIG     1      25.201  20.683  17.557  1.00  0.00     0.126 C 
HETATM   28  O   LIG     1      23.277  21.952  18.157  1.00  0.00    -0.266 OA
ENDBRANCH  25  26
ENDBRANCH   5  25
TORSDOF 3
ENDMDL
MODEL 15
REMARK VINA RESULT:      -3.6      2.169      7.464
REMARK  3 active torsions:
REMARK  status: ('A' for Active; 'I' for Inactive)
REMARK    1  A    between atoms: C_5  and  C_10 
REMARK    2  A    between atoms: C_5  and  O_6 
REMARK    3  A    between atoms: O_6  and  C_7 
ROOT
HETATM    1  C   LIG     1      25.541  22.806  23.075  1.00  0.00     0.019 C 
HETATM    2  C   LIG     1      25.236  21.506  22.256  1.00  0.00    -0.001 C 
HETATM    3  C   LIG     1      26.529  20.600  22.206  1.00  0.00     0.013 C 
HETATM    4  C   LIG     1      27.333  20.700  20.875  1.00  0.00     0.007 C 
HETATM    5  C   LIG     1      23.929  20.850  22.840  1.00  0.00     0.138 C 
HETATM    6  C   LIG     1      22.786  21.690  22.182  1.00  0.00     0.048 C 
HETATM    7  C   LIG     1      23.371  22.394  20.943  1.00  0.00     0.009 C 
HETATM    8  C   LIG     1      24.787  21.845  20.827  1.00  0.00     0.005 C 
HETATM    9  C   LIG     1      25.844  22.558  19.937  1.00  0.00     0.020 C 
HETATM   10  C   LIG     1      25.834  24.065  19.873  1.00  0.00     0.003 C 
HETATM   11  C   LIG     1      26.794  24.669  19.153  1.00  0.00     0.038 C 
HETATM   12 CL   LIG     1      26.802  26.420  19.004  1.00  0.00    -0.084 Cl
HETATM   13  C   LIG     1      27.294  22.136  20.307  1.00  0.00     0.010 C 
HETATM   14  C   LIG     1      28.278  22.496  19.133  1.00  0.00     0.007 C 
HETATM   15  C   LIG     1      28.371  21.398  18.079  1.00  0.00    -0.008 C 
HETATM   16  C   LIG     1      28.732  21.685  16.823  1.00  0.00     0.052 C 
HETATM   17  C   LIG     1      29.701  22.709  19.701  1.00  0.00     0.025 C 
HETATM   18  C   LIG     1      27.828  23.829  18.481  1.00  0.00    -0.021 C 
HETATM   19  C   LIG     1      28.219  24.134  17.233  1.00  0.00     0.064 C 
HETATM   20  C   LIG     1      28.809  23.088  16.383  1.00  0.00     0.172 C 
HETATM   21  O   LIG     1      29.286  23.376  15.254  1.00  0.00    -0.289 OA
ENDROOT
BRANCH   5  22
HETATM   22  C   LIG     1      23.782  19.364  22.472  1.00  0.00     0.158 C 
HETATM   23  C   LIG     1      22.434  18.717  22.293  1.00  0.00     0.094 C 
HETATM   24  O   LIG     1      24.774  18.664  22.330  1.00  0.00    -0.295 OA
ENDBRANCH   5  22
BRANCH   5  25
HETATM   25  O   LIG     1      23.892  21.003  24.269  1.00  0.00    -0.302 OA
BRANCH  25  26
HETATM   26  C   LIG     1      24.263  20.016  25.193  1.00  0.00     0.256 C 
HETATM   27  C   LIG     1      23.206  19.297  25.959  1.00  0.00     0.126 C 
HETATM   28  O   LIG     1      25.478  19.760  25.418  1.00  0.00    -0.266 OA
ENDBRANCH  25  26
ENDBRANCH   5  25
TORSDOF 3
ENDMDL
MODEL 16
REMARK VINA RESULT:      -3.6      3.358      5.510
REMARK  3 active torsions:
REMARK  status: ('A' for Active; 'I' for Inactive)
REMARK    1  A    between atoms: C_5  and  C_10 
REMARK    2  A    between atoms: C_5  and  O_6 
REMARK    3  A    between atoms: O_6  and  C_7 
ROOT
HETATM    1  C   LIG     1      26.876  21.497  22.354  1.00  0.00     0.019 C 
HETATM    2  C   LIG     1      25.332  21.587  22.104  1.00  0.00    -0.001 C 
HETATM    3  C   LIG     1      24.750  22.852  22.849  1.00  0.00     0.013 C 
HETATM    4  C   LIG     1      24.048  22.535  24.203  1.00  0.00     0.007 C 
HETATM    5  C   LIG     1      25.078  21.495  20.553  1.00  0.00     0.138 C 
HETATM    6  C   LIG     1      25.167  19.960  20.269  1.00  0.00     0.048 C 
HETATM    7  C   LIG     1      24.958  19.221  21.603  1.00  0.00     0.009 C 
HETATM    8  C   LIG     1      24.616  20.321  22.599  1.00  0.00     0.005 C 
HETATM    9  C   LIG     1      24.689  20.058  24.130  1.00  0.00     0.020 C 
HETATM   10  C   LIG     1      25.785  19.165  24.656  1.00  0.00     0.003 C 
HETATM   11  C   LIG     1      25.876  19.001  25.986  1.00  0.00     0.038 C 
HETATM   12 CL   LIG     1      27.103  17.933  26.651  1.00  0.00    -0.084 Cl
HETATM   13  C   LIG     1      24.762  21.381  24.943  1.00  0.00     0.010 C 
HETATM   14  C   LIG     1      24.377  21.114  26.446  1.00  0.00     0.007 C 
HETATM   15  C   LIG     1      22.875  21.198  26.697  1.00  0.00    -0.008 C 
HETATM   16  C   LIG     1      22.317  20.549  27.725  1.00  0.00     0.052 C 
HETATM   17  C   LIG     1      25.053  22.172  27.347  1.00  0.00     0.025 C 
HETATM   18  C   LIG     1      24.914  19.723  26.870  1.00  0.00    -0.021 C 
HETATM   19  C   LIG     1      24.378  19.086  27.924  1.00  0.00     0.064 C 
HETATM   20  C   LIG     1      23.100  19.556  28.479  1.00  0.00     0.172 C 
HETATM   21  O   LIG     1      22.637  19.048  29.534  1.00  0.00    -0.289 OA
ENDROOT
BRANCH   5  22
HETATM   22  C   LIG     1      23.702  22.038  20.131  1.00  0.00     0.158 C 
HETATM   23  C   LIG     1      23.023  21.593  18.864  1.00  0.00     0.094 C 
HETATM   24  O   LIG     1      23.130  22.868  20.824  1.00  0.00    -0.295 OA
ENDBRANCH   5  22
BRANCH   5  25
HETATM   25  O   LIG     1      26.114  22.189  19.837  1.00  0.00    -0.302 OA
BRANCH  25  26
HETATM   26  C   LIG     1      26.098  23.556  19.524  1.00  0.00     0.256 C 
HETATM   27  C   LIG     1      25.809  23.982  18.126  1.00  0.00     0.126 C 
HETATM   28  O   LIG     1      26.370  24.425  20.397  1.00  0.00    -0.266 OA
ENDBRANCH  25  26
ENDBRANCH   5  25
TORSDOF 3
ENDMDL
