REMARK  3 active torsions:
REMARK  status: ('A' for Active; 'I' for Inactive)
REMARK    1  A    between atoms: C_5  and  C_10 
REMARK    2  A    between atoms: C_5  and  O_6 
REMARK    3  A    between atoms: O_6  and  C_7 
ROOT
HETATM    1  C   LIG     1       1.189   1.758  -0.303  1.00  0.00     0.019 C 
HETATM    2  C   LIG     1       1.159   0.193  -0.227  1.00  0.00    -0.001 C 
HETATM    3  C   LIG     1       0.485  -0.385  -1.533  1.00  0.00     0.013 C 
HETATM    4  C   LIG     1      -1.004  -0.805  -1.356  1.00  0.00     0.007 C 
HETATM    5  C   LIG     1       2.612  -0.312   0.109  1.00  0.00     0.138 C 
HETATM    6  C   LIG     1       2.711  -0.108   1.656  1.00  0.00     0.048 C 
HETATM    7  C   LIG     1       1.278  -0.003   2.210  1.00  0.00     0.009 C 
HETATM    8  C   LIG     1       0.384  -0.286   1.010  1.00  0.00     0.005 C 
HETATM    9  C   LIG     1      -1.128   0.077   1.043  1.00  0.00     0.020 C 
HETATM   10  C   LIG     1      -1.551   1.337   1.757  1.00  0.00     0.003 C 
HETATM   11  C   LIG     1      -2.851   1.672   1.720  1.00  0.00     0.038 C 
HETATM   12 CL   LIG     1      -3.408   3.103   2.575  1.00  0.00    -0.084 Cl
HETATM   13  C   LIG     1      -1.740   0.145  -0.384  1.00  0.00     0.010 C 
HETATM   14  C   LIG     1      -3.309   0.055  -0.305  1.00  0.00     0.007 C 
HETATM   15  C   LIG     1      -3.821  -1.381  -0.299  1.00  0.00    -0.008 C 
HETATM   16  C   LIG     1      -5.008  -1.681   0.240  1.00  0.00     0.052 C 
HETATM   17  C   LIG     1      -3.928   0.758  -1.535  1.00  0.00     0.025 C 
HETATM   18  C   LIG     1      -3.799   0.804   0.961  1.00  0.00    -0.021 C 
HETATM   19  C   LIG     1      -5.006   0.529   1.482  1.00  0.00     0.064 C 
HETATM   20  C   LIG     1      -5.724  -0.678   1.045  1.00  0.00     0.172 C 
HETATM   21  O   LIG     1      -6.902  -0.895   1.433  1.00  0.00    -0.289 OA
ENDROOT
BRANCH   5  22
HETATM   22  C   LIG     1       2.837  -1.790  -0.252  1.00  0.00     0.158 C 
HETATM   23  C   LIG     1       3.499  -2.204  -1.539  1.00  0.00     0.094 C 
HETATM   24  O   LIG     1       2.463  -2.673   0.507  1.00  0.00    -0.295 OA
ENDBRANCH   5  22
BRANCH   5  25
HETATM   25  O   LIG     1       3.589   0.505  -0.559  1.00  0.00    -0.302 OA
BRANCH  25  26
HETATM   26  C   LIG     1       4.974   0.437  -0.348  1.00  0.00     0.256 C 
HETATM   27  C   LIG     1       5.876   1.331  -1.127  1.00  0.00     0.126 C 
HETATM   28  O   LIG     1       5.468  -0.400   0.456  1.00  0.00    -0.266 OA
ENDBRANCH  25  26
ENDBRANCH   5  25
TORSDOF 3
