MODEL 1
REMARK VINA RESULT:      -6.8      0.000      0.000
REMARK  5 active torsions:
REMARK  status: ('A' for Active; 'I' for Inactive)
REMARK    1  A    between atoms: C_3  and  N_4 
REMARK       I    between atoms: N_4  and  C_5 
REMARK    2  A    between atoms: C_5  and  C_6 
REMARK    3  A    between atoms: C_6  and  N_7 
REMARK    4  A    between atoms: N_7  and  C_8 
REMARK    5  A    between atoms: N_7  and  C_10 
ROOT
HETATM    1  N   LIG     1      17.068  35.458  21.297  1.00  0.00    -0.325 N 
HETATM    2  C   LIG     1      15.682  35.183  21.051  1.00  0.00     0.250 C 
HETATM    3  O   LIG     1      14.831  36.111  21.113  1.00  0.00    -0.271 OA
HETATM    4  H   LIG     1      17.727  34.659  21.436  1.00  0.00     0.169 HD
ENDROOT
BRANCH   1   5
HETATM    5  C   LIG     1      17.556  36.792  21.505  1.00  0.00     0.046 A 
HETATM    6  C   LIG     1      17.404  37.404  22.769  1.00  0.00    -0.035 A 
HETATM    7  C   LIG     1      16.721  36.679  23.897  1.00  0.00     0.050 C 
HETATM    8  C   LIG     1      17.868  38.714  22.967  1.00  0.00     0.009 A 
HETATM    9  C   LIG     1      18.481  39.411  21.927  1.00  0.00     0.001 A 
HETATM   10  C   LIG     1      18.649  38.806  20.681  1.00  0.00     0.009 A 
HETATM   11  C   LIG     1      18.210  37.491  20.462  1.00  0.00    -0.035 A 
HETATM   12  C   LIG     1      18.431  36.862  19.115  1.00  0.00     0.050 C 
ENDBRANCH   1   5
BRANCH   2  13
HETATM   13  C   LIG     1      15.233  33.779  20.728  1.00  0.00     0.374 C 
BRANCH  13  14
HETATM   14  N   LIG     1      15.559  33.356  19.343  1.00  0.00     0.096 N 
BRANCH  14  15
HETATM   15  C   LIG     1      15.322  34.434  18.357  1.00  0.00     0.268 C 
HETATM   16  C   LIG     1      14.997  33.840  16.989  1.00  0.00     0.037 C 
ENDBRANCH  14  15
BRANCH  14  17
HETATM   17  C   LIG     1      14.901  32.087  18.952  1.00  0.00     0.268 C 
HETATM   18  C   LIG     1      14.856  31.111  20.124  1.00  0.00     0.037 C 
ENDBRANCH  14  17
ENDBRANCH  13  14
ENDBRANCH   2  13
TORSDOF 5
ENDMDL
MODEL 2
REMARK VINA RESULT:      -6.8      5.825      8.964
REMARK  5 active torsions:
REMARK  status: ('A' for Active; 'I' for Inactive)
REMARK    1  A    between atoms: C_3  and  N_4 
REMARK       I    between atoms: N_4  and  C_5 
REMARK    2  A    between atoms: C_5  and  C_6 
REMARK    3  A    between atoms: C_6  and  N_7 
REMARK    4  A    between atoms: N_7  and  C_8 
REMARK    5  A    between atoms: N_7  and  C_10 
ROOT
HETATM    1  N   LIG     1      16.784  32.223  15.084  1.00  0.00    -0.325 N 
HETATM    2  C   LIG     1      17.039  32.967  13.885  1.00  0.00     0.250 C 
HETATM    3  O   LIG     1      16.104  33.197  13.071  1.00  0.00    -0.271 OA
HETATM    4  H   LIG     1      17.593  31.874  15.646  1.00  0.00     0.169 HD
ENDROOT
BRANCH   1   5
HETATM    5  C   LIG     1      15.460  31.815  15.462  1.00  0.00     0.046 A 
HETATM    6  C   LIG     1      14.741  32.568  16.415  1.00  0.00    -0.035 A 
HETATM    7  C   LIG     1      15.352  33.786  17.054  1.00  0.00     0.050 C 
HETATM    8  C   LIG     1      13.452  32.160  16.795  1.00  0.00     0.009 A 
HETATM    9  C   LIG     1      12.879  31.020  16.232  1.00  0.00     0.001 A 
HETATM   10  C   LIG     1      13.578  30.282  15.278  1.00  0.00     0.009 A 
HETATM   11  C   LIG     1      14.859  30.679  14.868  1.00  0.00    -0.035 A 
HETATM   12  C   LIG     1      15.573  29.874  13.817  1.00  0.00     0.050 C 
ENDBRANCH   1   5
BRANCH   2  13
HETATM   13  C   LIG     1      18.429  33.470  13.584  1.00  0.00     0.374 C 
BRANCH  13  14
HETATM   14  N   LIG     1      18.751  33.494  12.135  1.00  0.00     0.096 N 
BRANCH  14  15
HETATM   15  C   LIG     1      20.134  33.044  11.861  1.00  0.00     0.268 C 
HETATM   16  C   LIG     1      21.129  33.851  12.692  1.00  0.00     0.037 C 
ENDBRANCH  14  15
BRANCH  14  17
HETATM   17  C   LIG     1      18.450  34.794  11.493  1.00  0.00     0.268 C 
HETATM   18  C   LIG     1      18.879  34.792  10.028  1.00  0.00     0.037 C 
ENDBRANCH  14  17
ENDBRANCH  13  14
ENDBRANCH   2  13
TORSDOF 5
ENDMDL
MODEL 3
REMARK VINA RESULT:      -6.8      0.044      2.105
REMARK  5 active torsions:
REMARK  status: ('A' for Active; 'I' for Inactive)
REMARK    1  A    between atoms: C_3  and  N_4 
REMARK       I    between atoms: N_4  and  C_5 
REMARK    2  A    between atoms: C_5  and  C_6 
REMARK    3  A    between atoms: C_6  and  N_7 
REMARK    4  A    between atoms: N_7  and  C_8 
REMARK    5  A    between atoms: N_7  and  C_10 
ROOT
HETATM    1  N   LIG     1      17.052  35.447  21.321  1.00  0.00    -0.325 N 
HETATM    2  C   LIG     1      15.667  35.176  21.064  1.00  0.00     0.250 C 
HETATM    3  O   LIG     1      14.818  36.107  21.119  1.00  0.00    -0.271 OA
HETATM    4  H   LIG     1      17.707  34.646  21.465  1.00  0.00     0.169 HD
ENDROOT
BRANCH   1   5
HETATM    5  C   LIG     1      17.542  36.780  21.533  1.00  0.00     0.046 A 
HETATM    6  C   LIG     1      18.187  37.465  20.480  1.00  0.00    -0.035 A 
HETATM    7  C   LIG     1      18.383  36.807  19.140  1.00  0.00     0.050 C 
HETATM    8  C   LIG     1      18.678  38.762  20.693  1.00  0.00     0.009 A 
HETATM    9  C   LIG     1      18.528  39.379  21.934  1.00  0.00     0.001 A 
HETATM   10  C   LIG     1      17.877  38.714  22.973  1.00  0.00     0.009 A 
HETATM   11  C   LIG     1      17.361  37.424  22.781  1.00  0.00    -0.035 A 
HETATM   12  C   LIG     1      16.641  36.748  23.915  1.00  0.00     0.050 C 
ENDBRANCH   1   5
BRANCH   2  13
HETATM   13  C   LIG     1      15.216  33.774  20.738  1.00  0.00     0.374 C 
BRANCH  13  14
HETATM   14  N   LIG     1      15.556  33.347  19.358  1.00  0.00     0.096 N 
BRANCH  14  15
HETATM   15  C   LIG     1      15.328  34.422  18.367  1.00  0.00     0.268 C 
HETATM   16  C   LIG     1      14.988  33.825  17.004  1.00  0.00     0.037 C 
ENDBRANCH  14  15
BRANCH  14  17
HETATM   17  C   LIG     1      14.903  32.077  18.963  1.00  0.00     0.268 C 
HETATM   18  C   LIG     1      14.856  31.100  20.135  1.00  0.00     0.037 C 
ENDBRANCH  14  17
ENDBRANCH  13  14
ENDBRANCH   2  13
TORSDOF 5
ENDMDL
MODEL 4
REMARK VINA RESULT:      -6.7      5.807      9.090
REMARK  5 active torsions:
REMARK  status: ('A' for Active; 'I' for Inactive)
REMARK    1  A    between atoms: C_3  and  N_4 
REMARK       I    between atoms: N_4  and  C_5 
REMARK    2  A    between atoms: C_5  and  C_6 
REMARK    3  A    between atoms: C_6  and  N_7 
REMARK    4  A    between atoms: N_7  and  C_8 
REMARK    5  A    between atoms: N_7  and  C_10 
ROOT
HETATM    1  N   LIG     1      16.763  32.204  15.112  1.00  0.00    -0.325 N 
HETATM    2  C   LIG     1      17.022  32.944  13.910  1.00  0.00     0.250 C 
HETATM    3  O   LIG     1      16.086  33.182  13.100  1.00  0.00    -0.271 OA
HETATM    4  H   LIG     1      17.571  31.847  15.671  1.00  0.00     0.169 HD
ENDROOT
BRANCH   1   5
HETATM    5  C   LIG     1      15.437  31.810  15.495  1.00  0.00     0.046 A 
HETATM    6  C   LIG     1      14.859  30.653  14.928  1.00  0.00    -0.035 A 
HETATM    7  C   LIG     1      15.611  29.836  13.913  1.00  0.00     0.050 C 
HETATM    8  C   LIG     1      13.556  30.277  15.293  1.00  0.00     0.009 A 
HETATM    9  C   LIG     1      12.834  31.035  16.214  1.00  0.00     0.001 A 
HETATM   10  C   LIG     1      13.406  32.170  16.789  1.00  0.00     0.009 A 
HETATM   11  C   LIG     1      14.713  32.557  16.456  1.00  0.00    -0.035 A 
HETATM   12  C   LIG     1      15.307  33.770  17.116  1.00  0.00     0.050 C 
ENDBRANCH   1   5
BRANCH   2  13
HETATM   13  C   LIG     1      18.416  33.432  13.604  1.00  0.00     0.374 C 
BRANCH  13  14
HETATM   14  N   LIG     1      18.723  33.479  12.153  1.00  0.00     0.096 N 
BRANCH  14  15
HETATM   15  C   LIG     1      20.106  33.044  11.858  1.00  0.00     0.268 C 
HETATM   16  C   LIG     1      21.102  33.829  12.708  1.00  0.00     0.037 C 
ENDBRANCH  14  15
BRANCH  14  17
HETATM   17  C   LIG     1      18.405  34.786  11.532  1.00  0.00     0.268 C 
HETATM   18  C   LIG     1      18.861  34.825  10.076  1.00  0.00     0.037 C 
ENDBRANCH  14  17
ENDBRANCH  13  14
ENDBRANCH   2  13
TORSDOF 5
ENDMDL
MODEL 5
REMARK VINA RESULT:      -6.4      2.770      7.178
REMARK  5 active torsions:
REMARK  status: ('A' for Active; 'I' for Inactive)
REMARK    1  A    between atoms: C_3  and  N_4 
REMARK       I    between atoms: N_4  and  C_5 
REMARK    2  A    between atoms: C_5  and  C_6 
REMARK    3  A    between atoms: C_6  and  N_7 
REMARK    4  A    between atoms: N_7  and  C_8 
REMARK    5  A    between atoms: N_7  and  C_10 
ROOT
HETATM    1  N   LIG     1      15.819  32.860  17.126  1.00  0.00    -0.325 N 
HETATM    2  C   LIG     1      15.147  34.088  17.439  1.00  0.00     0.250 C 
HETATM    3  O   LIG     1      14.418  34.648  16.576  1.00  0.00    -0.271 OA
HETATM    4  H   LIG     1      16.566  32.513  17.770  1.00  0.00     0.169 HD
ENDROOT
BRANCH   1   5
HETATM    5  C   LIG     1      15.607  32.168  15.887  1.00  0.00     0.046 A 
HETATM    6  C   LIG     1      14.562  31.224  15.781  1.00  0.00    -0.035 A 
HETATM    7  C   LIG     1      13.678  30.921  16.960  1.00  0.00     0.050 C 
HETATM    8  C   LIG     1      14.366  30.537  14.573  1.00  0.00     0.009 A 
HETATM    9  C   LIG     1      15.191  30.786  13.477  1.00  0.00     0.001 A 
HETATM   10  C   LIG     1      16.214  31.729  13.570  1.00  0.00     0.009 A 
HETATM   11  C   LIG     1      16.421  32.442  14.760  1.00  0.00    -0.035 A 
HETATM   12  C   LIG     1      17.516  33.471  14.816  1.00  0.00     0.050 C 
ENDBRANCH   1   5
BRANCH   2  13
HETATM   13  C   LIG     1      15.316  34.721  18.797  1.00  0.00     0.374 C 
BRANCH  13  14
HETATM   14  N   LIG     1      15.779  33.773  19.841  1.00  0.00     0.096 N 
BRANCH  14  15
HETATM   15  C   LIG     1      14.787  32.708  20.111  1.00  0.00     0.268 C 
HETATM   16  C   LIG     1      15.459  31.338  20.087  1.00  0.00     0.037 C 
ENDBRANCH  14  15
BRANCH  14  17
HETATM   17  C   LIG     1      16.227  34.446  21.082  1.00  0.00     0.268 C 
HETATM   18  C   LIG     1      16.968  35.742  20.764  1.00  0.00     0.037 C 
ENDBRANCH  14  17
ENDBRANCH  13  14
ENDBRANCH   2  13
TORSDOF 5
ENDMDL
MODEL 6
REMARK VINA RESULT:      -6.3      2.949      7.313
REMARK  5 active torsions:
REMARK  status: ('A' for Active; 'I' for Inactive)
REMARK    1  A    between atoms: C_3  and  N_4 
REMARK       I    between atoms: N_4  and  C_5 
REMARK    2  A    between atoms: C_5  and  C_6 
REMARK    3  A    between atoms: C_6  and  N_7 
REMARK    4  A    between atoms: N_7  and  C_8 
REMARK    5  A    between atoms: N_7  and  C_10 
ROOT
HETATM    1  N   LIG     1      15.927  32.803  17.075  1.00  0.00    -0.325 N 
HETATM    2  C   LIG     1      15.286  34.038  17.426  1.00  0.00     0.250 C 
HETATM    3  O   LIG     1      14.527  34.615  16.601  1.00  0.00    -0.271 OA
HETATM    4  H   LIG     1      16.696  32.441  17.682  1.00  0.00     0.169 HD
ENDROOT
BRANCH   1   5
HETATM    5  C   LIG     1      15.649  32.123  15.842  1.00  0.00     0.046 A 
HETATM    6  C   LIG     1      16.470  32.352  14.716  1.00  0.00    -0.035 A 
HETATM    7  C   LIG     1      17.624  33.315  14.789  1.00  0.00     0.050 C 
HETATM    8  C   LIG     1      16.188  31.698  13.506  1.00  0.00     0.009 A 
HETATM    9  C   LIG     1      15.109  30.821  13.413  1.00  0.00     0.001 A 
HETATM   10  C   LIG     1      14.304  30.578  14.526  1.00  0.00     0.009 A 
HETATM   11  C   LIG     1      14.574  31.205  15.751  1.00  0.00    -0.035 A 
HETATM   12  C   LIG     1      13.702  30.900  16.938  1.00  0.00     0.050 C 
ENDBRANCH   1   5
BRANCH   2  13
HETATM   13  C   LIG     1      15.525  34.660  18.780  1.00  0.00     0.374 C 
BRANCH  13  14
HETATM   14  N   LIG     1      15.071  33.812  19.910  1.00  0.00     0.096 N 
BRANCH  14  15
HETATM   15  C   LIG     1      15.086  34.540  21.198  1.00  0.00     0.268 C 
HETATM   16  C   LIG     1      16.521  34.837  21.624  1.00  0.00     0.037 C 
ENDBRANCH  14  15
BRANCH  14  17
HETATM   17  C   LIG     1      15.788  32.518  19.992  1.00  0.00     0.268 C 
HETATM   18  C   LIG     1      14.808  31.361  20.171  1.00  0.00     0.037 C 
ENDBRANCH  14  17
ENDBRANCH  13  14
ENDBRANCH   2  13
TORSDOF 5
ENDMDL
MODEL 7
REMARK VINA RESULT:      -6.2      0.930      2.276
REMARK  5 active torsions:
REMARK  status: ('A' for Active; 'I' for Inactive)
REMARK    1  A    between atoms: C_3  and  N_4 
REMARK       I    between atoms: N_4  and  C_5 
REMARK    2  A    between atoms: C_5  and  C_6 
REMARK    3  A    between atoms: C_6  and  N_7 
REMARK    4  A    between atoms: N_7  and  C_8 
REMARK    5  A    between atoms: N_7  and  C_10 
ROOT
HETATM    1  N   LIG     1      17.262  35.076  22.022  1.00  0.00    -0.325 N 
HETATM    2  C   LIG     1      16.056  34.650  21.373  1.00  0.00     0.250 C 
HETATM    3  O   LIG     1      14.976  35.268  21.574  1.00  0.00    -0.271 OA
HETATM    4  H   LIG     1      18.097  34.448  22.004  1.00  0.00     0.169 HD
ENDROOT
BRANCH   1   5
HETATM    5  C   LIG     1      17.319  36.268  22.821  1.00  0.00     0.046 A 
HETATM    6  C   LIG     1      17.179  36.178  24.223  1.00  0.00    -0.035 A 
HETATM    7  C   LIG     1      16.955  34.848  24.890  1.00  0.00     0.050 C 
HETATM    8  C   LIG     1      17.220  37.345  25.002  1.00  0.00     0.009 A 
HETATM    9  C   LIG     1      17.403  38.589  24.400  1.00  0.00     0.001 A 
HETATM   10  C   LIG     1      17.558  38.683  23.017  1.00  0.00     0.009 A 
HETATM   11  C   LIG     1      17.539  37.530  22.218  1.00  0.00    -0.035 A 
HETATM   12  C   LIG     1      17.736  37.665  20.733  1.00  0.00     0.050 C 
ENDBRANCH   1   5
BRANCH   2  13
HETATM   13  C   LIG     1      16.070  33.454  20.454  1.00  0.00     0.374 C 
BRANCH  13  14
HETATM   14  N   LIG     1      15.064  33.529  19.365  1.00  0.00     0.096 N 
BRANCH  14  15
HETATM   15  C   LIG     1      14.702  32.193  18.843  1.00  0.00     0.268 C 
HETATM   16  C   LIG     1      14.868  31.135  19.931  1.00  0.00     0.037 C 
ENDBRANCH  14  15
BRANCH  14  17
HETATM   17  C   LIG     1      15.447  34.466  18.283  1.00  0.00     0.268 C 
HETATM   18  C   LIG     1      15.020  33.929  16.920  1.00  0.00     0.037 C 
ENDBRANCH  14  17
ENDBRANCH  13  14
ENDBRANCH   2  13
TORSDOF 5
ENDMDL
MODEL 8
REMARK VINA RESULT:      -6.1      1.004      3.047
REMARK  5 active torsions:
REMARK  status: ('A' for Active; 'I' for Inactive)
REMARK    1  A    between atoms: C_3  and  N_4 
REMARK       I    between atoms: N_4  and  C_5 
REMARK    2  A    between atoms: C_5  and  C_6 
REMARK    3  A    between atoms: C_6  and  N_7 
REMARK    4  A    between atoms: N_7  and  C_8 
REMARK    5  A    between atoms: N_7  and  C_10 
ROOT
HETATM    1  N   LIG     1      17.271  35.085  22.211  1.00  0.00    -0.325 N 
HETATM    2  C   LIG     1      16.081  34.700  21.508  1.00  0.00     0.250 C 
HETATM    3  O   LIG     1      15.011  35.346  21.674  1.00  0.00    -0.271 OA
HETATM    4  H   LIG     1      18.088  34.434  22.219  1.00  0.00     0.169 HD
ENDROOT
BRANCH   1   5
HETATM    5  C   LIG     1      17.328  36.265  23.027  1.00  0.00     0.046 A 
HETATM    6  C   LIG     1      17.487  37.529  22.420  1.00  0.00    -0.035 A 
HETATM    7  C   LIG     1      17.616  37.654  20.926  1.00  0.00     0.050 C 
HETATM    8  C   LIG     1      17.557  38.680  23.220  1.00  0.00     0.009 A 
HETATM    9  C   LIG     1      17.464  38.583  24.608  1.00  0.00     0.001 A 
HETATM   10  C   LIG     1      17.290  37.338  25.213  1.00  0.00     0.009 A 
HETATM   11  C   LIG     1      17.199  36.174  24.435  1.00  0.00    -0.035 A 
HETATM   12  C   LIG     1      16.984  34.852  25.119  1.00  0.00     0.050 C 
ENDBRANCH   1   5
BRANCH   2  13
HETATM   13  C   LIG     1      16.100  33.515  20.575  1.00  0.00     0.374 C 
BRANCH  13  14
HETATM   14  N   LIG     1      15.120  33.618  19.465  1.00  0.00     0.096 N 
BRANCH  14  15
HETATM   15  C   LIG     1      14.784  32.296  18.890  1.00  0.00     0.268 C 
HETATM   16  C   LIG     1      14.875  31.212  19.961  1.00  0.00     0.037 C 
ENDBRANCH  14  15
BRANCH  14  17
HETATM   17  C   LIG     1      15.519  34.594  18.425  1.00  0.00     0.268 C 
HETATM   18  C   LIG     1      15.108  34.111  17.036  1.00  0.00     0.037 C 
ENDBRANCH  14  17
ENDBRANCH  13  14
ENDBRANCH   2  13
TORSDOF 5
ENDMDL
MODEL 9
REMARK VINA RESULT:      -5.3      3.824      5.835
REMARK  5 active torsions:
REMARK  status: ('A' for Active; 'I' for Inactive)
REMARK    1  A    between atoms: C_3  and  N_4 
REMARK       I    between atoms: N_4  and  C_5 
REMARK    2  A    between atoms: C_5  and  C_6 
REMARK    3  A    between atoms: C_6  and  N_7 
REMARK    4  A    between atoms: N_7  and  C_8 
REMARK    5  A    between atoms: N_7  and  C_10 
ROOT
HETATM    1  N   LIG     1      15.054  31.695  17.304  1.00  0.00    -0.325 N 
HETATM    2  C   LIG     1      13.808  31.430  16.644  1.00  0.00     0.250 C 
HETATM    3  O   LIG     1      12.754  32.008  17.024  1.00  0.00    -0.271 OA
HETATM    4  H   LIG     1      15.871  31.072  17.113  1.00  0.00     0.169 HD
ENDROOT
BRANCH   1   5
HETATM    5  C   LIG     1      15.178  32.693  18.328  1.00  0.00     0.046 A 
HETATM    6  C   LIG     1      15.111  32.315  19.686  1.00  0.00    -0.035 A 
HETATM    7  C   LIG     1      14.894  30.878  20.075  1.00  0.00     0.050 C 
HETATM    8  C   LIG     1      15.217  33.295  20.686  1.00  0.00     0.009 A 
HETATM    9  C   LIG     1      15.394  34.635  20.345  1.00  0.00     0.001 A 
HETATM   10  C   LIG     1      15.478  35.013  19.005  1.00  0.00     0.009 A 
HETATM   11  C   LIG     1      15.393  34.051  17.987  1.00  0.00    -0.035 A 
HETATM   12  C   LIG     1      15.513  34.490  16.554  1.00  0.00     0.050 C 
ENDBRANCH   1   5
BRANCH   2  13
HETATM   13  C   LIG     1      13.749  30.450  15.498  1.00  0.00     0.374 C 
BRANCH  13  14
HETATM   14  N   LIG     1      15.036  30.309  14.771  1.00  0.00     0.096 N 
BRANCH  14  15
HETATM   15  C   LIG     1      15.261  31.414  13.813  1.00  0.00     0.268 C 
HETATM   16  C   LIG     1      16.567  32.137  14.134  1.00  0.00     0.037 C 
ENDBRANCH  14  15
BRANCH  14  17
HETATM   17  C   LIG     1      15.205  28.980  14.140  1.00  0.00     0.268 C 
HETATM   18  C   LIG     1      13.855  28.301  13.925  1.00  0.00     0.037 C 
ENDBRANCH  14  17
ENDBRANCH  13  14
ENDBRANCH   2  13
TORSDOF 5
ENDMDL
MODEL 10
REMARK VINA RESULT:      -5.3      3.786      6.116
REMARK  5 active torsions:
REMARK  status: ('A' for Active; 'I' for Inactive)
REMARK    1  A    between atoms: C_3  and  N_4 
REMARK       I    between atoms: N_4  and  C_5 
REMARK    2  A    between atoms: C_5  and  C_6 
REMARK    3  A    between atoms: C_6  and  N_7 
REMARK    4  A    between atoms: N_7  and  C_8 
REMARK    5  A    between atoms: N_7  and  C_10 
ROOT
HETATM    1  N   LIG     1      14.909  31.627  17.413  1.00  0.00    -0.325 N 
HETATM    2  C   LIG     1      13.641  31.440  16.767  1.00  0.00     0.250 C 
HETATM    3  O   LIG     1      12.637  32.105  17.139  1.00  0.00    -0.271 OA
HETATM    4  H   LIG     1      15.676  30.941  17.233  1.00  0.00     0.169 HD
ENDROOT
BRANCH   1   5
HETATM    5  C   LIG     1      15.115  32.639  18.410  1.00  0.00     0.046 A 
HETATM    6  C   LIG     1      15.319  33.979  18.017  1.00  0.00    -0.035 A 
HETATM    7  C   LIG     1      15.339  34.359  16.561  1.00  0.00     0.050 C 
HETATM    8  C   LIG     1      15.535  34.965  18.993  1.00  0.00     0.009 A 
HETATM    9  C   LIG     1      15.544  34.628  20.346  1.00  0.00     0.001 A 
HETATM   10  C   LIG     1      15.327  33.309  20.742  1.00  0.00     0.009 A 
HETATM   11  C   LIG     1      15.091  32.308  19.787  1.00  0.00    -0.035 A 
HETATM   12  C   LIG     1      14.834  30.901  20.251  1.00  0.00     0.050 C 
ENDBRANCH   1   5
BRANCH   2  13
HETATM   13  C   LIG     1      13.500  30.440  15.647  1.00  0.00     0.374 C 
BRANCH  13  14
HETATM   14  N   LIG     1      14.774  30.157  14.940  1.00  0.00     0.096 N 
BRANCH  14  15
HETATM   15  C   LIG     1      15.543  31.390  14.657  1.00  0.00     0.268 C 
HETATM   16  C   LIG     1      15.825  31.509  13.161  1.00  0.00     0.037 C 
ENDBRANCH  14  15
BRANCH  14  17
HETATM   17  C   LIG     1      14.596  29.321  13.730  1.00  0.00     0.268 C 
HETATM   18  C   LIG     1      15.392  28.023  13.841  1.00  0.00     0.037 C 
ENDBRANCH  14  17
ENDBRANCH  13  14
ENDBRANCH   2  13
TORSDOF 5
ENDMDL
MODEL 11
REMARK VINA RESULT:      -5.2      1.184      6.382
REMARK  5 active torsions:
REMARK  status: ('A' for Active; 'I' for Inactive)
REMARK    1  A    between atoms: C_3  and  N_4 
REMARK       I    between atoms: N_4  and  C_5 
REMARK    2  A    between atoms: C_5  and  C_6 
REMARK    3  A    between atoms: C_6  and  N_7 
REMARK    4  A    between atoms: N_7  and  C_8 
REMARK    5  A    between atoms: N_7  and  C_10 
ROOT
HETATM    1  N   LIG     1      16.161  33.486  19.847  1.00  0.00    -0.325 N 
HETATM    2  C   LIG     1      15.651  34.264  20.940  1.00  0.00     0.250 C 
HETATM    3  O   LIG     1      14.419  34.518  21.015  1.00  0.00    -0.271 OA
HETATM    4  H   LIG     1      17.193  33.449  19.690  1.00  0.00     0.169 HD
ENDROOT
BRANCH   1   5
HETATM    5  C   LIG     1      15.297  32.877  18.876  1.00  0.00     0.046 A 
HETATM    6  C   LIG     1      15.067  33.522  17.641  1.00  0.00    -0.035 A 
HETATM    7  C   LIG     1      15.703  34.852  17.338  1.00  0.00     0.050 C 
HETATM    8  C   LIG     1      14.210  32.933  16.698  1.00  0.00     0.009 A 
HETATM    9  C   LIG     1      13.592  31.713  16.971  1.00  0.00     0.001 A 
HETATM   10  C   LIG     1      13.829  31.062  18.182  1.00  0.00     0.009 A 
HETATM   11  C   LIG     1      14.695  31.621  19.134  1.00  0.00    -0.035 A 
HETATM   12  C   LIG     1      14.948  30.879  20.417  1.00  0.00     0.050 C 
ENDBRANCH   1   5
BRANCH   2  13
HETATM   13  C   LIG     1      16.588  34.792  21.998  1.00  0.00     0.374 C 
BRANCH  13  14
HETATM   14  N   LIG     1      16.618  36.274  22.078  1.00  0.00     0.096 N 
BRANCH  14  15
HETATM   15  C   LIG     1      17.556  36.869  21.100  1.00  0.00     0.268 C 
HETATM   16  C   LIG     1      17.894  38.304  21.495  1.00  0.00     0.037 C 
ENDBRANCH  14  15
BRANCH  14  17
HETATM   17  C   LIG     1      16.849  36.778  23.452  1.00  0.00     0.268 C 
HETATM   18  C   LIG     1      17.235  35.641  24.393  1.00  0.00     0.037 C 
ENDBRANCH  14  17
ENDBRANCH  13  14
ENDBRANCH   2  13
TORSDOF 5
ENDMDL
MODEL 12
REMARK VINA RESULT:      -5.2      1.197      6.157
REMARK  5 active torsions:
REMARK  status: ('A' for Active; 'I' for Inactive)
REMARK    1  A    between atoms: C_3  and  N_4 
REMARK       I    between atoms: N_4  and  C_5 
REMARK    2  A    between atoms: C_5  and  C_6 
REMARK    3  A    between atoms: C_6  and  N_7 
REMARK    4  A    between atoms: N_7  and  C_8 
REMARK    5  A    between atoms: N_7  and  C_10 
ROOT
HETATM    1  N   LIG     1      16.195  33.404  19.870  1.00  0.00    -0.325 N 
HETATM    2  C   LIG     1      15.719  34.270  20.909  1.00  0.00     0.250 C 
HETATM    3  O   LIG     1      14.513  34.639  20.923  1.00  0.00    -0.271 OA
HETATM    4  H   LIG     1      17.225  33.266  19.757  1.00  0.00     0.169 HD
ENDROOT
BRANCH   1   5
HETATM    5  C   LIG     1      15.317  32.837  18.886  1.00  0.00     0.046 A 
HETATM    6  C   LIG     1      14.675  31.607  19.147  1.00  0.00    -0.035 A 
HETATM    7  C   LIG     1      14.914  30.872  20.439  1.00  0.00     0.050 C 
HETATM    8  C   LIG     1      13.827  31.046  18.178  1.00  0.00     0.009 A 
HETATM    9  C   LIG     1      13.612  31.699  16.965  1.00  0.00     0.001 A 
HETATM   10  C   LIG     1      14.230  32.923  16.709  1.00  0.00     0.009 A 
HETATM   11  C   LIG     1      15.067  33.513  17.667  1.00  0.00    -0.035 A 
HETATM   12  C   LIG     1      15.696  34.846  17.367  1.00  0.00     0.050 C 
ENDBRANCH   1   5
BRANCH   2  13
HETATM   13  C   LIG     1      16.659  34.754  21.985  1.00  0.00     0.374 C 
BRANCH  13  14
HETATM   14  N   LIG     1      16.636  36.226  22.176  1.00  0.00     0.096 N 
BRANCH  14  15
HETATM   15  C   LIG     1      17.495  36.931  21.199  1.00  0.00     0.268 C 
HETATM   16  C   LIG     1      17.726  38.374  21.639  1.00  0.00     0.037 C 
ENDBRANCH  14  15
BRANCH  14  17
HETATM   17  C   LIG     1      16.923  36.637  23.570  1.00  0.00     0.268 C 
HETATM   18  C   LIG     1      17.236  35.425  24.443  1.00  0.00     0.037 C 
ENDBRANCH  14  17
ENDBRANCH  13  14
ENDBRANCH   2  13
TORSDOF 5
ENDMDL
MODEL 13
REMARK VINA RESULT:      -4.8      6.236      9.254
REMARK  5 active torsions:
REMARK  status: ('A' for Active; 'I' for Inactive)
REMARK    1  A    between atoms: C_3  and  N_4 
REMARK       I    between atoms: N_4  and  C_5 
REMARK    2  A    between atoms: C_5  and  C_6 
REMARK    3  A    between atoms: C_6  and  N_7 
REMARK    4  A    between atoms: N_7  and  C_8 
REMARK    5  A    between atoms: N_7  and  C_10 
ROOT
HETATM    1  N   LIG     1      16.837  33.318  13.078  1.00  0.00    -0.325 N 
HETATM    2  C   LIG     1      18.261  33.340  12.902  1.00  0.00     0.250 C 
HETATM    3  O   LIG     1      19.020  32.970  13.837  1.00  0.00    -0.271 OA
HETATM    4  H   LIG     1      16.232  33.806  12.380  1.00  0.00     0.169 HD
ENDROOT
BRANCH   1   5
HETATM    5  C   LIG     1      16.223  32.778  14.258  1.00  0.00     0.046 A 
HETATM    6  C   LIG     1      16.226  33.527  15.455  1.00  0.00    -0.035 A 
HETATM    7  C   LIG     1      16.883  34.879  15.514  1.00  0.00     0.050 C 
HETATM    8  C   LIG     1      15.638  32.991  16.611  1.00  0.00     0.009 A 
HETATM    9  C   LIG     1      15.046  31.729  16.583  1.00  0.00     0.001 A 
HETATM   10  C   LIG     1      15.025  30.991  15.399  1.00  0.00     0.009 A 
HETATM   11  C   LIG     1      15.589  31.512  14.225  1.00  0.00    -0.035 A 
HETATM   12  C   LIG     1      15.525  30.701  12.960  1.00  0.00     0.050 C 
ENDBRANCH   1   5
BRANCH   2  13
HETATM   13  C   LIG     1      18.857  33.815  11.600  1.00  0.00     0.374 C 
BRANCH  13  14
HETATM   14  N   LIG     1      20.290  33.462  11.440  1.00  0.00     0.096 N 
BRANCH  14  15
HETATM   15  C   LIG     1      21.180  34.629  11.626  1.00  0.00     0.268 C 
HETATM   16  C   LIG     1      21.945  34.511  12.941  1.00  0.00     0.037 C 
ENDBRANCH  14  15
BRANCH  14  17
HETATM   17  C   LIG     1      20.574  32.739  10.178  1.00  0.00     0.268 C 
HETATM   18  C   LIG     1      21.056  31.318  10.460  1.00  0.00     0.037 C 
ENDBRANCH  14  17
ENDBRANCH  13  14
ENDBRANCH   2  13
TORSDOF 5
ENDMDL
MODEL 14
REMARK VINA RESULT:      -4.7      6.180      9.134
REMARK  5 active torsions:
REMARK  status: ('A' for Active; 'I' for Inactive)
REMARK    1  A    between atoms: C_3  and  N_4 
REMARK       I    between atoms: N_4  and  C_5 
REMARK    2  A    between atoms: C_5  and  C_6 
REMARK    3  A    between atoms: C_6  and  N_7 
REMARK    4  A    between atoms: N_7  and  C_8 
REMARK    5  A    between atoms: N_7  and  C_10 
ROOT
HETATM    1  N   LIG     1      16.648  32.847  13.256  1.00  0.00    -0.325 N 
HETATM    2  C   LIG     1      18.075  32.980  13.186  1.00  0.00     0.250 C 
HETATM    3  O   LIG     1      18.767  32.936  14.239  1.00  0.00    -0.271 OA
HETATM    4  H   LIG     1      16.076  33.078  12.413  1.00  0.00     0.169 HD
ENDROOT
BRANCH   1   5
HETATM    5  C   LIG     1      15.969  32.549  14.485  1.00  0.00     0.046 A 
HETATM    6  C   LIG     1      15.286  31.321  14.628  1.00  0.00    -0.035 A 
HETATM    7  C   LIG     1      15.246  30.327  13.499  1.00  0.00     0.050 C 
HETATM    8  C   LIG     1      14.609  31.038  15.825  1.00  0.00     0.009 A 
HETATM    9  C   LIG     1      14.614  31.958  16.873  1.00  0.00     0.001 A 
HETATM   10  C   LIG     1      15.300  33.165  16.744  1.00  0.00     0.009 A 
HETATM   11  C   LIG     1      15.999  33.464  15.565  1.00  0.00    -0.035 A 
HETATM   12  C   LIG     1      16.751  34.763  15.470  1.00  0.00     0.050 C 
ENDBRANCH   1   5
BRANCH   2  13
HETATM   13  C   LIG     1      18.754  33.183  11.854  1.00  0.00     0.374 C 
BRANCH  13  14
HETATM   14  N   LIG     1      19.814  34.222  11.881  1.00  0.00     0.096 N 
BRANCH  14  15
HETATM   15  C   LIG     1      19.704  35.164  10.745  1.00  0.00     0.268 C 
HETATM   16  C   LIG     1      21.035  35.261  10.005  1.00  0.00     0.037 C 
ENDBRANCH  14  15
BRANCH  14  17
HETATM   17  C   LIG     1      21.178  33.660  12.010  1.00  0.00     0.268 C 
HETATM   18  C   LIG     1      21.980  34.410  13.071  1.00  0.00     0.037 C 
ENDBRANCH  14  17
ENDBRANCH  13  14
ENDBRANCH   2  13
TORSDOF 5
ENDMDL
MODEL 15
REMARK VINA RESULT:      -4.7      6.628      9.493
REMARK  5 active torsions:
REMARK  status: ('A' for Active; 'I' for Inactive)
REMARK    1  A    between atoms: C_3  and  N_4 
REMARK       I    between atoms: N_4  and  C_5 
REMARK    2  A    between atoms: C_5  and  C_6 
REMARK    3  A    between atoms: C_6  and  N_7 
REMARK    4  A    between atoms: N_7  and  C_8 
REMARK    5  A    between atoms: N_7  and  C_10 
ROOT
HETATM    1  N   LIG     1      14.787  30.289  13.674  1.00  0.00    -0.325 N 
HETATM    2  C   LIG     1      15.462  29.023  13.672  1.00  0.00     0.250 C 
HETATM    3  O   LIG     1      16.213  28.705  14.633  1.00  0.00    -0.271 OA
HETATM    4  H   LIG     1      14.330  30.621  12.795  1.00  0.00     0.169 HD
ENDROOT
BRANCH   1   5
HETATM    5  C   LIG     1      14.843  31.183  14.796  1.00  0.00     0.046 A 
HETATM    6  C   LIG     1      15.832  32.190  14.841  1.00  0.00    -0.035 A 
HETATM    7  C   LIG     1      16.840  32.327  13.733  1.00  0.00     0.050 C 
HETATM    8  C   LIG     1      15.895  33.053  15.946  1.00  0.00     0.009 A 
HETATM    9  C   LIG     1      14.984  32.925  16.995  1.00  0.00     0.001 A 
HETATM   10  C   LIG     1      13.995  31.943  16.948  1.00  0.00     0.009 A 
HETATM   11  C   LIG     1      13.899  31.080  15.847  1.00  0.00    -0.035 A 
HETATM   12  C   LIG     1      12.803  30.050  15.818  1.00  0.00     0.050 C 
ENDBRANCH   1   5
BRANCH   2  13
HETATM   13  C   LIG     1      15.284  28.070  12.517  1.00  0.00     0.374 C 
BRANCH  13  14
HETATM   14  N   LIG     1      14.405  26.915  12.829  1.00  0.00     0.096 N 
BRANCH  14  15
HETATM   15  C   LIG     1      14.099  26.104  11.631  1.00  0.00     0.268 C 
HETATM   16  C   LIG     1      15.274  26.129  10.657  1.00  0.00     0.037 C 
ENDBRANCH  14  15
BRANCH  14  17
HETATM   17  C   LIG     1      13.182  27.299  13.572  1.00  0.00     0.268 C 
HETATM   18  C   LIG     1      11.935  26.727  12.902  1.00  0.00     0.037 C 
ENDBRANCH  14  17
ENDBRANCH  13  14
ENDBRANCH   2  13
TORSDOF 5
ENDMDL
MODEL 16
REMARK VINA RESULT:      -4.6      6.634      9.316
REMARK  5 active torsions:
REMARK  status: ('A' for Active; 'I' for Inactive)
REMARK    1  A    between atoms: C_3  and  N_4 
REMARK       I    between atoms: N_4  and  C_5 
REMARK    2  A    between atoms: C_5  and  C_6 
REMARK    3  A    between atoms: C_6  and  N_7 
REMARK    4  A    between atoms: N_7  and  C_8 
REMARK    5  A    between atoms: N_7  and  C_10 
ROOT
HETATM    1  N   LIG     1      14.742  30.301  13.724  1.00  0.00    -0.325 N 
HETATM    2  C   LIG     1      15.486  29.074  13.709  1.00  0.00     0.250 C 
HETATM    3  O   LIG     1      16.263  28.793  14.660  1.00  0.00    -0.271 OA
HETATM    4  H   LIG     1      14.259  30.612  12.851  1.00  0.00     0.169 HD
ENDROOT
BRANCH   1   5
HETATM    5  C   LIG     1      14.760  31.190  14.851  1.00  0.00     0.046 A 
HETATM    6  C   LIG     1      13.796  31.045  15.873  1.00  0.00    -0.035 A 
HETATM    7  C   LIG     1      12.737  29.980  15.785  1.00  0.00     0.050 C 
HETATM    8  C   LIG     1      13.805  31.925  16.967  1.00  0.00     0.009 A 
HETATM    9  C   LIG     1      14.763  32.934  17.053  1.00  0.00     0.001 A 
HETATM   10  C   LIG     1      15.728  33.071  16.056  1.00  0.00     0.009 A 
HETATM   11  C   LIG     1      15.752  32.195  14.961  1.00  0.00    -0.035 A 
HETATM   12  C   LIG     1      16.823  32.355  13.918  1.00  0.00     0.050 C 
ENDBRANCH   1   5
BRANCH   2  13
HETATM   13  C   LIG     1      15.350  28.119  12.549  1.00  0.00     0.374 C 
BRANCH  13  14
HETATM   14  N   LIG     1      14.482  26.951  12.841  1.00  0.00     0.096 N 
BRANCH  14  15
HETATM   15  C   LIG     1      14.198  26.147  11.632  1.00  0.00     0.268 C 
HETATM   16  C   LIG     1      15.391  26.179  10.680  1.00  0.00     0.037 C 
ENDBRANCH  14  15
BRANCH  14  17
HETATM   17  C   LIG     1      13.246  27.312  13.574  1.00  0.00     0.268 C 
HETATM   18  C   LIG     1      12.013  26.738  12.882  1.00  0.00     0.037 C 
ENDBRANCH  14  17
ENDBRANCH  13  14
ENDBRANCH   2  13
TORSDOF 5
ENDMDL
MODEL 17
REMARK VINA RESULT:      -4.5      6.293      8.877
REMARK  5 active torsions:
REMARK  status: ('A' for Active; 'I' for Inactive)
REMARK    1  A    between atoms: C_3  and  N_4 
REMARK       I    between atoms: N_4  and  C_5 
REMARK    2  A    between atoms: C_5  and  C_6 
REMARK    3  A    between atoms: C_6  and  N_7 
REMARK    4  A    between atoms: N_7  and  C_8 
REMARK    5  A    between atoms: N_7  and  C_10 
ROOT
HETATM    1  N   LIG     1      18.702  33.321  13.103  1.00  0.00    -0.325 N 
HETATM    2  C   LIG     1      17.882  33.917  14.118  1.00  0.00     0.250 C 
HETATM    3  O   LIG     1      17.766  35.171  14.183  1.00  0.00    -0.271 OA
HETATM    4  H   LIG     1      18.946  32.308  13.179  1.00  0.00     0.169 HD
ENDROOT
BRANCH   1   5
HETATM    5  C   LIG     1      19.321  34.099  12.068  1.00  0.00     0.046 A 
HETATM    6  C   LIG     1      18.517  34.801  11.144  1.00  0.00    -0.035 A 
HETATM    7  C   LIG     1      17.016  34.729  11.220  1.00  0.00     0.050 C 
HETATM    8  C   LIG     1      19.124  35.549  10.123  1.00  0.00     0.009 A 
HETATM    9  C   LIG     1      20.513  35.608  10.020  1.00  0.00     0.001 A 
HETATM   10  C   LIG     1      21.313  34.930  10.940  1.00  0.00     0.009 A 
HETATM   11  C   LIG     1      20.732  34.190  11.981  1.00  0.00    -0.035 A 
HETATM   12  C   LIG     1      21.625  33.493  12.970  1.00  0.00     0.050 C 
ENDBRANCH   1   5
BRANCH   2  13
HETATM   13  C   LIG     1      17.163  33.049  15.120  1.00  0.00     0.374 C 
BRANCH  13  14
HETATM   14  N   LIG     1      15.833  32.582  14.654  1.00  0.00     0.096 N 
BRANCH  14  15
HETATM   15  C   LIG     1      15.017  32.023  15.755  1.00  0.00     0.268 C 
HETATM   16  C   LIG     1      15.069  32.941  16.973  1.00  0.00     0.037 C 
ENDBRANCH  14  15
BRANCH  14  17
HETATM   17  C   LIG     1      15.912  31.662  13.495  1.00  0.00     0.268 C 
HETATM   18  C   LIG     1      15.205  30.343  13.796  1.00  0.00     0.037 C 
ENDBRANCH  14  17
ENDBRANCH  13  14
ENDBRANCH   2  13
TORSDOF 5
ENDMDL
MODEL 18
REMARK VINA RESULT:      -4.5     14.837     16.264
REMARK  5 active torsions:
REMARK  status: ('A' for Active; 'I' for Inactive)
REMARK    1  A    between atoms: C_3  and  N_4 
REMARK       I    between atoms: N_4  and  C_5 
REMARK    2  A    between atoms: C_5  and  C_6 
REMARK    3  A    between atoms: C_6  and  N_7 
REMARK    4  A    between atoms: N_7  and  C_8 
REMARK    5  A    between atoms: N_7  and  C_10 
ROOT
HETATM    1  N   LIG     1      26.459  23.016  20.016  1.00  0.00    -0.325 N 
HETATM    2  C   LIG     1      26.795  24.359  19.638  1.00  0.00     0.250 C 
HETATM    3  O   LIG     1      25.929  25.272  19.708  1.00  0.00    -0.271 OA
HETATM    4  H   LIG     1      27.114  22.241  19.771  1.00  0.00     0.169 HD
ENDROOT
BRANCH   1   5
HETATM    5  C   LIG     1      25.185  22.681  20.588  1.00  0.00     0.046 A 
HETATM    6  C   LIG     1      24.109  22.329  19.744  1.00  0.00    -0.035 A 
HETATM    7  C   LIG     1      24.277  22.318  18.248  1.00  0.00     0.050 C 
HETATM    8  C   LIG     1      22.861  22.017  20.303  1.00  0.00     0.009 A 
HETATM    9  C   LIG     1      22.679  22.045  21.686  1.00  0.00     0.001 A 
HETATM   10  C   LIG     1      23.742  22.376  22.526  1.00  0.00     0.009 A 
HETATM   11  C   LIG     1      25.005  22.675  21.993  1.00  0.00    -0.035 A 
HETATM   12  C   LIG     1      26.136  23.001  22.929  1.00  0.00     0.050 C 
ENDBRANCH   1   5
BRANCH   2  13
HETATM   13  C   LIG     1      28.183  24.683  19.145  1.00  0.00     0.374 C 
BRANCH  13  14
HETATM   14  N   LIG     1      28.806  25.837  19.841  1.00  0.00     0.096 N 
BRANCH  14  15
HETATM   15  C   LIG     1      29.654  26.645  18.937  1.00  0.00     0.268 C 
HETATM   16  C   LIG     1      28.804  27.662  18.180  1.00  0.00     0.037 C 
ENDBRANCH  14  15
BRANCH  14  17
HETATM   17  C   LIG     1      29.521  25.452  21.081  1.00  0.00     0.268 C 
HETATM   18  C   LIG     1      28.714  25.838  22.317  1.00  0.00     0.037 C 
ENDBRANCH  14  17
ENDBRANCH  13  14
ENDBRANCH   2  13
TORSDOF 5
ENDMDL
MODEL 19
REMARK VINA RESULT:      -4.4      6.295      8.857
REMARK  5 active torsions:
REMARK  status: ('A' for Active; 'I' for Inactive)
REMARK    1  A    between atoms: C_3  and  N_4 
REMARK       I    between atoms: N_4  and  C_5 
REMARK    2  A    between atoms: C_5  and  C_6 
REMARK    3  A    between atoms: C_6  and  N_7 
REMARK    4  A    between atoms: N_7  and  C_8 
REMARK    5  A    between atoms: N_7  and  C_10 
ROOT
HETATM    1  N   LIG     1      18.704  33.296  13.145  1.00  0.00    -0.325 N 
HETATM    2  C   LIG     1      17.885  33.909  14.150  1.00  0.00     0.250 C 
HETATM    3  O   LIG     1      17.793  35.165  14.213  1.00  0.00    -0.271 OA
HETATM    4  H   LIG     1      18.927  32.278  13.224  1.00  0.00     0.169 HD
ENDROOT
BRANCH   1   5
HETATM    5  C   LIG     1      19.350  34.061  12.116  1.00  0.00     0.046 A 
HETATM    6  C   LIG     1      20.760  34.087  12.043  1.00  0.00    -0.035 A 
HETATM    7  C   LIG     1      21.596  33.335  13.043  1.00  0.00     0.050 C 
HETATM    8  C   LIG     1      21.390  34.848  11.046  1.00  0.00     0.009 A 
HETATM    9  C   LIG     1      20.633  35.570  10.125  1.00  0.00     0.001 A 
HETATM   10  C   LIG     1      19.240  35.535  10.181  1.00  0.00     0.009 A 
HETATM   11  C   LIG     1      18.585  34.769  11.157  1.00  0.00    -0.035 A 
HETATM   12  C   LIG     1      17.082  34.733  11.172  1.00  0.00     0.050 C 
ENDBRANCH   1   5
BRANCH   2  13
HETATM   13  C   LIG     1      17.137  33.056  15.145  1.00  0.00     0.374 C 
BRANCH  13  14
HETATM   14  N   LIG     1      15.821  32.582  14.648  1.00  0.00     0.096 N 
BRANCH  14  15
HETATM   15  C   LIG     1      15.011  31.958  15.718  1.00  0.00     0.268 C 
HETATM   16  C   LIG     1      15.284  32.638  17.057  1.00  0.00     0.037 C 
ENDBRANCH  14  15
BRANCH  14  17
HETATM   17  C   LIG     1      15.927  31.716  13.451  1.00  0.00     0.268 C 
HETATM   18  C   LIG     1      15.225  30.381  13.679  1.00  0.00     0.037 C 
ENDBRANCH  14  17
ENDBRANCH  13  14
ENDBRANCH   2  13
TORSDOF 5
ENDMDL
MODEL 20
REMARK VINA RESULT:      -4.1     14.730     16.625
REMARK  5 active torsions:
REMARK  status: ('A' for Active; 'I' for Inactive)
REMARK    1  A    between atoms: C_3  and  N_4 
REMARK       I    between atoms: N_4  and  C_5 
REMARK    2  A    between atoms: C_5  and  C_6 
REMARK    3  A    between atoms: C_6  and  N_7 
REMARK    4  A    between atoms: N_7  and  C_8 
REMARK    5  A    between atoms: N_7  and  C_10 
ROOT
HETATM    1  N   LIG     1      26.439  23.485  20.209  1.00  0.00    -0.325 N 
HETATM    2  C   LIG     1      26.577  24.870  19.860  1.00  0.00     0.250 C 
HETATM    3  O   LIG     1      25.857  25.370  18.954  1.00  0.00    -0.271 OA
HETATM    4  H   LIG     1      27.166  23.040  20.813  1.00  0.00     0.169 HD
ENDROOT
BRANCH   1   5
HETATM    5  C   LIG     1      25.420  22.652  19.636  1.00  0.00     0.046 A 
HETATM    6  C   LIG     1      25.691  21.924  18.457  1.00  0.00    -0.035 A 
HETATM    7  C   LIG     1      27.033  22.024  17.782  1.00  0.00     0.050 C 
HETATM    8  C   LIG     1      24.689  21.121  17.890  1.00  0.00     0.009 A 
HETATM    9  C   LIG     1      23.432  21.034  18.487  1.00  0.00     0.001 A 
HETATM   10  C   LIG     1      23.163  21.738  19.661  1.00  0.00     0.009 A 
HETATM   11  C   LIG     1      24.153  22.533  20.258  1.00  0.00    -0.035 A 
HETATM   12  C   LIG     1      23.837  23.257  21.537  1.00  0.00     0.050 C 
ENDBRANCH   1   5
BRANCH   2  13
HETATM   13  C   LIG     1      27.591  25.734  20.569  1.00  0.00     0.374 C 
BRANCH  13  14
HETATM   14  N   LIG     1      28.904  25.793  19.880  1.00  0.00     0.096 N 
BRANCH  14  15
HETATM   15  C   LIG     1      28.767  26.083  18.435  1.00  0.00     0.268 C 
HETATM   16  C   LIG     1      28.826  27.588  18.187  1.00  0.00     0.037 C 
ENDBRANCH  14  15
BRANCH  14  17
HETATM   17  C   LIG     1      29.749  24.603  20.133  1.00  0.00     0.268 C 
HETATM   18  C   LIG     1      30.122  23.910  18.825  1.00  0.00     0.037 C 
ENDBRANCH  14  17
ENDBRANCH  13  14
ENDBRANCH   2  13
TORSDOF 5
ENDMDL
