REMARK  3 active torsions:
REMARK  status: ('A' for Active; 'I' for Inactive)
REMARK    1  A    between atoms: C_2  and  C_5 
REMARK    2  A    between atoms: C_2  and  C_3 
REMARK    3  A    between atoms: C_3  and  O_4 
ROOT
HETATM    1  C   LIG     1      -1.121  -0.797   0.699  1.00  0.00     0.012 C 
HETATM    2  C   LIG     1      -0.372  -0.021  -0.397  1.00  0.00     0.005 C 
ENDROOT
BRANCH   2   3
HETATM    3  C   LIG     1       1.131   0.136  -0.068  1.00  0.00     0.002 C 
HETATM    4  C   LIG     1       1.888  -1.192  -0.104  1.00  0.00     0.005 C 
ENDBRANCH   2   3
BRANCH   2   5
HETATM    5  C   LIG     1      -1.024   1.355  -0.635  1.00  0.00     0.168 C 
BRANCH   5   6
HETATM    6  O   LIG     1      -0.906   2.179   0.495  1.00  0.00    -0.400 OA
HETATM    7  H   LIG     1      -1.689   1.988   1.075  1.00  0.00     0.209 HD
ENDBRANCH   5   6
ENDBRANCH   2   5
TORSDOF 3
