REMARK  5 active torsions:
REMARK  status: ('A' for Active; 'I' for Inactive)
REMARK    1  A    between atoms: C_2  and  N_10 
REMARK    2  A    between atoms: C_2  and  S_3 
REMARK    3  A    between atoms: S_3  and  S_4 
REMARK    4  A    between atoms: S_4  and  C_5 
REMARK    5  A    between atoms: C_5  and  N_6 
ROOT
HETATM    1  S   LIG     1      -0.073   1.744  -1.629  1.00  0.00    -0.021 SA
ENDROOT
BRANCH   1   2
HETATM    2  C   LIG     1      -1.689   1.696  -0.846  1.00  0.00     0.147 C 
HETATM    3  S   LIG     1      -2.446   3.122  -0.555  1.00  0.00    -0.052 SA
BRANCH   2   4
HETATM    4  N   LIG     1      -2.339   0.436  -0.570  1.00  0.00    -0.375 N 
HETATM    5  C   LIG     1      -3.414   0.361   0.425  1.00  0.00     0.150 C 
HETATM    6  C   LIG     1      -1.930  -0.767  -1.302  1.00  0.00     0.150 C 
ENDBRANCH   2   4
ENDBRANCH   1   2
BRANCH   1   7
HETATM    7  S   LIG     1       0.949   2.137   0.204  1.00  0.00    -0.021 SA
BRANCH   7   8
HETATM    8  C   LIG     1       1.197   0.397   0.576  1.00  0.00     0.147 C 
HETATM    9  S   LIG     1       0.189  -0.293   1.673  1.00  0.00    -0.052 SA
BRANCH   8  10
HETATM   10  N   LIG     1       2.304  -0.339   0.007  1.00  0.00    -0.375 N 
HETATM   11  C   LIG     1       3.326   0.369  -0.771  1.00  0.00     0.150 C 
HETATM   12  C   LIG     1       2.405  -1.792   0.191  1.00  0.00     0.150 C 
ENDBRANCH   8  10
ENDBRANCH   7   8
ENDBRANCH   1   7
TORSDOF 5
