REMARK  5 active torsions:
REMARK  status: ('A' for Active; 'I' for Inactive)
REMARK    1  A    between atoms: C_3  and  N_4 
REMARK       I    between atoms: N_4  and  C_5 
REMARK    2  A    between atoms: C_5  and  C_6 
REMARK    3  A    between atoms: C_6  and  N_7 
REMARK    4  A    between atoms: N_7  and  C_8 
REMARK    5  A    between atoms: N_7  and  C_10 
ROOT
HETATM    1  N   LIG     1      -0.495   0.959  -0.134  1.00  0.00    -0.325 N 
HETATM    2  C   LIG     1       0.154  -0.024  -0.953  1.00  0.00     0.250 C 
HETATM    3  O   LIG     1      -0.495  -1.012  -1.391  1.00  0.00    -0.271 OA
HETATM    4  H   LIG     1       0.089   1.657   0.379  1.00  0.00     0.169 HD
ENDROOT
BRANCH   1   5
HETATM    5  C   LIG     1      -1.907   0.926   0.123  1.00  0.00     0.046 A 
HETATM    6  C   LIG     1      -2.375   0.679   1.432  1.00  0.00    -0.035 A 
HETATM    7  C   LIG     1      -1.410   0.432   2.560  1.00  0.00     0.050 C 
HETATM    8  C   LIG     1      -3.756   0.632   1.679  1.00  0.00     0.009 A 
HETATM    9  C   LIG     1      -4.666   0.834   0.642  1.00  0.00     0.001 A 
HETATM   10  C   LIG     1      -4.210   1.095  -0.650  1.00  0.00     0.009 A 
HETATM   11  C   LIG     1      -2.835   1.165  -0.920  1.00  0.00    -0.035 A 
HETATM   12  C   LIG     1      -2.379   1.475  -2.319  1.00  0.00     0.050 C 
ENDBRANCH   1   5
BRANCH   2  13
HETATM   13  C   LIG     1       1.619   0.113  -1.286  1.00  0.00     0.374 C 
BRANCH  13  14
HETATM   14  N   LIG     1       2.498  -0.757  -0.465  1.00  0.00     0.096 N 
BRANCH  14  15
HETATM   15  C   LIG     1       2.235  -2.195  -0.694  1.00  0.00     0.268 C 
HETATM   16  C   LIG     1       3.531  -2.995  -0.591  1.00  0.00     0.037 C 
ENDBRANCH  14  15
BRANCH  14  17
HETATM   17  C   LIG     1       2.481  -0.409   0.975  1.00  0.00     0.268 C 
HETATM   18  C   LIG     1       3.354   0.812   1.252  1.00  0.00     0.037 C 
ENDBRANCH  14  17
ENDBRANCH  13  14
ENDBRANCH   2  13
TORSDOF 5
