MODEL 1
REMARK VINA RESULT:      -4.3      0.000      0.000
REMARK  3 active torsions:
REMARK  status: ('A' for Active; 'I' for Inactive)
REMARK    1  A    between atoms: C_2  and  C_5 
REMARK    2  A    between atoms: C_2  and  C_3 
REMARK    3  A    between atoms: C_3  and  O_4 
ROOT
HETATM    1  C   LIG     1      17.185  35.796  24.162  1.00  0.00     0.012 C 
HETATM    2  C   LIG     1      17.932  36.854  24.991  1.00  0.00     0.005 C 
ENDROOT
BRANCH   2   3
HETATM    3  C   LIG     1      18.322  36.321  26.389  1.00  0.00     0.002 C 
HETATM    4  C   LIG     1      18.358  34.793  26.453  1.00  0.00     0.005 C 
ENDBRANCH   2   3
BRANCH   2   5
HETATM    5  C   LIG     1      17.095  38.142  25.114  1.00  0.00     0.168 C 
BRANCH   5   6
HETATM    6  O   LIG     1      15.994  38.122  24.243  1.00  0.00    -0.400 OA
HETATM    7  H   LIG     1      15.178  38.122  24.809  1.00  0.00     0.209 HD
ENDBRANCH   5   6
ENDBRANCH   2   5
TORSDOF 3
ENDMDL
MODEL 2
REMARK VINA RESULT:      -4.2      1.679      2.820
REMARK  3 active torsions:
REMARK  status: ('A' for Active; 'I' for Inactive)
REMARK    1  A    between atoms: C_2  and  C_5 
REMARK    2  A    between atoms: C_2  and  C_3 
REMARK    3  A    between atoms: C_3  and  O_4 
ROOT
HETATM    1  C   LIG     1      18.228  34.843  26.293  1.00  0.00     0.012 C 
HETATM    2  C   LIG     1      17.297  35.665  25.386  1.00  0.00     0.005 C 
ENDROOT
BRANCH   2   3
HETATM    3  C   LIG     1      17.222  35.080  23.956  1.00  0.00     0.002 C 
HETATM    4  C   LIG     1      16.890  36.135  22.900  1.00  0.00     0.005 C 
ENDBRANCH   2   3
BRANCH   2   5
HETATM    5  C   LIG     1      17.735  37.142  25.348  1.00  0.00     0.168 C 
BRANCH   5   6
HETATM    6  O   LIG     1      18.889  37.353  26.118  1.00  0.00    -0.400 OA
HETATM    7  H   LIG     1      19.513  37.891  25.563  1.00  0.00     0.209 HD
ENDBRANCH   5   6
ENDBRANCH   2   5
TORSDOF 3
ENDMDL
MODEL 3
REMARK VINA RESULT:      -4.1      3.072      4.119
REMARK  3 active torsions:
REMARK  status: ('A' for Active; 'I' for Inactive)
REMARK    1  A    between atoms: C_2  and  C_5 
REMARK    2  A    between atoms: C_2  and  C_3 
REMARK    3  A    between atoms: C_3  and  O_4 
ROOT
HETATM    1  C   LIG     1      17.394  36.705  21.319  1.00  0.00     0.012 C 
HETATM    2  C   LIG     1      17.074  38.008  22.071  1.00  0.00     0.005 C 
ENDROOT
BRANCH   2   3
HETATM    3  C   LIG     1      18.303  38.943  22.154  1.00  0.00     0.002 C 
HETATM    4  C   LIG     1      18.836  39.345  20.778  1.00  0.00     0.005 C 
ENDBRANCH   2   3
BRANCH   2   5
HETATM    5  C   LIG     1      16.525  37.704  23.479  1.00  0.00     0.168 C 
BRANCH   5   6
HETATM    6  O   LIG     1      15.178  38.083  23.595  1.00  0.00    -0.400 OA
HETATM    7  H   LIG     1      14.662  37.511  22.968  1.00  0.00     0.209 HD
ENDBRANCH   5   6
ENDBRANCH   2   5
TORSDOF 3
ENDMDL
MODEL 4
REMARK VINA RESULT:      -4.1      5.293      5.967
REMARK  3 active torsions:
REMARK  status: ('A' for Active; 'I' for Inactive)
REMARK    1  A    between atoms: C_2  and  C_5 
REMARK    2  A    between atoms: C_2  and  C_3 
REMARK    3  A    between atoms: C_3  and  O_4 
ROOT
HETATM    1  C   LIG     1      18.376  36.948  20.117  1.00  0.00     0.012 C 
HETATM    2  C   LIG     1      19.198  38.238  20.274  1.00  0.00     0.005 C 
ENDROOT
BRANCH   2   3
HETATM    3  C   LIG     1      18.496  39.261  21.196  1.00  0.00     0.002 C 
HETATM    4  C   LIG     1      17.386  38.634  22.041  1.00  0.00     0.005 C 
ENDBRANCH   2   3
BRANCH   2   5
HETATM    5  C   LIG     1      19.501  38.863  18.898  1.00  0.00     0.168 C 
BRANCH   5   6
HETATM    6  O   LIG     1      20.739  39.525  18.899  1.00  0.00    -0.400 OA
HETATM    7  H   LIG     1      21.321  39.051  18.249  1.00  0.00     0.209 HD
ENDBRANCH   5   6
ENDBRANCH   2   5
TORSDOF 3
ENDMDL
MODEL 5
REMARK VINA RESULT:      -4.0      3.545      4.685
REMARK  3 active torsions:
REMARK  status: ('A' for Active; 'I' for Inactive)
REMARK    1  A    between atoms: C_2  and  C_5 
REMARK    2  A    between atoms: C_2  and  C_3 
REMARK    3  A    between atoms: C_3  and  O_4 
ROOT
HETATM    1  C   LIG     1      16.954  35.151  22.971  1.00  0.00     0.012 C 
HETATM    2  C   LIG     1      16.607  35.266  21.477  1.00  0.00     0.005 C 
ENDROOT
BRANCH   2   3
HETATM    3  C   LIG     1      17.532  36.266  20.746  1.00  0.00     0.002 C 
HETATM    4  C   LIG     1      17.656  37.603  21.476  1.00  0.00     0.005 C 
ENDBRANCH   2   3
BRANCH   2   5
HETATM    5  C   LIG     1      15.128  35.654  21.288  1.00  0.00     0.168 C 
BRANCH   5   6
HETATM    6  O   LIG     1      14.277  34.567  21.545  1.00  0.00    -0.400 OA
HETATM    7  H   LIG     1      13.903  34.281  20.671  1.00  0.00     0.209 HD
ENDBRANCH   5   6
ENDBRANCH   2   5
TORSDOF 3
ENDMDL
MODEL 6
REMARK VINA RESULT:      -4.0      3.212      3.681
REMARK  3 active torsions:
REMARK  status: ('A' for Active; 'I' for Inactive)
REMARK    1  A    between atoms: C_2  and  C_5 
REMARK    2  A    between atoms: C_2  and  C_3 
REMARK    3  A    between atoms: C_3  and  O_4 
ROOT
HETATM    1  C   LIG     1      17.911  38.919  21.480  1.00  0.00     0.012 C 
HETATM    2  C   LIG     1      17.341  37.695  22.215  1.00  0.00     0.005 C 
ENDROOT
BRANCH   2   3
HETATM    3  C   LIG     1      17.271  36.452  21.298  1.00  0.00     0.002 C 
HETATM    4  C   LIG     1      16.955  35.167  22.063  1.00  0.00     0.005 C 
ENDBRANCH   2   3
BRANCH   2   5
HETATM    5  C   LIG     1      15.955  38.011  22.810  1.00  0.00     0.168 C 
BRANCH   5   6
HETATM    6  O   LIG     1      15.985  37.997  24.213  1.00  0.00    -0.400 OA
HETATM    7  H   LIG     1      15.161  38.455  24.524  1.00  0.00     0.209 HD
ENDBRANCH   5   6
ENDBRANCH   2   5
TORSDOF 3
ENDMDL
MODEL 7
REMARK VINA RESULT:      -3.9      4.909      5.719
REMARK  3 active torsions:
REMARK  status: ('A' for Active; 'I' for Inactive)
REMARK    1  A    between atoms: C_2  and  C_5 
REMARK    2  A    between atoms: C_2  and  C_3 
REMARK    3  A    between atoms: C_3  and  O_4 
ROOT
HETATM    1  C   LIG     1      20.225  38.808  19.641  1.00  0.00     0.012 C 
HETATM    2  C   LIG     1      18.822  38.544  20.212  1.00  0.00     0.005 C 
ENDROOT
BRANCH   2   3
HETATM    3  C   LIG     1      18.675  39.083  21.654  1.00  0.00     0.002 C 
HETATM    4  C   LIG     1      17.275  38.867  22.229  1.00  0.00     0.005 C 
ENDBRANCH   2   3
BRANCH   2   5
HETATM    5  C   LIG     1      18.483  37.042  20.155  1.00  0.00     0.168 C 
BRANCH   5   6
HETATM    6  O   LIG     1      18.411  36.584  18.830  1.00  0.00    -0.400 OA
HETATM    7  H   LIG     1      17.449  36.447  18.624  1.00  0.00     0.209 HD
ENDBRANCH   5   6
ENDBRANCH   2   5
TORSDOF 3
ENDMDL
MODEL 8
REMARK VINA RESULT:      -3.8      1.426      1.862
REMARK  3 active torsions:
REMARK  status: ('A' for Active; 'I' for Inactive)
REMARK    1  A    between atoms: C_2  and  C_5 
REMARK    2  A    between atoms: C_2  and  C_3 
REMARK    3  A    between atoms: C_3  and  O_4 
ROOT
HETATM    1  C   LIG     1      17.018  35.551  23.616  1.00  0.00     0.012 C 
HETATM    2  C   LIG     1      17.099  37.085  23.684  1.00  0.00     0.005 C 
ENDROOT
BRANCH   2   3
HETATM    3  C   LIG     1      17.226  37.592  25.140  1.00  0.00     0.002 C 
HETATM    4  C   LIG     1      18.294  36.843  25.938  1.00  0.00     0.005 C 
ENDBRANCH   2   3
BRANCH   2   5
HETATM    5  C   LIG     1      15.884  37.728  22.988  1.00  0.00     0.168 C 
BRANCH   5   6
HETATM    6  O   LIG     1      16.054  39.113  22.838  1.00  0.00    -0.400 OA
HETATM    7  H   LIG     1      16.031  39.507  23.749  1.00  0.00     0.209 HD
ENDBRANCH   5   6
ENDBRANCH   2   5
TORSDOF 3
ENDMDL
MODEL 9
REMARK VINA RESULT:      -3.7      7.997      8.772
REMARK  3 active torsions:
REMARK  status: ('A' for Active; 'I' for Inactive)
REMARK    1  A    between atoms: C_2  and  C_5 
REMARK    2  A    between atoms: C_2  and  C_3 
REMARK    3  A    between atoms: C_3  and  O_4 
ROOT
HETATM    1  C   LIG     1      13.901  31.691  17.257  1.00  0.00     0.012 C 
HETATM    2  C   LIG     1      15.083  32.610  17.607  1.00  0.00     0.005 C 
ENDROOT
BRANCH   2   3
HETATM    3  C   LIG     1      15.322  32.687  19.133  1.00  0.00     0.002 C 
HETATM    4  C   LIG     1      14.852  31.433  19.871  1.00  0.00     0.005 C 
ENDBRANCH   2   3
BRANCH   2   5
HETATM    5  C   LIG     1      14.874  34.018  17.016  1.00  0.00     0.168 C 
BRANCH   5   6
HETATM    6  O   LIG     1      16.008  34.450  16.311  1.00  0.00    -0.400 OA
HETATM    7  H   LIG     1      16.349  33.668  15.804  1.00  0.00     0.209 HD
ENDBRANCH   5   6
ENDBRANCH   2   5
TORSDOF 3
ENDMDL
MODEL 10
REMARK VINA RESULT:      -3.7      8.404      9.788
REMARK  3 active torsions:
REMARK  status: ('A' for Active; 'I' for Inactive)
REMARK    1  A    between atoms: C_2  and  C_5 
REMARK    2  A    between atoms: C_2  and  C_3 
REMARK    3  A    between atoms: C_3  and  O_4 
ROOT
HETATM    1  C   LIG     1      15.003  33.976  16.869  1.00  0.00     0.012 C 
HETATM    2  C   LIG     1      14.826  32.514  17.312  1.00  0.00     0.005 C 
ENDROOT
BRANCH   2   3
HETATM    3  C   LIG     1      13.412  31.980  16.986  1.00  0.00     0.002 C 
HETATM    4  C   LIG     1      13.437  30.757  16.069  1.00  0.00     0.005 C 
ENDBRANCH   2   3
BRANCH   2   5
HETATM    5  C   LIG     1      15.135  32.358  18.814  1.00  0.00     0.168 C 
BRANCH   5   6
HETATM    6  O   LIG     1      14.176  31.556  19.452  1.00  0.00    -0.400 OA
HETATM    7  H   LIG     1      14.020  31.951  20.350  1.00  0.00     0.209 HD
ENDBRANCH   5   6
ENDBRANCH   2   5
TORSDOF 3
ENDMDL
MODEL 11
REMARK VINA RESULT:      -3.6     12.081     12.439
REMARK  3 active torsions:
REMARK  status: ('A' for Active; 'I' for Inactive)
REMARK    1  A    between atoms: C_2  and  C_5 
REMARK    2  A    between atoms: C_2  and  C_3 
REMARK    3  A    between atoms: C_3  and  O_4 
ROOT
HETATM    1  C   LIG     1      15.241  45.735  32.979  1.00  0.00     0.012 C 
HETATM    2  C   LIG     1      15.824  45.349  34.349  1.00  0.00     0.005 C 
ENDROOT
BRANCH   2   3
HETATM    3  C   LIG     1      17.367  45.463  34.372  1.00  0.00     0.002 C 
HETATM    4  C   LIG     1      17.965  45.696  32.984  1.00  0.00     0.005 C 
ENDBRANCH   2   3
BRANCH   2   5
HETATM    5  C   LIG     1      15.377  43.930  34.752  1.00  0.00     0.168 C 
BRANCH   5   6
HETATM    6  O   LIG     1      16.468  43.146  35.157  1.00  0.00    -0.400 OA
HETATM    7  H   LIG     1      16.974  42.908  34.336  1.00  0.00     0.209 HD
ENDBRANCH   5   6
ENDBRANCH   2   5
TORSDOF 3
ENDMDL
MODEL 12
REMARK VINA RESULT:      -3.6      2.280      3.697
REMARK  3 active torsions:
REMARK  status: ('A' for Active; 'I' for Inactive)
REMARK    1  A    between atoms: C_2  and  C_5 
REMARK    2  A    between atoms: C_2  and  C_3 
REMARK    3  A    between atoms: C_3  and  O_4 
ROOT
HETATM    1  C   LIG     1      17.198  35.191  23.865  1.00  0.00     0.012 C 
HETATM    2  C   LIG     1      16.584  36.049  22.746  1.00  0.00     0.005 C 
ENDROOT
BRANCH   2   3
HETATM    3  C   LIG     1      17.187  35.709  21.363  1.00  0.00     0.002 C 
HETATM    4  C   LIG     1      16.135  35.240  20.356  1.00  0.00     0.005 C 
ENDBRANCH   2   3
BRANCH   2   5
HETATM    5  C   LIG     1      16.746  37.549  23.056  1.00  0.00     0.168 C 
BRANCH   5   6
HETATM    6  O   LIG     1      16.155  37.884  24.285  1.00  0.00    -0.400 OA
HETATM    7  H   LIG     1      15.277  37.423  24.318  1.00  0.00     0.209 HD
ENDBRANCH   5   6
ENDBRANCH   2   5
TORSDOF 3
ENDMDL
MODEL 13
REMARK VINA RESULT:      -3.6     12.079     13.245
REMARK  3 active torsions:
REMARK  status: ('A' for Active; 'I' for Inactive)
REMARK    1  A    between atoms: C_2  and  C_5 
REMARK    2  A    between atoms: C_2  and  C_3 
REMARK    3  A    between atoms: C_3  and  O_4 
ROOT
HETATM    1  C   LIG     1      15.636  31.273  14.579  1.00  0.00     0.012 C 
HETATM    2  C   LIG     1      14.594  30.234  14.131  1.00  0.00     0.005 C 
ENDROOT
BRANCH   2   3
HETATM    3  C   LIG     1      13.395  30.162  15.105  1.00  0.00     0.002 C 
HETATM    4  C   LIG     1      13.641  30.929  16.405  1.00  0.00     0.005 C 
ENDBRANCH   2   3
BRANCH   2   5
HETATM    5  C   LIG     1      15.243  28.846  13.963  1.00  0.00     0.168 C 
BRANCH   5   6
HETATM    6  O   LIG     1      14.322  27.907  13.474  1.00  0.00    -0.400 OA
HETATM    7  H   LIG     1      14.706  27.532  12.639  1.00  0.00     0.209 HD
ENDBRANCH   5   6
ENDBRANCH   2   5
TORSDOF 3
ENDMDL
MODEL 14
REMARK VINA RESULT:      -3.5      9.800     11.134
REMARK  3 active torsions:
REMARK  status: ('A' for Active; 'I' for Inactive)
REMARK    1  A    between atoms: C_2  and  C_5 
REMARK    2  A    between atoms: C_2  and  C_3 
REMARK    3  A    between atoms: C_3  and  O_4 
ROOT
HETATM    1  C   LIG     1      13.087  30.690  16.290  1.00  0.00     0.012 C 
HETATM    2  C   LIG     1      14.145  31.789  16.097  1.00  0.00     0.005 C 
ENDROOT
BRANCH   2   3
HETATM    3  C   LIG     1      15.280  31.337  15.149  1.00  0.00     0.002 C 
HETATM    4  C   LIG     1      14.843  30.235  14.184  1.00  0.00     0.005 C 
ENDBRANCH   2   3
BRANCH   2   5
HETATM    5  C   LIG     1      14.718  32.241  17.455  1.00  0.00     0.168 C 
BRANCH   5   6
HETATM    6  O   LIG     1      13.888  31.846  18.516  1.00  0.00    -0.400 OA
HETATM    7  H   LIG     1      13.853  30.854  18.502  1.00  0.00     0.209 HD
ENDBRANCH   5   6
ENDBRANCH   2   5
TORSDOF 3
ENDMDL
MODEL 15
REMARK VINA RESULT:      -3.5     10.998     12.362
REMARK  3 active torsions:
REMARK  status: ('A' for Active; 'I' for Inactive)
REMARK    1  A    between atoms: C_2  and  C_5 
REMARK    2  A    between atoms: C_2  and  C_3 
REMARK    3  A    between atoms: C_3  and  O_4 
ROOT
HETATM    1  C   LIG     1      14.845  31.916  16.031  1.00  0.00     0.012 C 
HETATM    2  C   LIG     1      14.492  30.585  15.347  1.00  0.00     0.005 C 
ENDROOT
BRANCH   2   3
HETATM    3  C   LIG     1      15.057  30.508  13.909  1.00  0.00     0.002 C 
HETATM    4  C   LIG     1      15.893  31.732  13.534  1.00  0.00     0.005 C 
ENDBRANCH   2   3
BRANCH   2   5
HETATM    5  C   LIG     1      12.968  30.358  15.346  1.00  0.00     0.168 C 
BRANCH   5   6
HETATM    6  O   LIG     1      12.451  30.350  16.651  1.00  0.00    -0.400 OA
HETATM    7  H   LIG     1      13.216  30.187  17.264  1.00  0.00     0.209 HD
ENDBRANCH   5   6
ENDBRANCH   2   5
TORSDOF 3
ENDMDL
MODEL 16
REMARK VINA RESULT:      -3.4      9.865     10.959
REMARK  3 active torsions:
REMARK  status: ('A' for Active; 'I' for Inactive)
REMARK    1  A    between atoms: C_2  and  C_5 
REMARK    2  A    between atoms: C_2  and  C_3 
REMARK    3  A    between atoms: C_3  and  O_4 
ROOT
HETATM    1  C   LIG     1      17.373  33.147  14.656  1.00  0.00     0.012 C 
HETATM    2  C   LIG     1      16.390  32.299  15.481  1.00  0.00     0.005 C 
ENDROOT
BRANCH   2   3
HETATM    3  C   LIG     1      15.606  31.301  14.597  1.00  0.00     0.002 C 
HETATM    4  C   LIG     1      14.365  30.742  15.293  1.00  0.00     0.005 C 
ENDBRANCH   2   3
BRANCH   2   5
HETATM    5  C   LIG     1      15.424  33.200  16.274  1.00  0.00     0.168 C 
BRANCH   5   6
HETATM    6  O   LIG     1      15.883  34.526  16.322  1.00  0.00    -0.400 OA
HETATM    7  H   LIG     1      15.082  35.111  16.284  1.00  0.00     0.209 HD
ENDBRANCH   5   6
ENDBRANCH   2   5
TORSDOF 3
ENDMDL
MODEL 17
REMARK VINA RESULT:      -3.4      4.025      4.979
REMARK  3 active torsions:
REMARK  status: ('A' for Active; 'I' for Inactive)
REMARK    1  A    between atoms: C_2  and  C_5 
REMARK    2  A    between atoms: C_2  and  C_3 
REMARK    3  A    between atoms: C_3  and  O_4 
ROOT
HETATM    1  C   LIG     1      16.662  37.155  22.286  1.00  0.00     0.012 C 
HETATM    2  C   LIG     1      17.623  37.846  21.304  1.00  0.00     0.005 C 
ENDROOT
BRANCH   2   3
HETATM    3  C   LIG     1      18.439  36.823  20.480  1.00  0.00     0.002 C 
HETATM    4  C   LIG     1      18.735  37.307  19.060  1.00  0.00     0.005 C 
ENDBRANCH   2   3
BRANCH   2   5
HETATM    5  C   LIG     1      18.559  38.818  22.048  1.00  0.00     0.168 C 
BRANCH   5   6
HETATM    6  O   LIG     1      18.816  39.966  21.283  1.00  0.00    -0.400 OA
HETATM    7  H   LIG     1      18.741  40.744  21.896  1.00  0.00     0.209 HD
ENDBRANCH   5   6
ENDBRANCH   2   5
TORSDOF 3
ENDMDL
MODEL 18
REMARK VINA RESULT:      -3.4      4.294      5.365
REMARK  3 active torsions:
REMARK  status: ('A' for Active; 'I' for Inactive)
REMARK    1  A    between atoms: C_2  and  C_5 
REMARK    2  A    between atoms: C_2  and  C_3 
REMARK    3  A    between atoms: C_3  and  O_4 
ROOT
HETATM    1  C   LIG     1      17.646  38.090  21.553  1.00  0.00     0.012 C 
HETATM    2  C   LIG     1      18.033  36.751  20.905  1.00  0.00     0.005 C 
ENDROOT
BRANCH   2   3
HETATM    3  C   LIG     1      18.754  36.952  19.551  1.00  0.00     0.002 C 
HETATM    4  C   LIG     1      19.630  38.205  19.526  1.00  0.00     0.005 C 
ENDBRANCH   2   3
BRANCH   2   5
HETATM    5  C   LIG     1      16.795  35.849  20.733  1.00  0.00     0.168 C 
BRANCH   5   6
HETATM    6  O   LIG     1      15.763  36.227  21.606  1.00  0.00    -0.400 OA
HETATM    7  H   LIG     1      15.037  36.608  21.047  1.00  0.00     0.209 HD
ENDBRANCH   5   6
ENDBRANCH   2   5
TORSDOF 3
ENDMDL
MODEL 19
REMARK VINA RESULT:      -3.3      9.995     11.246
REMARK  3 active torsions:
REMARK  status: ('A' for Active; 'I' for Inactive)
REMARK    1  A    between atoms: C_2  and  C_5 
REMARK    2  A    between atoms: C_2  and  C_3 
REMARK    3  A    between atoms: C_3  and  O_4 
ROOT
HETATM    1  C   LIG     1      14.041  31.703  17.374  1.00  0.00     0.012 C 
HETATM    2  C   LIG     1      14.509  31.853  15.917  1.00  0.00     0.005 C 
ENDROOT
BRANCH   2   3
HETATM    3  C   LIG     1      14.461  30.509  15.155  1.00  0.00     0.002 C 
HETATM    4  C   LIG     1      15.170  30.569  13.801  1.00  0.00     0.005 C 
ENDBRANCH   2   3
BRANCH   2   5
HETATM    5  C   LIG     1      15.923  32.463  15.858  1.00  0.00     0.168 C 
BRANCH   5   6
HETATM    6  O   LIG     1      15.893  33.848  16.088  1.00  0.00    -0.400 OA
HETATM    7  H   LIG     1      15.031  34.182  15.725  1.00  0.00     0.209 HD
ENDBRANCH   5   6
ENDBRANCH   2   5
TORSDOF 3
ENDMDL
MODEL 20
REMARK VINA RESULT:      -3.3      1.935      2.651
REMARK  3 active torsions:
REMARK  status: ('A' for Active; 'I' for Inactive)
REMARK    1  A    between atoms: C_2  and  C_5 
REMARK    2  A    between atoms: C_2  and  C_3 
REMARK    3  A    between atoms: C_3  and  O_4 
ROOT
HETATM    1  C   LIG     1      16.147  38.195  22.984  1.00  0.00     0.012 C 
HETATM    2  C   LIG     1      16.769  37.201  23.980  1.00  0.00     0.005 C 
ENDROOT
BRANCH   2   3
HETATM    3  C   LIG     1      17.978  37.812  24.726  1.00  0.00     0.002 C 
HETATM    4  C   LIG     1      18.263  37.120  26.059  1.00  0.00     0.005 C 
ENDBRANCH   2   3
BRANCH   2   5
HETATM    5  C   LIG     1      17.171  35.894  23.269  1.00  0.00     0.168 C 
BRANCH   5   6
HETATM    6  O   LIG     1      17.098  34.795  24.139  1.00  0.00    -0.400 OA
HETATM    7  H   LIG     1      16.891  33.999  23.582  1.00  0.00     0.209 HD
ENDBRANCH   5   6
ENDBRANCH   2   5
TORSDOF 3
ENDMDL
