MODEL 1
REMARK VINA RESULT:      -4.1      0.000      0.000
REMARK  5 active torsions:
REMARK  status: ('A' for Active; 'I' for Inactive)
REMARK    1  A    between atoms: C_2  and  N_10 
REMARK    2  A    between atoms: C_2  and  S_3 
REMARK    3  A    between atoms: S_3  and  S_4 
REMARK    4  A    between atoms: S_4  and  C_5 
REMARK    5  A    between atoms: C_5  and  N_6 
ROOT
HETATM    1  S   LIG     1      17.339  38.753  22.413  1.00  0.00    -0.021 SA
ENDROOT
BRANCH   1   2
HETATM    2  C   LIG     1      17.876  37.551  21.191  1.00  0.00     0.147 C 
HETATM    3  S   LIG     1      17.072  36.124  21.109  1.00  0.00    -0.052 SA
BRANCH   2   4
HETATM    4  N   LIG     1      18.922  37.873  20.248  1.00  0.00    -0.375 N 
HETATM    5  C   LIG     1      19.506  36.825  19.405  1.00  0.00     0.150 C 
HETATM    6  C   LIG     1      19.387  39.259  20.126  1.00  0.00     0.150 C 
ENDBRANCH   2   4
ENDBRANCH   1   2
BRANCH   1   7
HETATM    7  S   LIG     1      16.007  37.383  23.367  1.00  0.00    -0.021 SA
BRANCH   7   8
HETATM    8  C   LIG     1      16.981  37.302  24.874  1.00  0.00     0.147 C 
HETATM    9  S   LIG     1      17.375  38.723  25.598  1.00  0.00    -0.052 SA
BRANCH   8  10
HETATM   10  N   LIG     1      17.484  36.042  25.374  1.00  0.00    -0.375 N 
HETATM   11  C   LIG     1      18.249  36.007  26.625  1.00  0.00     0.150 C 
HETATM   12  C   LIG     1      17.245  34.798  24.630  1.00  0.00     0.150 C 
ENDBRANCH   8  10
ENDBRANCH   7   8
ENDBRANCH   1   7
TORSDOF 5
ENDMDL
MODEL 2
REMARK VINA RESULT:      -3.8      1.352      2.102
REMARK  5 active torsions:
REMARK  status: ('A' for Active; 'I' for Inactive)
REMARK    1  A    between atoms: C_2  and  N_10 
REMARK    2  A    between atoms: C_2  and  S_3 
REMARK    3  A    between atoms: S_3  and  S_4 
REMARK    4  A    between atoms: S_4  and  C_5 
REMARK    5  A    between atoms: C_5  and  N_6 
ROOT
HETATM    1  S   LIG     1      16.296  37.730  22.467  1.00  0.00    -0.021 SA
ENDROOT
BRANCH   1   2
HETATM    2  C   LIG     1      17.679  37.856  21.327  1.00  0.00     0.147 C 
HETATM    3  S   LIG     1      18.724  39.105  21.520  1.00  0.00    -0.052 SA
BRANCH   2   4
HETATM    4  N   LIG     1      17.912  36.834  20.333  1.00  0.00    -0.375 N 
HETATM    5  C   LIG     1      19.169  36.810  19.579  1.00  0.00     0.150 C 
HETATM    6  C   LIG     1      16.891  35.809  20.093  1.00  0.00     0.150 C 
ENDBRANCH   2   4
ENDBRANCH   1   2
BRANCH   1   7
HETATM    7  S   LIG     1      17.005  35.912  23.333  1.00  0.00    -0.021 SA
BRANCH   7   8
HETATM    8  C   LIG     1      17.360  36.669  24.923  1.00  0.00     0.147 C 
HETATM    9  S   LIG     1      17.271  38.306  25.018  1.00  0.00    -0.052 SA
BRANCH   8  10
HETATM   10  N   LIG     1      17.805  35.876  26.046  1.00  0.00    -0.375 N 
HETATM   11  C   LIG     1      17.209  34.558  26.289  1.00  0.00     0.150 C 
HETATM   12  C   LIG     1      18.841  36.385  26.954  1.00  0.00     0.150 C 
ENDBRANCH   8  10
ENDBRANCH   7   8
ENDBRANCH   1   7
TORSDOF 5
ENDMDL
MODEL 3
REMARK VINA RESULT:      -3.7      9.832     11.644
REMARK  5 active torsions:
REMARK  status: ('A' for Active; 'I' for Inactive)
REMARK    1  A    between atoms: C_2  and  N_10 
REMARK    2  A    between atoms: C_2  and  S_3 
REMARK    3  A    between atoms: S_3  and  S_4 
REMARK    4  A    between atoms: S_4  and  C_5 
REMARK    5  A    between atoms: C_5  and  N_6 
ROOT
HETATM    1  S   LIG     1      16.303  32.151  13.338  1.00  0.00    -0.021 SA
ENDROOT
BRANCH   1   2
HETATM    2  C   LIG     1      15.478  31.818  14.898  1.00  0.00     0.147 C 
HETATM    3  S   LIG     1      15.689  32.887  16.124  1.00  0.00    -0.052 SA
BRANCH   2   4
HETATM    4  N   LIG     1      14.581  30.694  15.034  1.00  0.00    -0.375 N 
HETATM    5  C   LIG     1      14.742  29.512  14.180  1.00  0.00     0.150 C 
HETATM    6  C   LIG     1      13.518  30.732  16.043  1.00  0.00     0.150 C 
ENDBRANCH   2   4
ENDBRANCH   1   2
BRANCH   1   7
HETATM    7  S   LIG     1      17.760  33.432  14.231  1.00  0.00    -0.021 SA
BRANCH   7   8
HETATM    8  C   LIG     1      18.420  33.978  12.652  1.00  0.00     0.147 C 
HETATM    9  S   LIG     1      17.535  35.066  11.798  1.00  0.00    -0.052 SA
BRANCH   8  10
HETATM   10  N   LIG     1      19.633  33.406  12.110  1.00  0.00    -0.375 N 
HETATM   11  C   LIG     1      20.928  33.739  12.713  1.00  0.00     0.150 C 
HETATM   12  C   LIG     1      19.578  32.505  10.953  1.00  0.00     0.150 C 
ENDBRANCH   8  10
ENDBRANCH   7   8
ENDBRANCH   1   7
TORSDOF 5
ENDMDL
MODEL 4
REMARK VINA RESULT:      -3.6      9.779     10.662
REMARK  5 active torsions:
REMARK  status: ('A' for Active; 'I' for Inactive)
REMARK    1  A    between atoms: C_2  and  N_10 
REMARK    2  A    between atoms: C_2  and  S_3 
REMARK    3  A    between atoms: S_3  and  S_4 
REMARK    4  A    between atoms: S_4  and  C_5 
REMARK    5  A    between atoms: C_5  and  N_6 
ROOT
HETATM    1  S   LIG     1      17.738  33.444  14.186  1.00  0.00    -0.021 SA
ENDROOT
BRANCH   1   2
HETATM    2  C   LIG     1      18.374  33.940  12.581  1.00  0.00     0.147 C 
HETATM    3  S   LIG     1      17.561  35.101  11.756  1.00  0.00    -0.052 SA
BRANCH   2   4
HETATM    4  N   LIG     1      19.616  33.399  12.079  1.00  0.00    -0.375 N 
HETATM    5  C   LIG     1      19.614  32.486  10.931  1.00  0.00     0.150 C 
HETATM    6  C   LIG     1      20.882  33.779  12.714  1.00  0.00     0.150 C 
ENDBRANCH   2   4
ENDBRANCH   1   2
BRANCH   1   7
HETATM    7  S   LIG     1      16.286  32.121  13.349  1.00  0.00    -0.021 SA
BRANCH   7   8
HETATM    8  C   LIG     1      15.435  31.875  14.912  1.00  0.00     0.147 C 
HETATM    9  S   LIG     1      15.787  32.911  16.136  1.00  0.00    -0.052 SA
BRANCH   8  10
HETATM   10  N   LIG     1      14.552  30.748  15.113  1.00  0.00    -0.375 N 
HETATM   11  C   LIG     1      13.573  30.777  16.205  1.00  0.00     0.150 C 
HETATM   12  C   LIG     1      14.636  29.571  14.241  1.00  0.00     0.150 C 
ENDBRANCH   8  10
ENDBRANCH   7   8
ENDBRANCH   1   7
TORSDOF 5
ENDMDL
MODEL 5
REMARK VINA RESULT:      -3.4      9.901     11.806
REMARK  5 active torsions:
REMARK  status: ('A' for Active; 'I' for Inactive)
REMARK    1  A    between atoms: C_2  and  N_10 
REMARK    2  A    between atoms: C_2  and  S_3 
REMARK    3  A    between atoms: S_3  and  S_4 
REMARK    4  A    between atoms: S_4  and  C_5 
REMARK    5  A    between atoms: C_5  and  N_6 
ROOT
HETATM    1  S   LIG     1      16.584  32.318  13.186  1.00  0.00    -0.021 SA
ENDROOT
BRANCH   1   2
HETATM    2  C   LIG     1      15.749  31.873  14.713  1.00  0.00     0.147 C 
HETATM    3  S   LIG     1      15.859  32.907  15.981  1.00  0.00    -0.052 SA
BRANCH   2   4
HETATM    4  N   LIG     1      14.928  30.686  14.787  1.00  0.00    -0.375 N 
HETATM    5  C   LIG     1      13.759  30.649  15.672  1.00  0.00     0.150 C 
HETATM    6  C   LIG     1      15.260  29.522  13.959  1.00  0.00     0.150 C 
ENDBRANCH   2   4
ENDBRANCH   1   2
BRANCH   1   7
HETATM    7  S   LIG     1      17.797  33.801  14.129  1.00  0.00    -0.021 SA
BRANCH   7   8
HETATM    8  C   LIG     1      18.828  34.049  12.679  1.00  0.00     0.147 C 
HETATM    9  S   LIG     1      20.392  33.558  12.770  1.00  0.00    -0.052 SA
BRANCH   8  10
HETATM   10  N   LIG     1      18.327  34.746  11.515  1.00  0.00    -0.375 N 
HETATM   11  C   LIG     1      17.099  35.543  11.616  1.00  0.00     0.150 C 
HETATM   12  C   LIG     1      19.030  34.651  10.230  1.00  0.00     0.150 C 
ENDBRANCH   8  10
ENDBRANCH   7   8
ENDBRANCH   1   7
TORSDOF 5
ENDMDL
MODEL 6
REMARK VINA RESULT:      -3.3      9.870     10.778
REMARK  5 active torsions:
REMARK  status: ('A' for Active; 'I' for Inactive)
REMARK    1  A    between atoms: C_2  and  N_10 
REMARK    2  A    between atoms: C_2  and  S_3 
REMARK    3  A    between atoms: S_3  and  S_4 
REMARK    4  A    between atoms: S_4  and  C_5 
REMARK    5  A    between atoms: C_5  and  N_6 
ROOT
HETATM    1  S   LIG     1      17.767  33.886  14.124  1.00  0.00    -0.021 SA
ENDROOT
BRANCH   1   2
HETATM    2  C   LIG     1      18.809  34.131  12.681  1.00  0.00     0.147 C 
HETATM    3  S   LIG     1      20.307  33.464  12.690  1.00  0.00    -0.052 SA
BRANCH   2   4
HETATM    4  N   LIG     1      18.303  34.815  11.513  1.00  0.00    -0.375 N 
HETATM    5  C   LIG     1      17.051  35.574  11.585  1.00  0.00     0.150 C 
HETATM    6  C   LIG     1      19.058  34.759  10.257  1.00  0.00     0.150 C 
ENDBRANCH   2   4
ENDBRANCH   1   2
BRANCH   1   7
HETATM    7  S   LIG     1      16.632  32.329  13.203  1.00  0.00    -0.021 SA
BRANCH   7   8
HETATM    8  C   LIG     1      15.718  31.948  14.701  1.00  0.00     0.147 C 
HETATM    9  S   LIG     1      15.905  32.961  15.980  1.00  0.00    -0.052 SA
BRANCH   8  10
HETATM   10  N   LIG     1      14.928  30.741  14.809  1.00  0.00    -0.375 N 
HETATM   11  C   LIG     1      15.260  29.578  13.980  1.00  0.00     0.150 C 
HETATM   12  C   LIG     1      13.788  30.677  15.732  1.00  0.00     0.150 C 
ENDBRANCH   8  10
ENDBRANCH   7   8
ENDBRANCH   1   7
TORSDOF 5
ENDMDL
MODEL 7
REMARK VINA RESULT:      -3.2      9.127     10.364
REMARK  5 active torsions:
REMARK  status: ('A' for Active; 'I' for Inactive)
REMARK    1  A    between atoms: C_2  and  N_10 
REMARK    2  A    between atoms: C_2  and  S_3 
REMARK    3  A    between atoms: S_3  and  S_4 
REMARK    4  A    between atoms: S_4  and  C_5 
REMARK    5  A    between atoms: C_5  and  N_6 
ROOT
HETATM    1  S   LIG     1      16.709  32.481  13.186  1.00  0.00    -0.021 SA
ENDROOT
BRANCH   1   2
HETATM    2  C   LIG     1      17.767  33.926  13.327  1.00  0.00     0.147 C 
HETATM    3  S   LIG     1      17.565  34.904  14.629  1.00  0.00    -0.052 SA
BRANCH   2   4
HETATM    4  N   LIG     1      18.823  34.164  12.372  1.00  0.00    -0.375 N 
HETATM    5  C   LIG     1      18.526  34.799  11.083  1.00  0.00     0.150 C 
HETATM    6  C   LIG     1      20.200  33.783  12.702  1.00  0.00     0.150 C 
ENDBRANCH   2   4
ENDBRANCH   1   2
BRANCH   1   7
HETATM    7  S   LIG     1      16.552  32.228  15.301  1.00  0.00    -0.021 SA
BRANCH   7   8
HETATM    8  C   LIG     1      15.126  31.141  15.183  1.00  0.00     0.147 C 
HETATM    9  S   LIG     1      15.046  30.135  13.888  1.00  0.00    -0.052 SA
BRANCH   8  10
HETATM   10  N   LIG     1      14.043  31.223  16.138  1.00  0.00    -0.375 N 
HETATM   11  C   LIG     1      12.767  30.558  15.851  1.00  0.00     0.150 C 
HETATM   12  C   LIG     1      14.206  31.977  17.386  1.00  0.00     0.150 C 
ENDBRANCH   8  10
ENDBRANCH   7   8
ENDBRANCH   1   7
TORSDOF 5
ENDMDL
MODEL 8
REMARK VINA RESULT:      -3.2      8.534     10.174
REMARK  5 active torsions:
REMARK  status: ('A' for Active; 'I' for Inactive)
REMARK    1  A    between atoms: C_2  and  N_10 
REMARK    2  A    between atoms: C_2  and  S_3 
REMARK    3  A    between atoms: S_3  and  S_4 
REMARK    4  A    between atoms: S_4  and  C_5 
REMARK    5  A    between atoms: C_5  and  N_6 
ROOT
HETATM    1  S   LIG     1      17.378  32.720  12.886  1.00  0.00    -0.021 SA
ENDROOT
BRANCH   1   2
HETATM    2  C   LIG     1      18.608  33.901  12.321  1.00  0.00     0.147 C 
HETATM    3  S   LIG     1      20.132  33.768  12.915  1.00  0.00    -0.052 SA
BRANCH   2   4
HETATM    4  N   LIG     1      18.286  34.875  11.305  1.00  0.00    -0.375 N 
HETATM    5  C   LIG     1      17.050  35.659  11.399  1.00  0.00     0.150 C 
HETATM    6  C   LIG     1      19.208  35.088  10.185  1.00  0.00     0.150 C 
ENDBRANCH   2   4
ENDBRANCH   1   2
BRANCH   1   7
HETATM    7  S   LIG     1      17.302  33.541  14.855  1.00  0.00    -0.021 SA
BRANCH   7   8
HETATM    8  C   LIG     1      15.921  32.509  15.360  1.00  0.00     0.147 C 
HETATM    9  S   LIG     1      15.587  31.190  14.441  1.00  0.00    -0.052 SA
BRANCH   8  10
HETATM   10  N   LIG     1      15.076  32.882  16.472  1.00  0.00    -0.375 N 
HETATM   11  C   LIG     1      15.129  34.249  17.001  1.00  0.00     0.150 C 
HETATM   12  C   LIG     1      14.175  31.898  17.086  1.00  0.00     0.150 C 
ENDBRANCH   8  10
ENDBRANCH   7   8
ENDBRANCH   1   7
TORSDOF 5
ENDMDL
MODEL 9
REMARK VINA RESULT:      -3.0      8.424      9.890
REMARK  5 active torsions:
REMARK  status: ('A' for Active; 'I' for Inactive)
REMARK    1  A    between atoms: C_2  and  N_10 
REMARK    2  A    between atoms: C_2  and  S_3 
REMARK    3  A    between atoms: S_3  and  S_4 
REMARK    4  A    between atoms: S_4  and  C_5 
REMARK    5  A    between atoms: C_5  and  N_6 
ROOT
HETATM    1  S   LIG     1      13.959  30.999  15.995  1.00  0.00    -0.021 SA
ENDROOT
BRANCH   1   2
HETATM    2  C   LIG     1      14.594  30.319  14.458  1.00  0.00     0.147 C 
HETATM    3  S   LIG     1      15.641  31.233  13.586  1.00  0.00    -0.052 SA
BRANCH   2   4
HETATM    4  N   LIG     1      14.265  28.972  14.055  1.00  0.00    -0.375 N 
HETATM    5  C   LIG     1      15.328  28.028  13.692  1.00  0.00     0.150 C 
HETATM    6  C   LIG     1      12.862  28.545  14.026  1.00  0.00     0.150 C 
ENDBRANCH   2   4
ENDBRANCH   1   2
BRANCH   1   7
HETATM    7  S   LIG     1      15.860  31.765  16.594  1.00  0.00    -0.021 SA
BRANCH   7   8
HETATM    8  C   LIG     1      15.154  32.927  17.768  1.00  0.00     0.147 C 
HETATM    9  S   LIG     1      14.560  34.337  17.173  1.00  0.00    -0.052 SA
BRANCH   8  10
HETATM   10  N   LIG     1      15.199  32.673  19.191  1.00  0.00    -0.375 N 
HETATM   11  C   LIG     1      14.801  31.360  19.709  1.00  0.00     0.150 C 
HETATM   12  C   LIG     1      15.628  33.724  20.122  1.00  0.00     0.150 C 
ENDBRANCH   8  10
ENDBRANCH   7   8
ENDBRANCH   1   7
TORSDOF 5
ENDMDL
MODEL 10
REMARK VINA RESULT:      -3.0     10.971     13.039
REMARK  5 active torsions:
REMARK  status: ('A' for Active; 'I' for Inactive)
REMARK    1  A    between atoms: C_2  and  N_10 
REMARK    2  A    between atoms: C_2  and  S_3 
REMARK    3  A    between atoms: S_3  and  S_4 
REMARK    4  A    between atoms: S_4  and  C_5 
REMARK    5  A    between atoms: C_5  and  N_6 
ROOT
HETATM    1  S   LIG     1      14.951  30.039  14.112  1.00  0.00    -0.021 SA
ENDROOT
BRANCH   1   2
HETATM    2  C   LIG     1      14.489  31.152  15.444  1.00  0.00     0.147 C 
HETATM    3  S   LIG     1      13.093  30.850  16.251  1.00  0.00    -0.052 SA
BRANCH   2   4
HETATM    4  N   LIG     1      15.369  32.223  15.851  1.00  0.00    -0.375 N 
HETATM    5  C   LIG     1      15.041  33.046  17.019  1.00  0.00     0.150 C 
HETATM    6  C   LIG     1      16.603  32.472  15.099  1.00  0.00     0.150 C 
ENDBRANCH   2   4
ENDBRANCH   1   2
BRANCH   1   7
HETATM    7  S   LIG     1      13.124  28.940  14.221  1.00  0.00    -0.021 SA
BRANCH   7   8
HETATM    8  C   LIG     1      13.785  27.524  13.334  1.00  0.00     0.147 C 
HETATM    9  S   LIG     1      15.414  27.321  13.340  1.00  0.00    -0.052 SA
BRANCH   8  10
HETATM   10  N   LIG     1      12.924  26.657  12.561  1.00  0.00    -0.375 N 
HETATM   11  C   LIG     1      13.473  25.910  11.425  1.00  0.00     0.150 C 
HETATM   12  C   LIG     1      11.501  26.528  12.899  1.00  0.00     0.150 C 
ENDBRANCH   8  10
ENDBRANCH   7   8
ENDBRANCH   1   7
TORSDOF 5
ENDMDL
MODEL 11
REMARK VINA RESULT:      -2.8      1.425      2.060
REMARK  5 active torsions:
REMARK  status: ('A' for Active; 'I' for Inactive)
REMARK    1  A    between atoms: C_2  and  N_10 
REMARK    2  A    between atoms: C_2  and  S_3 
REMARK    3  A    between atoms: S_3  and  S_4 
REMARK    4  A    between atoms: S_4  and  C_5 
REMARK    5  A    between atoms: C_5  and  N_6 
ROOT
HETATM    1  S   LIG     1      16.447  37.768  22.284  1.00  0.00    -0.021 SA
ENDROOT
BRANCH   1   2
HETATM    2  C   LIG     1      17.845  37.774  21.156  1.00  0.00     0.147 C 
HETATM    3  S   LIG     1      18.042  36.479  20.167  1.00  0.00    -0.052 SA
BRANCH   2   4
HETATM    4  N   LIG     1      18.710  38.926  21.058  1.00  0.00    -0.375 N 
HETATM    5  C   LIG     1      19.785  38.961  20.060  1.00  0.00     0.150 C 
HETATM    6  C   LIG     1      18.500  40.069  21.951  1.00  0.00     0.150 C 
ENDBRANCH   2   4
ENDBRANCH   1   2
BRANCH   1   7
HETATM    7  S   LIG     1      17.677  37.974  24.017  1.00  0.00    -0.021 SA
BRANCH   7   8
HETATM    8  C   LIG     1      17.462  36.263  24.519  1.00  0.00     0.147 C 
HETATM    9  S   LIG     1      16.810  35.229  23.422  1.00  0.00    -0.052 SA
BRANCH   8  10
HETATM   10  N   LIG     1      17.759  35.836  25.868  1.00  0.00    -0.375 N 
HETATM   11  C   LIG     1      17.117  34.633  26.409  1.00  0.00     0.150 C 
HETATM   12  C   LIG     1      18.688  36.606  26.705  1.00  0.00     0.150 C 
ENDBRANCH   8  10
ENDBRANCH   7   8
ENDBRANCH   1   7
TORSDOF 5
ENDMDL
MODEL 12
REMARK VINA RESULT:      -2.6     16.310     17.653
REMARK  5 active torsions:
REMARK  status: ('A' for Active; 'I' for Inactive)
REMARK    1  A    between atoms: C_2  and  N_10 
REMARK    2  A    between atoms: C_2  and  S_3 
REMARK    3  A    between atoms: S_3  and  S_4 
REMARK    4  A    between atoms: S_4  and  C_5 
REMARK    5  A    between atoms: C_5  and  N_6 
ROOT
HETATM    1  S   LIG     1      28.281  31.107  33.918  1.00  0.00    -0.021 SA
ENDROOT
BRANCH   1   2
HETATM    2  C   LIG     1      28.401  31.254  35.704  1.00  0.00     0.147 C 
HETATM    3  S   LIG     1      29.898  31.291  36.375  1.00  0.00    -0.052 SA
BRANCH   2   4
HETATM    4  N   LIG     1      27.217  31.431  36.512  1.00  0.00    -0.375 N 
HETATM    5  C   LIG     1      27.312  32.050  37.838  1.00  0.00     0.150 C 
HETATM    6  C   LIG     1      25.914  31.002  35.992  1.00  0.00     0.150 C 
ENDBRANCH   2   4
ENDBRANCH   1   2
BRANCH   1   7
HETATM    7  S   LIG     1      29.261  29.210  33.877  1.00  0.00    -0.021 SA
BRANCH   7   8
HETATM    8  C   LIG     1      27.952  28.422  32.933  1.00  0.00     0.147 C 
HETATM    9  S   LIG     1      26.588  27.995  33.742  1.00  0.00    -0.052 SA
BRANCH   8  10
HETATM   10  N   LIG     1      28.133  28.085  31.538  1.00  0.00    -0.375 N 
HETATM   11  C   LIG     1      29.282  28.625  30.803  1.00  0.00     0.150 C 
HETATM   12  C   LIG     1      27.169  27.219  30.850  1.00  0.00     0.150 C 
ENDBRANCH   8  10
ENDBRANCH   7   8
ENDBRANCH   1   7
TORSDOF 5
ENDMDL
MODEL 13
REMARK VINA RESULT:      -2.6     15.453     16.118
REMARK  5 active torsions:
REMARK  status: ('A' for Active; 'I' for Inactive)
REMARK    1  A    between atoms: C_2  and  N_10 
REMARK    2  A    between atoms: C_2  and  S_3 
REMARK    3  A    between atoms: S_3  and  S_4 
REMARK    4  A    between atoms: S_4  and  C_5 
REMARK    5  A    between atoms: C_5  and  N_6 
ROOT
HETATM    1  S   LIG     1      26.281  24.297  18.506  1.00  0.00    -0.021 SA
ENDROOT
BRANCH   1   2
HETATM    2  C   LIG     1      27.575  25.448  18.987  1.00  0.00     0.147 C 
HETATM    3  S   LIG     1      27.831  25.692  20.588  1.00  0.00    -0.052 SA
BRANCH   2   4
HETATM    4  N   LIG     1      28.423  26.063  17.993  1.00  0.00    -0.375 N 
HETATM    5  C   LIG     1      28.871  27.450  18.159  1.00  0.00     0.150 C 
HETATM    6  C   LIG     1      28.849  25.288  16.822  1.00  0.00     0.150 C 
ENDBRANCH   2   4
ENDBRANCH   1   2
BRANCH   1   7
HETATM    7  S   LIG     1      26.435  23.166  20.310  1.00  0.00    -0.021 SA
BRANCH   7   8
HETATM    8  C   LIG     1      24.731  22.603  20.241  1.00  0.00     0.147 C 
HETATM    9  S   LIG     1      24.161  22.092  18.789  1.00  0.00    -0.052 SA
BRANCH   8  10
HETATM   10  N   LIG     1      23.867  22.690  21.398  1.00  0.00    -0.375 N 
HETATM   11  C   LIG     1      24.447  22.656  22.744  1.00  0.00     0.150 C 
HETATM   12  C   LIG     1      22.412  22.801  21.234  1.00  0.00     0.150 C 
ENDBRANCH   8  10
ENDBRANCH   7   8
ENDBRANCH   1   7
TORSDOF 5
ENDMDL
MODEL 14
REMARK VINA RESULT:      -2.5     15.282     16.581
REMARK  5 active torsions:
REMARK  status: ('A' for Active; 'I' for Inactive)
REMARK    1  A    between atoms: C_2  and  N_10 
REMARK    2  A    between atoms: C_2  and  S_3 
REMARK    3  A    between atoms: S_3  and  S_4 
REMARK    4  A    between atoms: S_4  and  C_5 
REMARK    5  A    between atoms: C_5  and  N_6 
ROOT
HETATM    1  S   LIG     1      26.426  23.061  19.845  1.00  0.00    -0.021 SA
ENDROOT
BRANCH   1   2
HETATM    2  C   LIG     1      24.693  22.606  19.965  1.00  0.00     0.147 C 
HETATM    3  S   LIG     1      23.964  21.990  18.631  1.00  0.00    -0.052 SA
BRANCH   2   4
HETATM    4  N   LIG     1      23.993  22.692  21.226  1.00  0.00    -0.375 N 
HETATM    5  C   LIG     1      22.528  22.770  21.254  1.00  0.00     0.150 C 
HETATM    6  C   LIG     1      24.753  22.684  22.480  1.00  0.00     0.150 C 
ENDBRANCH   2   4
ENDBRANCH   1   2
BRANCH   1   7
HETATM    7  S   LIG     1      25.997  25.126  19.515  1.00  0.00    -0.021 SA
BRANCH   7   8
HETATM    8  C   LIG     1      27.727  25.610  19.526  1.00  0.00     0.147 C 
HETATM    9  S   LIG     1      28.501  25.614  20.974  1.00  0.00    -0.052 SA
BRANCH   8  10
HETATM   10  N   LIG     1      28.382  26.073  18.323  1.00  0.00    -0.375 N 
HETATM   11  C   LIG     1      28.819  27.470  18.224  1.00  0.00     0.150 C 
HETATM   12  C   LIG     1      28.600  25.159  17.195  1.00  0.00     0.150 C 
ENDBRANCH   8  10
ENDBRANCH   7   8
ENDBRANCH   1   7
TORSDOF 5
ENDMDL
MODEL 15
REMARK VINA RESULT:      -2.4     15.597     16.377
REMARK  5 active torsions:
REMARK  status: ('A' for Active; 'I' for Inactive)
REMARK    1  A    between atoms: C_2  and  N_10 
REMARK    2  A    between atoms: C_2  and  S_3 
REMARK    3  A    between atoms: S_3  and  S_4 
REMARK    4  A    between atoms: S_4  and  C_5 
REMARK    5  A    between atoms: C_5  and  N_6 
ROOT
HETATM    1  S   LIG     1      25.897  23.490  21.036  1.00  0.00    -0.021 SA
ENDROOT
BRANCH   1   2
HETATM    2  C   LIG     1      26.641  24.508  19.757  1.00  0.00     0.147 C 
HETATM    3  S   LIG     1      26.097  24.332  18.219  1.00  0.00    -0.052 SA
BRANCH   2   4
HETATM    4  N   LIG     1      27.620  25.516  20.092  1.00  0.00    -0.375 N 
HETATM    5  C   LIG     1      28.051  26.491  19.085  1.00  0.00     0.150 C 
HETATM    6  C   LIG     1      28.170  25.570  21.450  1.00  0.00     0.150 C 
ENDBRANCH   2   4
ENDBRANCH   1   2
BRANCH   1   7
HETATM    7  S   LIG     1      25.760  21.773  19.773  1.00  0.00    -0.021 SA
BRANCH   7   8
HETATM    8  C   LIG     1      23.967  21.705  19.860  1.00  0.00     0.147 C 
HETATM    9  S   LIG     1      23.142  21.673  18.441  1.00  0.00    -0.052 SA
BRANCH   8  10
HETATM   10  N   LIG     1      23.276  21.779  21.129  1.00  0.00    -0.375 N 
HETATM   11  C   LIG     1      23.575  20.799  22.178  1.00  0.00     0.150 C 
HETATM   12  C   LIG     1      22.269  22.819  21.369  1.00  0.00     0.150 C 
ENDBRANCH   8  10
ENDBRANCH   7   8
ENDBRANCH   1   7
TORSDOF 5
ENDMDL
MODEL 16
REMARK VINA RESULT:      -2.4     15.656     16.909
REMARK  5 active torsions:
REMARK  status: ('A' for Active; 'I' for Inactive)
REMARK    1  A    between atoms: C_2  and  N_10 
REMARK    2  A    between atoms: C_2  and  S_3 
REMARK    3  A    between atoms: S_3  and  S_4 
REMARK    4  A    between atoms: S_4  and  C_5 
REMARK    5  A    between atoms: C_5  and  N_6 
ROOT
HETATM    1  S   LIG     1      25.586  21.517  19.900  1.00  0.00    -0.021 SA
ENDROOT
BRANCH   1   2
HETATM    2  C   LIG     1      23.798  21.691  19.874  1.00  0.00     0.147 C 
HETATM    3  S   LIG     1      23.041  21.639  18.420  1.00  0.00    -0.052 SA
BRANCH   2   4
HETATM    4  N   LIG     1      23.046  21.777  21.104  1.00  0.00    -0.375 N 
HETATM    5  C   LIG     1      22.148  22.911  21.344  1.00  0.00     0.150 C 
HETATM    6  C   LIG     1      23.174  20.715  22.108  1.00  0.00     0.150 C 
ENDBRANCH   2   4
ENDBRANCH   1   2
BRANCH   1   7
HETATM    7  S   LIG     1      25.871  23.276  21.077  1.00  0.00    -0.021 SA
BRANCH   7   8
HETATM    8  C   LIG     1      26.822  24.116  19.805  1.00  0.00     0.147 C 
HETATM    9  S   LIG     1      26.931  23.389  18.338  1.00  0.00    -0.052 SA
BRANCH   8  10
HETATM   10  N   LIG     1      27.546  25.334  20.095  1.00  0.00    -0.375 N 
HETATM   11  C   LIG     1      27.694  26.357  19.055  1.00  0.00     0.150 C 
HETATM   12  C   LIG     1      28.144  25.548  21.418  1.00  0.00     0.150 C 
ENDBRANCH   8  10
ENDBRANCH   7   8
ENDBRANCH   1   7
TORSDOF 5
ENDMDL
MODEL 17
REMARK VINA RESULT:      -2.4     15.901     16.953
REMARK  5 active torsions:
REMARK  status: ('A' for Active; 'I' for Inactive)
REMARK    1  A    between atoms: C_2  and  N_10 
REMARK    2  A    between atoms: C_2  and  S_3 
REMARK    3  A    between atoms: S_3  and  S_4 
REMARK    4  A    between atoms: S_4  and  C_5 
REMARK    5  A    between atoms: C_5  and  N_6 
ROOT
HETATM    1  S   LIG     1      25.664  22.998  18.508  1.00  0.00    -0.021 SA
ENDROOT
BRANCH   1   2
HETATM    2  C   LIG     1      24.871  22.614  20.073  1.00  0.00     0.147 C 
HETATM    3  S   LIG     1      25.745  22.813  21.447  1.00  0.00    -0.052 SA
BRANCH   2   4
HETATM    4  N   LIG     1      23.479  22.233  20.122  1.00  0.00    -0.375 N 
HETATM    5  C   LIG     1      22.865  21.528  18.992  1.00  0.00     0.150 C 
HETATM    6  C   LIG     1      22.685  22.539  21.316  1.00  0.00     0.150 C 
ENDBRANCH   2   4
ENDBRANCH   1   2
BRANCH   1   7
HETATM    7  S   LIG     1      27.617  23.082  19.366  1.00  0.00    -0.021 SA
BRANCH   7   8
HETATM    8  C   LIG     1      28.053  24.606  18.520  1.00  0.00     0.147 C 
HETATM    9  S   LIG     1      28.461  24.500  16.934  1.00  0.00    -0.052 SA
BRANCH   8  10
HETATM   10  N   LIG     1      28.138  25.860  19.235  1.00  0.00    -0.375 N 
HETATM   11  C   LIG     1      27.879  25.894  20.678  1.00  0.00     0.150 C 
HETATM   12  C   LIG     1      28.467  27.101  18.524  1.00  0.00     0.150 C 
ENDBRANCH   8  10
ENDBRANCH   7   8
ENDBRANCH   1   7
TORSDOF 5
ENDMDL
MODEL 18
REMARK VINA RESULT:      -2.4     15.647     16.496
REMARK  5 active torsions:
REMARK  status: ('A' for Active; 'I' for Inactive)
REMARK    1  A    between atoms: C_2  and  N_10 
REMARK    2  A    between atoms: C_2  and  S_3 
REMARK    3  A    between atoms: S_3  and  S_4 
REMARK    4  A    between atoms: S_4  and  C_5 
REMARK    5  A    between atoms: C_5  and  N_6 
ROOT
HETATM    1  S   LIG     1      26.267  25.216  19.331  1.00  0.00    -0.021 SA
ENDROOT
BRANCH   1   2
HETATM    2  C   LIG     1      27.999  25.689  19.314  1.00  0.00     0.147 C 
HETATM    3  S   LIG     1      28.910  25.322  20.628  1.00  0.00    -0.052 SA
BRANCH   2   4
HETATM    4  N   LIG     1      28.590  26.288  18.140  1.00  0.00    -0.375 N 
HETATM    5  C   LIG     1      28.889  25.468  16.962  1.00  0.00     0.150 C 
HETATM    6  C   LIG     1      28.875  27.727  18.125  1.00  0.00     0.150 C 
ENDBRANCH   2   4
ENDBRANCH   1   2
BRANCH   1   7
HETATM    7  S   LIG     1      26.692  23.150  19.000  1.00  0.00    -0.021 SA
BRANCH   7   8
HETATM    8  C   LIG     1      25.411  22.584  20.125  1.00  0.00     0.147 C 
HETATM    9  S   LIG     1      25.650  22.833  21.730  1.00  0.00    -0.052 SA
BRANCH   8  10
HETATM   10  N   LIG     1      24.263  21.848  19.642  1.00  0.00    -0.375 N 
HETATM   11  C   LIG     1      23.791  22.055  18.269  1.00  0.00     0.150 C 
HETATM   12  C   LIG     1      23.560  20.906  20.521  1.00  0.00     0.150 C 
ENDBRANCH   8  10
ENDBRANCH   7   8
ENDBRANCH   1   7
TORSDOF 5
ENDMDL
MODEL 19
REMARK VINA RESULT:      -2.2     20.100     21.523
REMARK  5 active torsions:
REMARK  status: ('A' for Active; 'I' for Inactive)
REMARK    1  A    between atoms: C_2  and  N_10 
REMARK    2  A    between atoms: C_2  and  S_3 
REMARK    3  A    between atoms: S_3  and  S_4 
REMARK    4  A    between atoms: S_4  and  C_5 
REMARK    5  A    between atoms: C_5  and  N_6 
ROOT
HETATM    1  S   LIG     1      15.820  19.792  13.439  1.00  0.00    -0.021 SA
ENDROOT
BRANCH   1   2
HETATM    2  C   LIG     1      15.841  18.690  14.858  1.00  0.00     0.147 C 
HETATM    3  S   LIG     1      17.264  17.979  15.259  1.00  0.00    -0.052 SA
BRANCH   2   4
HETATM    4  N   LIG     1      14.663  18.514  15.675  1.00  0.00    -0.375 N 
HETATM    5  C   LIG     1      14.773  18.492  17.137  1.00  0.00     0.150 C 
HETATM    6  C   LIG     1      13.351  18.373  15.034  1.00  0.00     0.150 C 
ENDBRANCH   2   4
ENDBRANCH   1   2
BRANCH   1   7
HETATM    7  S   LIG     1      15.601  18.196  12.038  1.00  0.00    -0.021 SA
BRANCH   7   8
HETATM    8  C   LIG     1      14.631  19.180  10.890  1.00  0.00     0.147 C 
HETATM    9  S   LIG     1      13.166  18.591  10.439  1.00  0.00    -0.052 SA
BRANCH   8  10
HETATM   10  N   LIG     1      15.164  20.392  10.308  1.00  0.00    -0.375 N 
HETATM   11  C   LIG     1      14.265  21.510  10.005  1.00  0.00     0.150 C 
HETATM   12  C   LIG     1      16.596  20.505  10.007  1.00  0.00     0.150 C 
ENDBRANCH   8  10
ENDBRANCH   7   8
ENDBRANCH   1   7
TORSDOF 5
ENDMDL
MODEL 20
REMARK VINA RESULT:      -2.2     15.876     17.154
REMARK  5 active torsions:
REMARK  status: ('A' for Active; 'I' for Inactive)
REMARK    1  A    between atoms: C_2  and  N_10 
REMARK    2  A    between atoms: C_2  and  S_3 
REMARK    3  A    between atoms: S_3  and  S_4 
REMARK    4  A    between atoms: S_4  and  C_5 
REMARK    5  A    between atoms: C_5  and  N_6 
ROOT
HETATM    1  S   LIG     1      26.086  22.532  22.029  1.00  0.00    -0.021 SA
ENDROOT
BRANCH   1   2
HETATM    2  C   LIG     1      25.635  22.591  23.767  1.00  0.00     0.147 C 
HETATM    3  S   LIG     1      24.572  21.473  24.325  1.00  0.00    -0.052 SA
BRANCH   2   4
HETATM    4  N   LIG     1      26.264  23.534  24.662  1.00  0.00    -0.375 N 
HETATM    5  C   LIG     1      25.647  23.851  25.955  1.00  0.00     0.150 C 
HETATM    6  C   LIG     1      27.532  24.163  24.279  1.00  0.00     0.150 C 
ENDBRANCH   2   4
ENDBRANCH   1   2
BRANCH   1   7
HETATM    7  S   LIG     1      24.750  20.923  21.601  1.00  0.00    -0.021 SA
BRANCH   7   8
HETATM    8  C   LIG     1      23.700  21.921  20.538  1.00  0.00     0.147 C 
HETATM    9  S   LIG     1      22.503  22.786  21.255  1.00  0.00    -0.052 SA
BRANCH   8  10
HETATM   10  N   LIG     1      23.842  21.884  19.100  1.00  0.00    -0.375 N 
HETATM   11  C   LIG     1      24.902  22.663  18.452  1.00  0.00     0.150 C 
HETATM   12  C   LIG     1      22.923  21.082  18.282  1.00  0.00     0.150 C 
ENDBRANCH   8  10
ENDBRANCH   7   8
ENDBRANCH   1   7
TORSDOF 5
ENDMDL
