REMARK  9 active torsions:
REMARK  status: ('A' for Active; 'I' for Inactive)
REMARK    1  A    between atoms: O_1  and  C_2 
REMARK    2  A    between atoms: C_3  and  O_10 
REMARK    3  A    between atoms: C_4  and  O_9 
REMARK    4  A    between atoms: C_5  and  C_6 
REMARK    5  A    between atoms: C_6  and  O_7 
REMARK    6  A    between atoms: C_11  and  O_12 
REMARK    7  A    between atoms: O_12  and  C_13 
REMARK    8  A    between atoms: C_18  and  C_19 
REMARK    9  A    between atoms: C_19  and  O_20 
ROOT
HETATM    1  C   LIG     1      -1.075  -0.177  -1.978  1.00  0.00     0.205 C 
HETATM    2  C   LIG     1      -2.281   0.649  -1.483  1.00  0.00     0.183 C 
HETATM    3  C   LIG     1      -2.950  -0.026  -0.270  1.00  0.00     0.180 C 
HETATM    4  C   LIG     1      -1.884  -0.407   0.786  1.00  0.00     0.179 C 
HETATM    5  O   LIG     1      -0.900  -1.256   0.214  1.00  0.00    -0.348 OA
HETATM    6  C   LIG     1      -0.164  -0.598  -0.804  1.00  0.00     0.298 C 
ENDROOT
BRANCH   6   7
HETATM    7  O   LIG     1       0.530   0.538  -0.280  1.00  0.00    -0.317 OA
BRANCH   7   8
HETATM    8  C   LIG     1       1.923   0.652  -0.297  1.00  0.00     0.080 A 
HETATM    9  C   LIG     1       2.503   1.604  -1.143  1.00  0.00     0.037 A 
HETATM   10  C   LIG     1       3.891   1.752  -1.195  1.00  0.00     0.003 A 
HETATM   11  C   LIG     1       4.708   0.955  -0.392  1.00  0.00     0.001 A 
HETATM   12  C   LIG     1       4.140   0.013   0.471  1.00  0.00     0.012 A 
HETATM   13  C   LIG     1       2.744  -0.145   0.534  1.00  0.00    -0.001 A 
BRANCH  13  14
HETATM   14  C   LIG     1       2.152  -1.134   1.509  1.00  0.00     0.205 C 
BRANCH  14  15
HETATM   15  O   LIG     1       1.259  -0.493   2.379  1.00  0.00    -0.396 OA
HETATM   16  H   LIG     1       1.812   0.040   3.009  1.00  0.00     0.209 HD
ENDBRANCH  14  15
ENDBRANCH  13  14
ENDBRANCH   7   8
ENDBRANCH   6   7
BRANCH   1  17
HETATM   17  O   LIG     1      -1.502  -1.296  -2.716  1.00  0.00    -0.388 OA
HETATM   18  H   LIG     1      -1.933  -1.934  -2.091  1.00  0.00     0.210 HD
ENDBRANCH   1  17
BRANCH   2  19
HETATM   19  O   LIG     1      -1.863   1.944  -1.127  1.00  0.00    -0.390 OA
HETATM   20  H   LIG     1      -1.721   2.444  -1.973  1.00  0.00     0.210 HD
ENDBRANCH   2  19
BRANCH   4  21
HETATM   21  C   LIG     1      -2.512  -1.153   1.972  1.00  0.00     0.198 C 
BRANCH  21  22
HETATM   22  O   LIG     1      -3.320  -0.290   2.723  1.00  0.00    -0.398 OA
HETATM   23  H   LIG     1      -3.699  -0.839   3.458  1.00  0.00     0.209 HD
ENDBRANCH  21  22
ENDBRANCH   4  21
BRANCH   3  24
HETATM   24  O   LIG     1      -3.899   0.845   0.293  1.00  0.00    -0.390 OA
HETATM   25  H   LIG     1      -4.681   0.851  -0.318  1.00  0.00     0.210 HD
ENDBRANCH   3  24
TORSDOF 9
