MODEL 1
REMARK VINA RESULT:      -5.5      0.000      0.000
REMARK  9 active torsions:
REMARK  status: ('A' for Active; 'I' for Inactive)
REMARK    1  A    between atoms: O_1  and  C_2 
REMARK    2  A    between atoms: C_3  and  O_10 
REMARK    3  A    between atoms: C_4  and  O_9 
REMARK    4  A    between atoms: C_5  and  C_6 
REMARK    5  A    between atoms: C_6  and  O_7 
REMARK    6  A    between atoms: C_11  and  O_12 
REMARK    7  A    between atoms: O_12  and  C_13 
REMARK    8  A    between atoms: C_18  and  C_19 
REMARK    9  A    between atoms: C_19  and  O_20 
ROOT
HETATM    1  C   LIG     1      17.058  34.574  14.305  1.00  0.00     0.205 C 
HETATM    2  C   LIG     1      17.019  34.729  12.770  1.00  0.00     0.183 C 
HETATM    3  C   LIG     1      18.423  34.542  12.162  1.00  0.00     0.180 C 
HETATM    4  C   LIG     1      19.080  33.256  12.718  1.00  0.00     0.179 C 
HETATM    5  O   LIG     1      19.146  33.304  14.136  1.00  0.00    -0.348 OA
HETATM    6  C   LIG     1      17.855  33.319  14.722  1.00  0.00     0.298 C 
ENDROOT
BRANCH   6   7
HETATM    7  O   LIG     1      17.127  32.133  14.387  1.00  0.00    -0.317 OA
BRANCH   7   8
HETATM    8  C   LIG     1      15.947  31.756  15.034  1.00  0.00     0.080 A 
HETATM    9  C   LIG     1      15.565  32.458  16.183  1.00  0.00     0.037 A 
HETATM   10  C   LIG     1      14.395  32.115  16.865  1.00  0.00     0.003 A 
HETATM   11  C   LIG     1      13.593  31.074  16.394  1.00  0.00     0.001 A 
HETATM   12  C   LIG     1      13.955  30.378  15.237  1.00  0.00     0.012 A 
HETATM   13  C   LIG     1      15.129  30.714  14.541  1.00  0.00    -0.001 A 
BRANCH  13  14
HETATM   14  C   LIG     1      15.473  29.980  13.267  1.00  0.00     0.205 C 
BRANCH  14  15
HETATM   15  O   LIG     1      14.979  28.669  13.305  1.00  0.00    -0.396 OA
HETATM   16  H   LIG     1      14.782  28.414  12.366  1.00  0.00     0.209 HD
ENDBRANCH  14  15
ENDBRANCH  13  14
ENDBRANCH   7   8
ENDBRANCH   6   7
BRANCH   1  17
HETATM   17  O   LIG     1      17.579  35.731  14.913  1.00  0.00    -0.388 OA
HETATM   18  H   LIG     1      17.287  35.742  15.861  1.00  0.00     0.210 HD
ENDBRANCH   1  17
BRANCH   2  19
HETATM   19  O   LIG     1      16.139  33.784  12.214  1.00  0.00    -0.390 OA
HETATM   20  H   LIG     1      15.520  34.282  11.618  1.00  0.00     0.210 HD
ENDBRANCH   2  19
BRANCH   4  21
HETATM   21  C   LIG     1      20.512  33.085  12.191  1.00  0.00     0.198 C 
BRANCH  21  22
HETATM   22  O   LIG     1      20.508  32.387  10.976  1.00  0.00    -0.398 OA
HETATM   23  H   LIG     1      21.281  31.765  11.015  1.00  0.00     0.209 HD
ENDBRANCH  21  22
ENDBRANCH   4  21
BRANCH   3  24
HETATM   24  O   LIG     1      18.327  34.470  10.762  1.00  0.00    -0.390 OA
HETATM   25  H   LIG     1      19.231  34.241  10.424  1.00  0.00     0.210 HD
ENDBRANCH   3  24
TORSDOF 9
ENDMDL
MODEL 2
REMARK VINA RESULT:      -4.4      4.242      6.184
REMARK  9 active torsions:
REMARK  status: ('A' for Active; 'I' for Inactive)
REMARK    1  A    between atoms: O_1  and  C_2 
REMARK    2  A    between atoms: C_3  and  O_10 
REMARK    3  A    between atoms: C_4  and  O_9 
REMARK    4  A    between atoms: C_5  and  C_6 
REMARK    5  A    between atoms: C_6  and  O_7 
REMARK    6  A    between atoms: C_11  and  O_12 
REMARK    7  A    between atoms: O_12  and  C_13 
REMARK    8  A    between atoms: C_18  and  C_19 
REMARK    9  A    between atoms: C_19  and  O_20 
ROOT
HETATM    1  C   LIG     1      13.666  33.846  17.356  1.00  0.00     0.205 C 
HETATM    2  C   LIG     1      13.751  32.375  16.898  1.00  0.00     0.183 C 
HETATM    3  C   LIG     1      14.766  32.212  15.751  1.00  0.00     0.180 C 
HETATM    4  C   LIG     1      16.101  32.908  16.114  1.00  0.00     0.179 C 
HETATM    5  O   LIG     1      15.882  34.281  16.405  1.00  0.00    -0.348 OA
HETATM    6  C   LIG     1      15.073  34.452  17.557  1.00  0.00     0.298 C 
ENDROOT
BRANCH   6   7
HETATM    7  O   LIG     1      15.699  33.884  18.711  1.00  0.00    -0.317 OA
BRANCH   7   8
HETATM    8  C   LIG     1      16.075  34.643  19.823  1.00  0.00     0.080 A 
HETATM    9  C   LIG     1      17.018  35.662  19.646  1.00  0.00     0.037 A 
HETATM   10  C   LIG     1      17.426  36.445  20.729  1.00  0.00     0.003 A 
HETATM   11  C   LIG     1      16.884  36.220  21.995  1.00  0.00     0.001 A 
HETATM   12  C   LIG     1      15.928  35.217  22.181  1.00  0.00     0.012 A 
HETATM   13  C   LIG     1      15.508  34.423  21.099  1.00  0.00    -0.001 A 
BRANCH  13  14
HETATM   14  C   LIG     1      14.439  33.379  21.315  1.00  0.00     0.205 C 
BRANCH  14  15
HETATM   15  O   LIG     1      14.689  32.247  20.527  1.00  0.00    -0.396 OA
HETATM   16  H   LIG     1      14.470  31.458  21.088  1.00  0.00     0.209 HD
ENDBRANCH  14  15
ENDBRANCH  13  14
ENDBRANCH   7   8
ENDBRANCH   6   7
BRANCH   1  17
HETATM   17  O   LIG     1      12.909  34.611  16.450  1.00  0.00    -0.388 OA
HETATM   18  H   LIG     1      11.968  34.301  16.493  1.00  0.00     0.210 HD
ENDBRANCH   1  17
BRANCH   2  19
HETATM   19  O   LIG     1      14.129  31.556  17.978  1.00  0.00    -0.390 OA
HETATM   20  H   LIG     1      14.977  31.110  17.718  1.00  0.00     0.210 HD
ENDBRANCH   2  19
BRANCH   4  21
HETATM   21  C   LIG     1      17.106  32.831  14.956  1.00  0.00     0.198 C 
BRANCH  21  22
HETATM   22  O   LIG     1      16.534  33.321  13.775  1.00  0.00    -0.398 OA
HETATM   23  H   LIG     1      17.293  33.569  13.185  1.00  0.00     0.209 HD
ENDBRANCH  21  22
ENDBRANCH   4  21
BRANCH   3  24
HETATM   24  O   LIG     1      14.985  30.846  15.501  1.00  0.00    -0.390 OA
HETATM   25  H   LIG     1      14.098  30.403  15.535  1.00  0.00     0.210 HD
ENDBRANCH   3  24
TORSDOF 9
ENDMDL
MODEL 3
REMARK VINA RESULT:      -4.4      1.175      2.151
REMARK  9 active torsions:
REMARK  status: ('A' for Active; 'I' for Inactive)
REMARK    1  A    between atoms: O_1  and  C_2 
REMARK    2  A    between atoms: C_3  and  O_10 
REMARK    3  A    between atoms: C_4  and  O_9 
REMARK    4  A    between atoms: C_5  and  C_6 
REMARK    5  A    between atoms: C_6  and  O_7 
REMARK    6  A    between atoms: C_11  and  O_12 
REMARK    7  A    between atoms: O_12  and  C_13 
REMARK    8  A    between atoms: C_18  and  C_19 
REMARK    9  A    between atoms: C_19  and  O_20 
ROOT
HETATM    1  C   LIG     1      17.027  34.694  13.877  1.00  0.00     0.205 C 
HETATM    2  C   LIG     1      17.216  35.185  12.426  1.00  0.00     0.183 C 
HETATM    3  C   LIG     1      18.612  34.806  11.895  1.00  0.00     0.180 C 
HETATM    4  C   LIG     1      18.901  33.310  12.169  1.00  0.00     0.179 C 
HETATM    5  O   LIG     1      18.796  33.030  13.557  1.00  0.00    -0.348 OA
HETATM    6  C   LIG     1      17.475  33.224  14.035  1.00  0.00     0.298 C 
ENDROOT
BRANCH   6   7
HETATM    7  O   LIG     1      16.558  32.350  13.370  1.00  0.00    -0.317 OA
BRANCH   7   8
HETATM    8  C   LIG     1      15.642  31.547  14.055  1.00  0.00     0.080 A 
HETATM    9  C   LIG     1      15.218  30.357  13.452  1.00  0.00     0.037 A 
HETATM   10  C   LIG     1      14.302  29.524  14.098  1.00  0.00     0.003 A 
HETATM   11  C   LIG     1      13.812  29.870  15.358  1.00  0.00     0.001 A 
HETATM   12  C   LIG     1      14.241  31.047  15.979  1.00  0.00     0.012 A 
HETATM   13  C   LIG     1      15.164  31.894  15.340  1.00  0.00    -0.001 A 
BRANCH  13  14
HETATM   14  C   LIG     1      15.651  33.133  16.052  1.00  0.00     0.205 C 
BRANCH  14  15
HETATM   15  O   LIG     1      15.722  32.911  17.434  1.00  0.00    -0.396 OA
HETATM   16  H   LIG     1      16.503  33.430  17.763  1.00  0.00     0.209 HD
ENDBRANCH  14  15
ENDBRANCH  13  14
ENDBRANCH   7   8
ENDBRANCH   6   7
BRANCH   1  17
HETATM   17  O   LIG     1      17.704  35.531  14.783  1.00  0.00    -0.388 OA
HETATM   18  H   LIG     1      18.677  35.458  14.605  1.00  0.00     0.210 HD
ENDBRANCH   1  17
BRANCH   2  19
HETATM   19  O   LIG     1      16.230  34.623  11.596  1.00  0.00    -0.390 OA
HETATM   20  H   LIG     1      15.572  35.341  11.403  1.00  0.00     0.210 HD
ENDBRANCH   2  19
BRANCH   4  21
HETATM   21  C   LIG     1      20.317  32.922  11.720  1.00  0.00     0.198 C 
BRANCH  21  22
HETATM   22  O   LIG     1      20.322  32.555  10.369  1.00  0.00    -0.398 OA
HETATM   23  H   LIG     1      20.531  31.585  10.348  1.00  0.00     0.209 HD
ENDBRANCH  21  22
ENDBRANCH   4  21
BRANCH   3  24
HETATM   24  O   LIG     1      18.680  35.067  10.515  1.00  0.00    -0.390 OA
HETATM   25  H   LIG     1      17.924  35.672  10.300  1.00  0.00     0.210 HD
ENDBRANCH   3  24
TORSDOF 9
ENDMDL
MODEL 4
REMARK VINA RESULT:      -4.4     23.561     25.076
REMARK  9 active torsions:
REMARK  status: ('A' for Active; 'I' for Inactive)
REMARK    1  A    between atoms: O_1  and  C_2 
REMARK    2  A    between atoms: C_3  and  O_10 
REMARK    3  A    between atoms: C_4  and  O_9 
REMARK    4  A    between atoms: C_5  and  C_6 
REMARK    5  A    between atoms: C_6  and  O_7 
REMARK    6  A    between atoms: C_11  and  O_12 
REMARK    7  A    between atoms: O_12  and  C_13 
REMARK    8  A    between atoms: C_18  and  C_19 
REMARK    9  A    between atoms: C_19  and  O_20 
ROOT
HETATM    1  C   LIG     1      28.205  28.500  33.296  1.00  0.00     0.205 C 
HETATM    2  C   LIG     1      26.931  27.630  33.278  1.00  0.00     0.183 C 
HETATM    3  C   LIG     1      27.058  26.446  34.255  1.00  0.00     0.180 C 
HETATM    4  C   LIG     1      27.543  26.943  35.639  1.00  0.00     0.179 C 
HETATM    5  O   LIG     1      28.780  27.631  35.513  1.00  0.00    -0.348 OA
HETATM    6  C   LIG     1      28.649  28.814  34.742  1.00  0.00     0.298 C 
ENDROOT
BRANCH   6   7
HETATM    7  O   LIG     1      27.734  29.726  35.357  1.00  0.00    -0.317 OA
BRANCH   7   8
HETATM    8  C   LIG     1      28.131  30.687  36.291  1.00  0.00     0.080 A 
HETATM    9  C   LIG     1      29.487  31.028  36.360  1.00  0.00     0.037 A 
HETATM   10  C   LIG     1      29.930  31.982  37.279  1.00  0.00     0.003 A 
HETATM   11  C   LIG     1      29.018  32.608  38.129  1.00  0.00     0.001 A 
HETATM   12  C   LIG     1      27.659  32.289  38.058  1.00  0.00     0.012 A 
HETATM   13  C   LIG     1      27.199  31.332  37.136  1.00  0.00    -0.001 A 
BRANCH  13  14
HETATM   14  C   LIG     1      25.720  31.040  37.044  1.00  0.00     0.205 C 
BRANCH  14  15
HETATM   15  O   LIG     1      25.416  29.834  37.690  1.00  0.00    -0.396 OA
HETATM   16  H   LIG     1      26.091  29.721  38.410  1.00  0.00     0.209 HD
ENDBRANCH  14  15
ENDBRANCH  13  14
ENDBRANCH   7   8
ENDBRANCH   6   7
BRANCH   1  17
HETATM   17  O   LIG     1      29.242  27.887  32.569  1.00  0.00    -0.388 OA
HETATM   18  H   LIG     1      29.777  28.599  32.132  1.00  0.00     0.210 HD
ENDBRANCH   1  17
BRANCH   2  19
HETATM   19  O   LIG     1      25.812  28.408  33.627  1.00  0.00    -0.390 OA
HETATM   20  H   LIG     1      25.078  27.776  33.846  1.00  0.00     0.210 HD
ENDBRANCH   2  19
BRANCH   4  21
HETATM   21  C   LIG     1      27.755  25.775  36.612  1.00  0.00     0.198 C 
BRANCH  21  22
HETATM   22  O   LIG     1      28.092  24.609  35.913  1.00  0.00    -0.398 OA
HETATM   23  H   LIG     1      28.331  24.899  34.994  1.00  0.00     0.209 HD
ENDBRANCH  21  22
ENDBRANCH   4  21
BRANCH   3  24
HETATM   24  O   LIG     1      25.815  25.801  34.382  1.00  0.00    -0.390 OA
HETATM   25  H   LIG     1      25.886  25.194  35.164  1.00  0.00     0.210 HD
ENDBRANCH   3  24
TORSDOF 9
ENDMDL
MODEL 5
REMARK VINA RESULT:      -4.3     20.610     21.853
REMARK  9 active torsions:
REMARK  status: ('A' for Active; 'I' for Inactive)
REMARK    1  A    between atoms: O_1  and  C_2 
REMARK    2  A    between atoms: C_3  and  O_10 
REMARK    3  A    between atoms: C_4  and  O_9 
REMARK    4  A    between atoms: C_5  and  C_6 
REMARK    5  A    between atoms: C_6  and  O_7 
REMARK    6  A    between atoms: C_11  and  O_12 
REMARK    7  A    between atoms: O_12  and  C_13 
REMARK    8  A    between atoms: C_18  and  C_19 
REMARK    9  A    between atoms: C_19  and  O_20 
ROOT
HETATM    1  C   LIG     1      28.868  28.700  29.798  1.00  0.00     0.205 C 
HETATM    2  C   LIG     1      27.965  27.603  29.195  1.00  0.00     0.183 C 
HETATM    3  C   LIG     1      28.749  26.291  28.999  1.00  0.00     0.180 C 
HETATM    4  C   LIG     1      29.520  25.929  30.292  1.00  0.00     0.179 C 
HETATM    5  O   LIG     1      30.391  26.988  30.663  1.00  0.00    -0.348 OA
HETATM    6  C   LIG     1      29.675  28.164  31.001  1.00  0.00     0.298 C 
ENDROOT
BRANCH   6   7
HETATM    7  O   LIG     1      28.810  27.934  32.117  1.00  0.00    -0.317 OA
BRANCH   7   8
HETATM    8  C   LIG     1      28.347  28.961  32.944  1.00  0.00     0.080 A 
HETATM    9  C   LIG     1      29.016  30.190  32.918  1.00  0.00     0.037 A 
HETATM   10  C   LIG     1      28.590  31.245  33.729  1.00  0.00     0.003 A 
HETATM   11  C   LIG     1      27.485  31.080  34.565  1.00  0.00     0.001 A 
HETATM   12  C   LIG     1      26.797  29.863  34.587  1.00  0.00     0.012 A 
HETATM   13  C   LIG     1      27.214  28.794  33.774  1.00  0.00    -0.001 A 
BRANCH  13  14
HETATM   14  C   LIG     1      26.426  27.506  33.779  1.00  0.00     0.205 C 
BRANCH  14  15
HETATM   15  O   LIG     1      25.785  27.317  32.547  1.00  0.00    -0.396 OA
HETATM   16  H   LIG     1      26.236  27.919  31.898  1.00  0.00     0.209 HD
ENDBRANCH  14  15
ENDBRANCH  13  14
ENDBRANCH   7   8
ENDBRANCH   6   7
BRANCH   1  17
HETATM   17  O   LIG     1      29.718  29.244  28.818  1.00  0.00    -0.388 OA
HETATM   18  H   LIG     1      29.736  28.625  28.044  1.00  0.00     0.210 HD
ENDBRANCH   1  17
BRANCH   2  19
HETATM   19  O   LIG     1      26.865  27.369  30.040  1.00  0.00    -0.390 OA
HETATM   20  H   LIG     1      26.595  28.249  30.412  1.00  0.00     0.210 HD
ENDBRANCH   2  19
BRANCH   4  21
HETATM   21  C   LIG     1      30.374  24.668  30.100  1.00  0.00     0.198 C 
BRANCH  21  22
HETATM   22  O   LIG     1      29.592  23.517  30.255  1.00  0.00    -0.398 OA
HETATM   23  H   LIG     1      29.917  22.871  29.575  1.00  0.00     0.209 HD
ENDBRANCH  21  22
ENDBRANCH   4  21
BRANCH   3  24
HETATM   24  O   LIG     1      27.862  25.255  28.659  1.00  0.00    -0.390 OA
HETATM   25  H   LIG     1      26.946  25.631  28.720  1.00  0.00     0.210 HD
ENDBRANCH   3  24
TORSDOF 9
ENDMDL
MODEL 6
REMARK VINA RESULT:      -4.3     13.721     14.385
REMARK  9 active torsions:
REMARK  status: ('A' for Active; 'I' for Inactive)
REMARK    1  A    between atoms: O_1  and  C_2 
REMARK    2  A    between atoms: C_3  and  O_10 
REMARK    3  A    between atoms: C_4  and  O_9 
REMARK    4  A    between atoms: C_5  and  C_6 
REMARK    5  A    between atoms: C_6  and  O_7 
REMARK    6  A    between atoms: C_11  and  O_12 
REMARK    7  A    between atoms: O_12  and  C_13 
REMARK    8  A    between atoms: C_18  and  C_19 
REMARK    9  A    between atoms: C_19  and  O_20 
ROOT
HETATM    1  C   LIG     1      27.834  24.932  20.897  1.00  0.00     0.205 C 
HETATM    2  C   LIG     1      28.032  26.007  19.807  1.00  0.00     0.183 C 
HETATM    3  C   LIG     1      28.796  25.431  18.599  1.00  0.00     0.180 C 
HETATM    4  C   LIG     1      28.161  24.092  18.152  1.00  0.00     0.179 C 
HETATM    5  O   LIG     1      28.146  23.166  19.229  1.00  0.00    -0.348 OA
HETATM    6  C   LIG     1      27.318  23.608  20.292  1.00  0.00     0.298 C 
ENDROOT
BRANCH   6   7
HETATM    7  O   LIG     1      25.963  23.753  19.858  1.00  0.00    -0.317 OA
BRANCH   7   8
HETATM    8  C   LIG     1      24.915  22.978  20.364  1.00  0.00     0.080 A 
HETATM    9  C   LIG     1      24.561  23.135  21.709  1.00  0.00     0.037 A 
HETATM   10  C   LIG     1      23.522  22.380  22.259  1.00  0.00     0.003 A 
HETATM   11  C   LIG     1      22.824  21.470  21.463  1.00  0.00     0.001 A 
HETATM   12  C   LIG     1      23.156  21.318  20.114  1.00  0.00     0.012 A 
HETATM   13  C   LIG     1      24.199  22.073  19.548  1.00  0.00    -0.001 A 
BRANCH  13  14
HETATM   14  C   LIG     1      24.507  21.927  18.077  1.00  0.00     0.205 C 
BRANCH  14  15
HETATM   15  O   LIG     1      25.833  21.511  17.891  1.00  0.00    -0.396 OA
HETATM   16  H   LIG     1      25.815  20.518  17.853  1.00  0.00     0.209 HD
ENDBRANCH  14  15
ENDBRANCH  13  14
ENDBRANCH   7   8
ENDBRANCH   6   7
BRANCH   1  17
HETATM   17  O   LIG     1      29.021  24.730  21.624  1.00  0.00    -0.388 OA
HETATM   18  H   LIG     1      29.303  23.787  21.502  1.00  0.00     0.210 HD
ENDBRANCH   1  17
BRANCH   2  19
HETATM   19  O   LIG     1      26.783  26.496  19.381  1.00  0.00    -0.390 OA
HETATM   20  H   LIG     1      26.225  25.706  19.159  1.00  0.00     0.210 HD
ENDBRANCH   2  19
BRANCH   4  21
HETATM   21  C   LIG     1      28.950  23.454  16.999  1.00  0.00     0.198 C 
BRANCH  21  22
HETATM   22  O   LIG     1      28.713  24.143  15.803  1.00  0.00    -0.398 OA
HETATM   23  H   LIG     1      27.747  24.028  15.606  1.00  0.00     0.209 HD
ENDBRANCH  21  22
ENDBRANCH   4  21
BRANCH   3  24
HETATM   24  O   LIG     1      28.772  26.354  17.539  1.00  0.00    -0.390 OA
HETATM   25  H   LIG     1      28.386  27.194  17.899  1.00  0.00     0.210 HD
ENDBRANCH   3  24
TORSDOF 9
ENDMDL
MODEL 7
REMARK VINA RESULT:      -4.2     13.767     15.486
REMARK  9 active torsions:
REMARK  status: ('A' for Active; 'I' for Inactive)
REMARK    1  A    between atoms: O_1  and  C_2 
REMARK    2  A    between atoms: C_3  and  O_10 
REMARK    3  A    between atoms: C_4  and  O_9 
REMARK    4  A    between atoms: C_5  and  C_6 
REMARK    5  A    between atoms: C_6  and  O_7 
REMARK    6  A    between atoms: C_11  and  O_12 
REMARK    7  A    between atoms: O_12  and  C_13 
REMARK    8  A    between atoms: C_18  and  C_19 
REMARK    9  A    between atoms: C_19  and  O_20 
ROOT
HETATM    1  C   LIG     1      26.198  21.622  19.645  1.00  0.00     0.205 C 
HETATM    2  C   LIG     1      25.009  21.914  18.705  1.00  0.00     0.183 C 
HETATM    3  C   LIG     1      23.668  21.742  19.443  1.00  0.00     0.180 C 
HETATM    4  C   LIG     1      23.697  22.505  20.790  1.00  0.00     0.179 C 
HETATM    5  O   LIG     1      24.777  22.054  21.593  1.00  0.00    -0.348 OA
HETATM    6  C   LIG     1      26.032  22.345  21.000  1.00  0.00     0.298 C 
ENDROOT
BRANCH   6   7
HETATM    7  O   LIG     1      26.205  23.755  20.836  1.00  0.00    -0.317 OA
BRANCH   7   8
HETATM    8  C   LIG     1      27.391  24.418  21.162  1.00  0.00     0.080 A 
HETATM    9  C   LIG     1      28.056  24.055  22.339  1.00  0.00     0.037 A 
HETATM   10  C   LIG     1      29.244  24.691  22.706  1.00  0.00     0.003 A 
HETATM   11  C   LIG     1      29.780  25.690  21.892  1.00  0.00     0.001 A 
HETATM   12  C   LIG     1      29.136  26.049  20.705  1.00  0.00     0.012 A 
HETATM   13  C   LIG     1      27.941  25.415  20.323  1.00  0.00    -0.001 A 
BRANCH  13  14
HETATM   14  C   LIG     1      27.289  25.786  19.012  1.00  0.00     0.205 C 
BRANCH  14  15
HETATM   15  O   LIG     1      25.915  25.998  19.188  1.00  0.00    -0.396 OA
HETATM   16  H   LIG     1      25.465  25.142  18.958  1.00  0.00     0.209 HD
ENDBRANCH  14  15
ENDBRANCH  13  14
ENDBRANCH   7   8
ENDBRANCH   6   7
BRANCH   1  17
HETATM   17  O   LIG     1      26.366  20.237  19.826  1.00  0.00    -0.388 OA
HETATM   18  H   LIG     1      27.100  19.933  19.232  1.00  0.00     0.210 HD
ENDBRANCH   1  17
BRANCH   2  19
HETATM   19  O   LIG     1      25.104  23.225  18.204  1.00  0.00    -0.390 OA
HETATM   20  H   LIG     1      25.007  23.165  17.218  1.00  0.00     0.210 HD
ENDBRANCH   2  19
BRANCH   4  21
HETATM   21  C   LIG     1      22.401  22.287  21.585  1.00  0.00     0.198 C 
BRANCH  21  22
HETATM   22  O   LIG     1      21.430  23.224  21.208  1.00  0.00    -0.398 OA
HETATM   23  H   LIG     1      20.636  23.037  21.773  1.00  0.00     0.209 HD
ENDBRANCH  21  22
ENDBRANCH   4  21
BRANCH   3  24
HETATM   24  O   LIG     1      22.620  22.221  18.638  1.00  0.00    -0.390 OA
HETATM   25  H   LIG     1      22.418  21.510  17.976  1.00  0.00     0.210 HD
ENDBRANCH   3  24
TORSDOF 9
ENDMDL
MODEL 8
REMARK VINA RESULT:      -4.2     22.512     24.062
REMARK  9 active torsions:
REMARK  status: ('A' for Active; 'I' for Inactive)
REMARK    1  A    between atoms: O_1  and  C_2 
REMARK    2  A    between atoms: C_3  and  O_10 
REMARK    3  A    between atoms: C_4  and  O_9 
REMARK    4  A    between atoms: C_5  and  C_6 
REMARK    5  A    between atoms: C_6  and  O_7 
REMARK    6  A    between atoms: C_11  and  O_12 
REMARK    7  A    between atoms: O_12  and  C_13 
REMARK    8  A    between atoms: C_18  and  C_19 
REMARK    9  A    between atoms: C_19  and  O_20 
ROOT
HETATM    1  C   LIG     1      26.722  30.564  35.013  1.00  0.00     0.205 C 
HETATM    2  C   LIG     1      27.804  31.039  36.005  1.00  0.00     0.183 C 
HETATM    3  C   LIG     1      27.937  30.057  37.185  1.00  0.00     0.180 C 
HETATM    4  C   LIG     1      28.058  28.605  36.662  1.00  0.00     0.179 C 
HETATM    5  O   LIG     1      26.939  28.274  35.853  1.00  0.00    -0.348 OA
HETATM    6  C   LIG     1      26.886  29.066  34.678  1.00  0.00     0.298 C 
ENDROOT
BRANCH   6   7
HETATM    7  O   LIG     1      28.050  28.860  33.871  1.00  0.00    -0.317 OA
BRANCH   7   8
HETATM    8  C   LIG     1      27.990  28.378  32.561  1.00  0.00     0.080 A 
HETATM    9  C   LIG     1      27.043  27.394  32.255  1.00  0.00     0.037 A 
HETATM   10  C   LIG     1      26.949  26.881  30.959  1.00  0.00     0.003 A 
HETATM   11  C   LIG     1      27.795  27.357  29.957  1.00  0.00     0.001 A 
HETATM   12  C   LIG     1      28.734  28.353  30.245  1.00  0.00     0.012 A 
HETATM   13  C   LIG     1      28.838  28.879  31.545  1.00  0.00    -0.001 A 
BRANCH  13  14
HETATM   14  C   LIG     1      29.825  29.988  31.821  1.00  0.00     0.205 C 
BRANCH  14  15
HETATM   15  O   LIG     1      29.194  31.058  32.470  1.00  0.00    -0.396 OA
HETATM   16  H   LIG     1      28.240  31.034  32.192  1.00  0.00     0.209 HD
ENDBRANCH  14  15
ENDBRANCH  13  14
ENDBRANCH   7   8
ENDBRANCH   6   7
BRANCH   1  17
HETATM   17  O   LIG     1      25.433  30.836  35.507  1.00  0.00    -0.388 OA
HETATM   18  H   LIG     1      25.282  31.815  35.461  1.00  0.00     0.210 HD
ENDBRANCH   1  17
BRANCH   2  19
HETATM   19  O   LIG     1      29.042  31.152  35.348  1.00  0.00    -0.390 OA
HETATM   20  H   LIG     1      28.945  30.701  34.469  1.00  0.00     0.210 HD
ENDBRANCH   2  19
BRANCH   4  21
HETATM   21  C   LIG     1      28.113  27.596  37.819  1.00  0.00     0.198 C 
BRANCH  21  22
HETATM   22  O   LIG     1      29.440  27.277  38.129  1.00  0.00    -0.398 OA
HETATM   23  H   LIG     1      29.962  27.434  37.300  1.00  0.00     0.209 HD
ENDBRANCH  21  22
ENDBRANCH   4  21
BRANCH   3  24
HETATM   24  O   LIG     1      29.066  30.390  37.953  1.00  0.00    -0.390 OA
HETATM   25  H   LIG     1      29.001  29.874  38.799  1.00  0.00     0.210 HD
ENDBRANCH   3  24
TORSDOF 9
ENDMDL
MODEL 9
REMARK VINA RESULT:      -4.2     13.789     15.545
REMARK  9 active torsions:
REMARK  status: ('A' for Active; 'I' for Inactive)
REMARK    1  A    between atoms: O_1  and  C_2 
REMARK    2  A    between atoms: C_3  and  O_10 
REMARK    3  A    between atoms: C_4  and  O_9 
REMARK    4  A    between atoms: C_5  and  C_6 
REMARK    5  A    between atoms: C_6  and  O_7 
REMARK    6  A    between atoms: C_11  and  O_12 
REMARK    7  A    between atoms: O_12  and  C_13 
REMARK    8  A    between atoms: C_18  and  C_19 
REMARK    9  A    between atoms: C_19  and  O_20 
ROOT
HETATM    1  C   LIG     1      23.092  22.747  21.516  1.00  0.00     0.205 C 
HETATM    2  C   LIG     1      23.303  21.598  22.525  1.00  0.00     0.183 C 
HETATM    3  C   LIG     1      22.987  20.234  21.879  1.00  0.00     0.180 C 
HETATM    4  C   LIG     1      23.709  20.108  20.516  1.00  0.00     0.179 C 
HETATM    5  O   LIG     1      23.334  21.173  19.655  1.00  0.00    -0.348 OA
HETATM    6  C   LIG     1      23.756  22.430  20.158  1.00  0.00     0.298 C 
ENDROOT
BRANCH   6   7
HETATM    7  O   LIG     1      25.181  22.481  20.277  1.00  0.00    -0.317 OA
BRANCH   7   8
HETATM    8  C   LIG     1      25.976  23.349  19.522  1.00  0.00     0.080 A 
HETATM    9  C   LIG     1      26.023  24.698  19.890  1.00  0.00     0.037 A 
HETATM   10  C   LIG     1      26.802  25.602  19.164  1.00  0.00     0.003 A 
HETATM   11  C   LIG     1      27.547  25.160  18.070  1.00  0.00     0.001 A 
HETATM   12  C   LIG     1      27.523  23.811  17.704  1.00  0.00     0.012 A 
HETATM   13  C   LIG     1      26.744  22.890  18.427  1.00  0.00    -0.001 A 
BRANCH  13  14
HETATM   14  C   LIG     1      26.772  21.430  18.043  1.00  0.00     0.205 C 
BRANCH  14  15
HETATM   15  O   LIG     1      25.515  21.020  17.577  1.00  0.00    -0.396 OA
HETATM   16  H   LIG     1      25.215  20.290  18.180  1.00  0.00     0.209 HD
ENDBRANCH  14  15
ENDBRANCH  13  14
ENDBRANCH   7   8
ENDBRANCH   6   7
BRANCH   1  17
HETATM   17  O   LIG     1      21.723  23.031  21.358  1.00  0.00    -0.388 OA
HETATM   18  H   LIG     1      21.593  23.443  20.466  1.00  0.00     0.210 HD
ENDBRANCH   1  17
BRANCH   2  19
HETATM   19  O   LIG     1      24.631  21.601  22.987  1.00  0.00    -0.390 OA
HETATM   20  H   LIG     1      25.149  22.185  22.372  1.00  0.00     0.210 HD
ENDBRANCH   2  19
BRANCH   4  21
HETATM   21  C   LIG     1      23.350  18.791  19.812  1.00  0.00     0.198 C 
BRANCH  21  22
HETATM   22  O   LIG     1      24.015  18.694  18.583  1.00  0.00    -0.398 OA
HETATM   23  H   LIG     1      24.302  17.747  18.500  1.00  0.00     0.209 HD
ENDBRANCH  21  22
ENDBRANCH   4  21
BRANCH   3  24
HETATM   24  O   LIG     1      23.392  19.198  22.739  1.00  0.00    -0.390 OA
HETATM   25  H   LIG     1      23.595  19.616  23.616  1.00  0.00     0.210 HD
ENDBRANCH   3  24
TORSDOF 9
ENDMDL
MODEL 10
REMARK VINA RESULT:      -4.2     13.543     14.741
REMARK  9 active torsions:
REMARK  status: ('A' for Active; 'I' for Inactive)
REMARK    1  A    between atoms: O_1  and  C_2 
REMARK    2  A    between atoms: C_3  and  O_10 
REMARK    3  A    between atoms: C_4  and  O_9 
REMARK    4  A    between atoms: C_5  and  C_6 
REMARK    5  A    between atoms: C_6  and  O_7 
REMARK    6  A    between atoms: C_11  and  O_12 
REMARK    7  A    between atoms: O_12  and  C_13 
REMARK    8  A    between atoms: C_18  and  C_19 
REMARK    9  A    between atoms: C_19  and  O_20 
ROOT
HETATM    1  C   LIG     1      26.923  22.442  20.306  1.00  0.00     0.205 C 
HETATM    2  C   LIG     1      26.672  23.934  20.606  1.00  0.00     0.183 C 
HETATM    3  C   LIG     1      27.542  24.832  19.705  1.00  0.00     0.180 C 
HETATM    4  C   LIG     1      27.419  24.386  18.227  1.00  0.00     0.179 C 
HETATM    5  O   LIG     1      27.787  23.022  18.088  1.00  0.00    -0.348 OA
HETATM    6  C   LIG     1      26.900  22.163  18.787  1.00  0.00     0.298 C 
ENDROOT
BRANCH   6   7
HETATM    7  O   LIG     1      25.568  22.282  18.279  1.00  0.00    -0.317 OA
BRANCH   7   8
HETATM    8  C   LIG     1      24.811  21.183  17.865  1.00  0.00     0.080 A 
HETATM    9  C   LIG     1      25.433  20.203  17.083  1.00  0.00     0.037 A 
HETATM   10  C   LIG     1      24.715  19.087  16.645  1.00  0.00     0.003 A 
HETATM   11  C   LIG     1      23.373  18.939  16.995  1.00  0.00     0.001 A 
HETATM   12  C   LIG     1      22.745  19.902  17.792  1.00  0.00     0.012 A 
HETATM   13  C   LIG     1      23.456  21.029  18.241  1.00  0.00    -0.001 A 
BRANCH  13  14
HETATM   14  C   LIG     1      22.771  22.030  19.140  1.00  0.00     0.205 C 
BRANCH  14  15
HETATM   15  O   LIG     1      23.406  22.086  20.388  1.00  0.00    -0.396 OA
HETATM   16  H   LIG     1      24.029  21.312  20.423  1.00  0.00     0.209 HD
ENDBRANCH  14  15
ENDBRANCH  13  14
ENDBRANCH   7   8
ENDBRANCH   6   7
BRANCH   1  17
HETATM   17  O   LIG     1      28.132  22.011  20.882  1.00  0.00    -0.388 OA
HETATM   18  H   LIG     1      28.138  21.019  20.885  1.00  0.00     0.210 HD
ENDBRANCH   1  17
BRANCH   2  19
HETATM   19  O   LIG     1      25.314  24.243  20.403  1.00  0.00    -0.390 OA
HETATM   20  H   LIG     1      24.873  24.201  21.292  1.00  0.00     0.210 HD
ENDBRANCH   2  19
BRANCH   4  21
HETATM   21  C   LIG     1      28.338  25.212  17.315  1.00  0.00     0.198 C 
BRANCH  21  22
HETATM   22  O   LIG     1      29.343  25.835  18.065  1.00  0.00    -0.398 OA
HETATM   23  H   LIG     1      29.513  25.242  18.842  1.00  0.00     0.209 HD
ENDBRANCH  21  22
ENDBRANCH   4  21
BRANCH   3  24
HETATM   24  O   LIG     1      27.140  26.172  19.841  1.00  0.00    -0.390 OA
HETATM   25  H   LIG     1      26.326  26.285  19.286  1.00  0.00     0.210 HD
ENDBRANCH   3  24
TORSDOF 9
ENDMDL
MODEL 11
REMARK VINA RESULT:      -4.1     14.561     15.433
REMARK  9 active torsions:
REMARK  status: ('A' for Active; 'I' for Inactive)
REMARK    1  A    between atoms: O_1  and  C_2 
REMARK    2  A    between atoms: C_3  and  O_10 
REMARK    3  A    between atoms: C_4  and  O_9 
REMARK    4  A    between atoms: C_5  and  C_6 
REMARK    5  A    between atoms: C_6  and  O_7 
REMARK    6  A    between atoms: C_11  and  O_12 
REMARK    7  A    between atoms: O_12  and  C_13 
REMARK    8  A    between atoms: C_18  and  C_19 
REMARK    9  A    between atoms: C_19  and  O_20 
ROOT
HETATM    1  C   LIG     1      23.037  21.972  20.465  1.00  0.00     0.205 C 
HETATM    2  C   LIG     1      23.967  21.321  19.420  1.00  0.00     0.183 C 
HETATM    3  C   LIG     1      24.949  22.357  18.837  1.00  0.00     0.180 C 
HETATM    4  C   LIG     1      25.629  23.151  19.979  1.00  0.00     0.179 C 
HETATM    5  O   LIG     1      24.652  23.783  20.793  1.00  0.00    -0.348 OA
HETATM    6  C   LIG     1      23.834  22.838  21.464  1.00  0.00     0.298 C 
ENDROOT
BRANCH   6   7
HETATM    7  O   LIG     1      24.615  22.010  22.330  1.00  0.00    -0.317 OA
BRANCH   7   8
HETATM    8  C   LIG     1      24.421  21.960  23.713  1.00  0.00     0.080 A 
HETATM    9  C   LIG     1      24.985  22.969  24.502  1.00  0.00     0.037 A 
HETATM   10  C   LIG     1      24.819  22.958  25.888  1.00  0.00     0.003 A 
HETATM   11  C   LIG     1      24.078  21.943  26.495  1.00  0.00     0.001 A 
HETATM   12  C   LIG     1      23.493  20.940  25.716  1.00  0.00     0.012 A 
HETATM   13  C   LIG     1      23.652  20.939  24.319  1.00  0.00    -0.001 A 
BRANCH  13  14
HETATM   14  C   LIG     1      22.971  19.873  23.495  1.00  0.00     0.205 C 
BRANCH  14  15
HETATM   15  O   LIG     1      23.891  19.246  22.643  1.00  0.00    -0.396 OA
HETATM   16  H   LIG     1      23.756  19.641  21.742  1.00  0.00     0.209 HD
ENDBRANCH  14  15
ENDBRANCH  13  14
ENDBRANCH   7   8
ENDBRANCH   6   7
BRANCH   1  17
HETATM   17  O   LIG     1      22.024  22.720  19.838  1.00  0.00    -0.388 OA
HETATM   18  H   LIG     1      21.809  22.288  18.972  1.00  0.00     0.210 HD
ENDBRANCH   1  17
BRANCH   2  19
HETATM   19  O   LIG     1      24.691  20.269  20.009  1.00  0.00    -0.390 OA
HETATM   20  H   LIG     1      25.455  20.680  20.493  1.00  0.00     0.210 HD
ENDBRANCH   2  19
BRANCH   4  21
HETATM   21  C   LIG     1      26.554  24.245  19.426  1.00  0.00     0.198 C 
BRANCH  21  22
HETATM   22  O   LIG     1      26.187  24.584  18.118  1.00  0.00    -0.398 OA
HETATM   23  H   LIG     1      26.778  24.055  17.521  1.00  0.00     0.209 HD
ENDBRANCH  21  22
ENDBRANCH   4  21
BRANCH   3  24
HETATM   24  O   LIG     1      25.920  21.703  18.058  1.00  0.00    -0.390 OA
HETATM   25  H   LIG     1      26.708  22.305  18.017  1.00  0.00     0.210 HD
ENDBRANCH   3  24
TORSDOF 9
ENDMDL
MODEL 12
REMARK VINA RESULT:      -4.1     14.589     15.749
REMARK  9 active torsions:
REMARK  status: ('A' for Active; 'I' for Inactive)
REMARK    1  A    between atoms: O_1  and  C_2 
REMARK    2  A    between atoms: C_3  and  O_10 
REMARK    3  A    between atoms: C_4  and  O_9 
REMARK    4  A    between atoms: C_5  and  C_6 
REMARK    5  A    between atoms: C_6  and  O_7 
REMARK    6  A    between atoms: C_11  and  O_12 
REMARK    7  A    between atoms: O_12  and  C_13 
REMARK    8  A    between atoms: C_18  and  C_19 
REMARK    9  A    between atoms: C_19  and  O_20 
ROOT
HETATM    1  C   LIG     1      22.876  22.246  21.725  1.00  0.00     0.205 C 
HETATM    2  C   LIG     1      23.184  21.050  20.799  1.00  0.00     0.183 C 
HETATM    3  C   LIG     1      23.903  21.517  19.518  1.00  0.00     0.180 C 
HETATM    4  C   LIG     1      25.088  22.446  19.878  1.00  0.00     0.179 C 
HETATM    5  O   LIG     1      24.635  23.558  20.637  1.00  0.00    -0.348 OA
HETATM    6  C   LIG     1      24.110  23.159  21.893  1.00  0.00     0.298 C 
ENDROOT
BRANCH   6   7
HETATM    7  O   LIG     1      25.110  22.505  22.680  1.00  0.00    -0.317 OA
BRANCH   7   8
HETATM    8  C   LIG     1      25.743  23.117  23.766  1.00  0.00     0.080 A 
HETATM    9  C   LIG     1      25.059  23.182  24.985  1.00  0.00     0.037 A 
HETATM   10  C   LIG     1      25.652  23.787  26.096  1.00  0.00     0.003 A 
HETATM   11  C   LIG     1      26.937  24.320  25.998  1.00  0.00     0.001 A 
HETATM   12  C   LIG     1      27.638  24.245  24.790  1.00  0.00     0.012 A 
HETATM   13  C   LIG     1      27.054  23.638  23.664  1.00  0.00    -0.001 A 
BRANCH  13  14
HETATM   14  C   LIG     1      27.849  23.524  22.386  1.00  0.00     0.205 C 
BRANCH  14  15
HETATM   15  O   LIG     1      27.377  24.436  21.431  1.00  0.00    -0.396 OA
HETATM   16  H   LIG     1      27.089  25.245  21.930  1.00  0.00     0.209 HD
ENDBRANCH  14  15
ENDBRANCH  13  14
ENDBRANCH   7   8
ENDBRANCH   6   7
BRANCH   1  17
HETATM   17  O   LIG     1      21.767  22.972  21.255  1.00  0.00    -0.388 OA
HETATM   18  H   LIG     1      21.334  22.446  20.534  1.00  0.00     0.210 HD
ENDBRANCH   1  17
BRANCH   2  19
HETATM   19  O   LIG     1      23.990  20.115  21.474  1.00  0.00    -0.390 OA
HETATM   20  H   LIG     1      23.403  19.641  22.118  1.00  0.00     0.210 HD
ENDBRANCH   2  19
BRANCH   4  21
HETATM   21  C   LIG     1      25.775  22.991  18.617  1.00  0.00     0.198 C 
BRANCH  21  22
HETATM   22  O   LIG     1      26.066  24.353  18.766  1.00  0.00    -0.398 OA
HETATM   23  H   LIG     1      26.245  24.491  19.733  1.00  0.00     0.209 HD
ENDBRANCH  21  22
ENDBRANCH   4  21
BRANCH   3  24
HETATM   24  O   LIG     1      24.364  20.401  18.800  1.00  0.00    -0.390 OA
HETATM   25  H   LIG     1      24.210  20.594  17.839  1.00  0.00     0.210 HD
ENDBRANCH   3  24
TORSDOF 9
ENDMDL
MODEL 13
REMARK VINA RESULT:      -4.1     13.442     15.540
REMARK  9 active torsions:
REMARK  status: ('A' for Active; 'I' for Inactive)
REMARK    1  A    between atoms: O_1  and  C_2 
REMARK    2  A    between atoms: C_3  and  O_10 
REMARK    3  A    between atoms: C_4  and  O_9 
REMARK    4  A    between atoms: C_5  and  C_6 
REMARK    5  A    between atoms: C_6  and  O_7 
REMARK    6  A    between atoms: C_11  and  O_12 
REMARK    7  A    between atoms: O_12  and  C_13 
REMARK    8  A    between atoms: C_18  and  C_19 
REMARK    9  A    between atoms: C_19  and  O_20 
ROOT
HETATM    1  C   LIG     1      27.869  21.751  19.219  1.00  0.00     0.205 C 
HETATM    2  C   LIG     1      27.156  20.727  18.310  1.00  0.00     0.183 C 
HETATM    3  C   LIG     1      25.659  20.627  18.661  1.00  0.00     0.180 C 
HETATM    4  C   LIG     1      25.033  22.040  18.745  1.00  0.00     0.179 C 
HETATM    5  O   LIG     1      25.725  22.833  19.699  1.00  0.00    -0.348 OA
HETATM    6  C   LIG     1      27.069  23.069  19.313  1.00  0.00     0.298 C 
ENDROOT
BRANCH   6   7
HETATM    7  O   LIG     1      27.128  23.777  18.072  1.00  0.00    -0.317 OA
BRANCH   7   8
HETATM    8  C   LIG     1      27.805  24.991  17.921  1.00  0.00     0.080 A 
HETATM    9  C   LIG     1      27.600  25.991  18.878  1.00  0.00     0.037 A 
HETATM   10  C   LIG     1      28.253  27.221  18.767  1.00  0.00     0.003 A 
HETATM   11  C   LIG     1      29.124  27.454  17.702  1.00  0.00     0.001 A 
HETATM   12  C   LIG     1      29.352  26.457  16.750  1.00  0.00     0.012 A 
HETATM   13  C   LIG     1      28.702  25.214  16.851  1.00  0.00    -0.001 A 
BRANCH  13  14
HETATM   14  C   LIG     1      29.000  24.135  15.837  1.00  0.00     0.205 C 
BRANCH  14  15
HETATM   15  O   LIG     1      29.527  22.999  16.469  1.00  0.00    -0.396 OA
HETATM   16  H   LIG     1      29.519  22.271  15.793  1.00  0.00     0.209 HD
ENDBRANCH  14  15
ENDBRANCH  13  14
ENDBRANCH   7   8
ENDBRANCH   6   7
BRANCH   1  17
HETATM   17  O   LIG     1      28.107  21.209  20.495  1.00  0.00    -0.388 OA
HETATM   18  H   LIG     1      28.037  20.222  20.430  1.00  0.00     0.210 HD
ENDBRANCH   1  17
BRANCH   2  19
HETATM   19  O   LIG     1      27.297  21.102  16.961  1.00  0.00    -0.390 OA
HETATM   20  H   LIG     1      27.352  22.093  16.941  1.00  0.00     0.210 HD
ENDBRANCH   2  19
BRANCH   4  21
HETATM   21  C   LIG     1      23.560  21.976  19.171  1.00  0.00     0.198 C 
BRANCH  21  22
HETATM   22  O   LIG     1      22.730  21.842  18.051  1.00  0.00    -0.398 OA
HETATM   23  H   LIG     1      21.801  21.953  18.383  1.00  0.00     0.209 HD
ENDBRANCH  21  22
ENDBRANCH   4  21
BRANCH   3  24
HETATM   24  O   LIG     1      24.995  19.861  17.688  1.00  0.00    -0.390 OA
HETATM   25  H   LIG     1      24.777  18.989  18.109  1.00  0.00     0.210 HD
ENDBRANCH   3  24
TORSDOF 9
ENDMDL
MODEL 14
REMARK VINA RESULT:      -4.0     21.743     23.593
REMARK  9 active torsions:
REMARK  status: ('A' for Active; 'I' for Inactive)
REMARK    1  A    between atoms: O_1  and  C_2 
REMARK    2  A    between atoms: C_3  and  O_10 
REMARK    3  A    between atoms: C_4  and  O_9 
REMARK    4  A    between atoms: C_5  and  C_6 
REMARK    5  A    between atoms: C_6  and  O_7 
REMARK    6  A    between atoms: C_11  and  O_12 
REMARK    7  A    between atoms: O_12  and  C_13 
REMARK    8  A    between atoms: C_18  and  C_19 
REMARK    9  A    between atoms: C_19  and  O_20 
ROOT
HETATM    1  C   LIG     1      19.852  20.937  35.605  1.00  0.00     0.205 C 
HETATM    2  C   LIG     1      19.779  22.452  35.889  1.00  0.00     0.183 C 
HETATM    3  C   LIG     1      21.180  23.025  36.178  1.00  0.00     0.180 C 
HETATM    4  C   LIG     1      22.182  22.566  35.091  1.00  0.00     0.179 C 
HETATM    5  O   LIG     1      22.221  21.148  35.019  1.00  0.00    -0.348 OA
HETATM    6  C   LIG     1      20.978  20.608  34.600  1.00  0.00     0.298 C 
ENDROOT
BRANCH   6   7
HETATM    7  O   LIG     1      20.632  21.075  33.293  1.00  0.00    -0.317 OA
BRANCH   7   8
HETATM    8  C   LIG     1      19.938  20.292  32.366  1.00  0.00     0.080 A 
HETATM    9  C   LIG     1      19.785  18.926  32.629  1.00  0.00     0.037 A 
HETATM   10  C   LIG     1      19.102  18.105  31.729  1.00  0.00     0.003 A 
HETATM   11  C   LIG     1      18.557  18.648  30.565  1.00  0.00     0.001 A 
HETATM   12  C   LIG     1      18.687  20.014  30.299  1.00  0.00     0.012 A 
HETATM   13  C   LIG     1      19.371  20.852  31.197  1.00  0.00    -0.001 A 
BRANCH  13  14
HETATM   14  C   LIG     1      19.456  22.333  30.914  1.00  0.00     0.205 C 
BRANCH  14  15
HETATM   15  O   LIG     1      19.247  23.071  32.086  1.00  0.00    -0.396 OA
HETATM   16  H   LIG     1      19.610  23.980  31.917  1.00  0.00     0.209 HD
ENDBRANCH  14  15
ENDBRANCH  13  14
ENDBRANCH   7   8
ENDBRANCH   6   7
BRANCH   1  17
HETATM   17  O   LIG     1      20.007  20.209  36.798  1.00  0.00    -0.388 OA
HETATM   18  H   LIG     1      19.287  20.481  37.424  1.00  0.00     0.210 HD
ENDBRANCH   1  17
BRANCH   2  19
HETATM   19  O   LIG     1      19.217  23.121  34.787  1.00  0.00    -0.390 OA
HETATM   20  H   LIG     1      19.964  23.339  34.170  1.00  0.00     0.210 HD
ENDBRANCH   2  19
BRANCH   4  21
HETATM   21  C   LIG     1      23.604  23.057  35.396  1.00  0.00     0.198 C 
BRANCH  21  22
HETATM   22  O   LIG     1      23.770  23.258  36.772  1.00  0.00    -0.398 OA
HETATM   23  H   LIG     1      24.720  23.050  36.968  1.00  0.00     0.209 HD
ENDBRANCH  21  22
ENDBRANCH   4  21
BRANCH   3  24
HETATM   24  O   LIG     1      21.118  24.429  36.217  1.00  0.00    -0.390 OA
HETATM   25  H   LIG     1      21.011  24.685  37.170  1.00  0.00     0.210 HD
ENDBRANCH   3  24
TORSDOF 9
ENDMDL
MODEL 15
REMARK VINA RESULT:      -3.9     14.417     15.379
REMARK  9 active torsions:
REMARK  status: ('A' for Active; 'I' for Inactive)
REMARK    1  A    between atoms: O_1  and  C_2 
REMARK    2  A    between atoms: C_3  and  O_10 
REMARK    3  A    between atoms: C_4  and  O_9 
REMARK    4  A    between atoms: C_5  and  C_6 
REMARK    5  A    between atoms: C_6  and  O_7 
REMARK    6  A    between atoms: C_11  and  O_12 
REMARK    7  A    between atoms: O_12  and  C_13 
REMARK    8  A    between atoms: C_18  and  C_19 
REMARK    9  A    between atoms: C_19  and  O_20 
ROOT
HETATM    1  C   LIG     1      23.788  21.678  19.074  1.00  0.00     0.205 C 
HETATM    2  C   LIG     1      25.172  21.596  18.396  1.00  0.00     0.183 C 
HETATM    3  C   LIG     1      25.931  22.930  18.530  1.00  0.00     0.180 C 
HETATM    4  C   LIG     1      25.901  23.418  19.999  1.00  0.00     0.179 C 
HETATM    5  O   LIG     1      24.561  23.551  20.450  1.00  0.00    -0.348 OA
HETATM    6  C   LIG     1      23.890  22.302  20.483  1.00  0.00     0.298 C 
ENDROOT
BRANCH   6   7
HETATM    7  O   LIG     1      24.537  21.397  21.382  1.00  0.00    -0.317 OA
BRANCH   7   8
HETATM    8  C   LIG     1      23.904  20.860  22.506  1.00  0.00     0.080 A 
HETATM    9  C   LIG     1      23.117  19.714  22.343  1.00  0.00     0.037 A 
HETATM   10  C   LIG     1      22.463  19.143  23.437  1.00  0.00     0.003 A 
HETATM   11  C   LIG     1      22.601  19.709  24.706  1.00  0.00     0.001 A 
HETATM   12  C   LIG     1      23.399  20.843  24.885  1.00  0.00     0.012 A 
HETATM   13  C   LIG     1      24.064  21.427  23.792  1.00  0.00    -0.001 A 
BRANCH  13  14
HETATM   14  C   LIG     1      24.959  22.621  24.019  1.00  0.00     0.205 C 
BRANCH  14  15
HETATM   15  O   LIG     1      26.228  22.397  23.468  1.00  0.00    -0.396 OA
HETATM   16  H   LIG     1      26.659  23.287  23.379  1.00  0.00     0.209 HD
ENDBRANCH  14  15
ENDBRANCH  13  14
ENDBRANCH   7   8
ENDBRANCH   6   7
BRANCH   1  17
HETATM   17  O   LIG     1      22.876  22.387  18.270  1.00  0.00    -0.388 OA
HETATM   18  H   LIG     1      23.077  22.184  17.320  1.00  0.00     0.210 HD
ENDBRANCH   1  17
BRANCH   2  19
HETATM   19  O   LIG     1      25.931  20.564  18.977  1.00  0.00    -0.390 OA
HETATM   20  H   LIG     1      26.834  20.604  18.566  1.00  0.00     0.210 HD
ENDBRANCH   2  19
BRANCH   4  21
HETATM   21  C   LIG     1      26.582  24.786  20.149  1.00  0.00     0.198 C 
BRANCH  21  22
HETATM   22  O   LIG     1      25.892  25.761  19.417  1.00  0.00    -0.398 OA
HETATM   23  H   LIG     1      25.802  26.544  20.020  1.00  0.00     0.209 HD
ENDBRANCH  21  22
ENDBRANCH   4  21
BRANCH   3  24
HETATM   24  O   LIG     1      27.259  22.764  18.102  1.00  0.00    -0.390 OA
HETATM   25  H   LIG     1      27.737  23.607  18.316  1.00  0.00     0.210 HD
ENDBRANCH   3  24
TORSDOF 9
ENDMDL
MODEL 16
REMARK VINA RESULT:      -3.9     14.143     15.332
REMARK  9 active torsions:
REMARK  status: ('A' for Active; 'I' for Inactive)
REMARK    1  A    between atoms: O_1  and  C_2 
REMARK    2  A    between atoms: C_3  and  O_10 
REMARK    3  A    between atoms: C_4  and  O_9 
REMARK    4  A    between atoms: C_5  and  C_6 
REMARK    5  A    between atoms: C_6  and  O_7 
REMARK    6  A    between atoms: C_11  and  O_12 
REMARK    7  A    between atoms: O_12  and  C_13 
REMARK    8  A    between atoms: C_18  and  C_19 
REMARK    9  A    between atoms: C_19  and  O_20 
ROOT
HETATM    1  C   LIG     1      27.288  21.536  19.415  1.00  0.00     0.205 C 
HETATM    2  C   LIG     1      27.621  22.378  20.664  1.00  0.00     0.183 C 
HETATM    3  C   LIG     1      27.494  23.884  20.363  1.00  0.00     0.180 C 
HETATM    4  C   LIG     1      26.145  24.177  19.663  1.00  0.00     0.179 C 
HETATM    5  O   LIG     1      26.026  23.412  18.472  1.00  0.00    -0.348 OA
HETATM    6  C   LIG     1      25.984  22.020  18.743  1.00  0.00     0.298 C 
ENDROOT
BRANCH   6   7
HETATM    7  O   LIG     1      24.853  21.692  19.555  1.00  0.00    -0.317 OA
BRANCH   7   8
HETATM    8  C   LIG     1      23.944  20.684  19.221  1.00  0.00     0.080 A 
HETATM    9  C   LIG     1      23.317  20.742  17.971  1.00  0.00     0.037 A 
HETATM   10  C   LIG     1      22.399  19.759  17.594  1.00  0.00     0.003 A 
HETATM   11  C   LIG     1      22.111  18.704  18.462  1.00  0.00     0.001 A 
HETATM   12  C   LIG     1      22.745  18.625  19.705  1.00  0.00     0.012 A 
HETATM   13  C   LIG     1      23.672  19.608  20.096  1.00  0.00    -0.001 A 
BRANCH  13  14
HETATM   14  C   LIG     1      24.380  19.475  21.423  1.00  0.00     0.205 C 
BRANCH  14  15
HETATM   15  O   LIG     1      24.219  20.640  22.186  1.00  0.00    -0.396 OA
HETATM   16  H   LIG     1      23.247  20.844  22.188  1.00  0.00     0.209 HD
ENDBRANCH  14  15
ENDBRANCH  13  14
ENDBRANCH   7   8
ENDBRANCH   6   7
BRANCH   1  17
HETATM   17  O   LIG     1      28.360  21.541  18.505  1.00  0.00    -0.388 OA
HETATM   18  H   LIG     1      27.995  21.695  17.596  1.00  0.00     0.210 HD
ENDBRANCH   1  17
BRANCH   2  19
HETATM   19  O   LIG     1      26.756  22.036  21.719  1.00  0.00    -0.390 OA
HETATM   20  H   LIG     1      27.228  22.261  22.564  1.00  0.00     0.210 HD
ENDBRANCH   2  19
BRANCH   4  21
HETATM   21  C   LIG     1      26.023  25.659  19.279  1.00  0.00     0.198 C 
BRANCH  21  22
HETATM   22  O   LIG     1      27.241  26.321  19.483  1.00  0.00    -0.398 OA
HETATM   23  H   LIG     1      27.098  27.256  19.184  1.00  0.00     0.209 HD
ENDBRANCH  21  22
ENDBRANCH   4  21
BRANCH   3  24
HETATM   24  O   LIG     1      27.587  24.616  21.559  1.00  0.00    -0.390 OA
HETATM   25  H   LIG     1      26.815  24.345  22.122  1.00  0.00     0.210 HD
ENDBRANCH   3  24
TORSDOF 9
ENDMDL
MODEL 17
REMARK VINA RESULT:      -3.9     14.115     15.187
REMARK  9 active torsions:
REMARK  status: ('A' for Active; 'I' for Inactive)
REMARK    1  A    between atoms: O_1  and  C_2 
REMARK    2  A    between atoms: C_3  and  O_10 
REMARK    3  A    between atoms: C_4  and  O_9 
REMARK    4  A    between atoms: C_5  and  C_6 
REMARK    5  A    between atoms: C_6  and  O_7 
REMARK    6  A    between atoms: C_11  and  O_12 
REMARK    7  A    between atoms: O_12  and  C_13 
REMARK    8  A    between atoms: C_18  and  C_19 
REMARK    9  A    between atoms: C_19  and  O_20 
ROOT
HETATM    1  C   LIG     1      26.389  24.879  18.853  1.00  0.00     0.205 C 
HETATM    2  C   LIG     1      27.930  24.797  18.816  1.00  0.00     0.183 C 
HETATM    3  C   LIG     1      28.511  24.724  20.241  1.00  0.00     0.180 C 
HETATM    4  C   LIG     1      27.774  23.640  21.065  1.00  0.00     0.179 C 
HETATM    5  O   LIG     1      26.380  23.908  21.101  1.00  0.00    -0.348 OA
HETATM    6  C   LIG     1      25.794  23.825  19.812  1.00  0.00     0.298 C 
ENDROOT
BRANCH   6   7
HETATM    7  O   LIG     1      25.945  22.512  19.265  1.00  0.00    -0.317 OA
BRANCH   7   8
HETATM    8  C   LIG     1      24.896  21.590  19.200  1.00  0.00     0.080 A 
HETATM    9  C   LIG     1      23.977  21.701  18.151  1.00  0.00     0.037 A 
HETATM   10  C   LIG     1      22.911  20.804  18.047  1.00  0.00     0.003 A 
HETATM   11  C   LIG     1      22.765  19.782  18.987  1.00  0.00     0.001 A 
HETATM   12  C   LIG     1      23.688  19.650  20.029  1.00  0.00     0.012 A 
HETATM   13  C   LIG     1      24.766  20.546  20.144  1.00  0.00    -0.001 A 
BRANCH  13  14
HETATM   14  C   LIG     1      25.776  20.353  21.249  1.00  0.00     0.205 C 
BRANCH  14  15
HETATM   15  O   LIG     1      25.556  21.274  22.283  1.00  0.00    -0.396 OA
HETATM   16  H   LIG     1      26.427  21.720  22.454  1.00  0.00     0.209 HD
ENDBRANCH  14  15
ENDBRANCH  13  14
ENDBRANCH   7   8
ENDBRANCH   6   7
BRANCH   1  17
HETATM   17  O   LIG     1      25.964  26.176  19.195  1.00  0.00    -0.388 OA
HETATM   18  H   LIG     1      25.527  26.134  20.085  1.00  0.00     0.210 HD
ENDBRANCH   1  17
BRANCH   2  19
HETATM   19  O   LIG     1      28.334  23.664  18.086  1.00  0.00    -0.390 OA
HETATM   20  H   LIG     1      29.224  23.399  18.436  1.00  0.00     0.210 HD
ENDBRANCH   2  19
BRANCH   4  21
HETATM   21  C   LIG     1      28.279  23.599  22.515  1.00  0.00     0.198 C 
BRANCH  21  22
HETATM   22  O   LIG     1      28.685  24.873  22.930  1.00  0.00    -0.398 OA
HETATM   23  H   LIG     1      27.979  25.500  22.625  1.00  0.00     0.209 HD
ENDBRANCH  21  22
ENDBRANCH   4  21
BRANCH   3  24
HETATM   24  O   LIG     1      29.885  24.432  20.178  1.00  0.00    -0.390 OA
HETATM   25  H   LIG     1      30.064  23.743  20.870  1.00  0.00     0.210 HD
ENDBRANCH   3  24
TORSDOF 9
ENDMDL
MODEL 18
REMARK VINA RESULT:      -3.8     14.539     15.608
REMARK  9 active torsions:
REMARK  status: ('A' for Active; 'I' for Inactive)
REMARK    1  A    between atoms: O_1  and  C_2 
REMARK    2  A    between atoms: C_3  and  O_10 
REMARK    3  A    between atoms: C_4  and  O_9 
REMARK    4  A    between atoms: C_5  and  C_6 
REMARK    5  A    between atoms: C_6  and  O_7 
REMARK    6  A    between atoms: C_11  and  O_12 
REMARK    7  A    between atoms: O_12  and  C_13 
REMARK    8  A    between atoms: C_18  and  C_19 
REMARK    9  A    between atoms: C_19  and  O_20 
ROOT
HETATM    1  C   LIG     1      28.516  22.661  21.239  1.00  0.00     0.205 C 
HETATM    2  C   LIG     1      29.242  23.954  21.667  1.00  0.00     0.183 C 
HETATM    3  C   LIG     1      29.315  24.957  20.498  1.00  0.00     0.180 C 
HETATM    4  C   LIG     1      27.921  25.122  19.847  1.00  0.00     0.179 C 
HETATM    5  O   LIG     1      27.428  23.865  19.405  1.00  0.00    -0.348 OA
HETATM    6  C   LIG     1      27.205  22.977  20.487  1.00  0.00     0.298 C 
ENDROOT
BRANCH   6   7
HETATM    7  O   LIG     1      26.228  23.506  21.390  1.00  0.00    -0.317 OA
BRANCH   7   8
HETATM    8  C   LIG     1      25.024  22.856  21.672  1.00  0.00     0.080 A 
HETATM    9  C   LIG     1      24.046  22.802  20.673  1.00  0.00     0.037 A 
HETATM   10  C   LIG     1      22.825  22.165  20.911  1.00  0.00     0.003 A 
HETATM   11  C   LIG     1      22.580  21.568  22.148  1.00  0.00     0.001 A 
HETATM   12  C   LIG     1      23.556  21.599  23.149  1.00  0.00     0.012 A 
HETATM   13  C   LIG     1      24.789  22.236  22.921  1.00  0.00    -0.001 A 
BRANCH  13  14
HETATM   14  C   LIG     1      25.846  22.214  23.999  1.00  0.00     0.205 C 
BRANCH  14  15
HETATM   15  O   LIG     1      26.329  23.507  24.241  1.00  0.00    -0.396 OA
HETATM   16  H   LIG     1      25.747  24.127  23.727  1.00  0.00     0.209 HD
ENDBRANCH  14  15
ENDBRANCH  13  14
ENDBRANCH   7   8
ENDBRANCH   6   7
BRANCH   1  17
HETATM   17  O   LIG     1      29.361  21.844  20.466  1.00  0.00    -0.388 OA
HETATM   18  H   LIG     1      29.341  22.174  19.531  1.00  0.00     0.210 HD
ENDBRANCH   1  17
BRANCH   2  19
HETATM   19  O   LIG     1      28.570  24.547  22.751  1.00  0.00    -0.390 OA
HETATM   20  H   LIG     1      29.267  24.894  23.367  1.00  0.00     0.210 HD
ENDBRANCH   2  19
BRANCH   4  21
HETATM   21  C   LIG     1      27.979  26.055  18.629  1.00  0.00     0.198 C 
BRANCH  21  22
HETATM   22  O   LIG     1      27.685  27.372  19.004  1.00  0.00    -0.398 OA
HETATM   23  H   LIG     1      27.092  27.733  18.295  1.00  0.00     0.209 HD
ENDBRANCH  21  22
ENDBRANCH   4  21
BRANCH   3  24
HETATM   24  O   LIG     1      29.780  26.198  20.968  1.00  0.00    -0.390 OA
HETATM   25  H   LIG     1      30.751  26.235  20.765  1.00  0.00     0.210 HD
ENDBRANCH   3  24
TORSDOF 9
ENDMDL
MODEL 19
REMARK VINA RESULT:      -3.8     13.838     14.932
REMARK  9 active torsions:
REMARK  status: ('A' for Active; 'I' for Inactive)
REMARK    1  A    between atoms: O_1  and  C_2 
REMARK    2  A    between atoms: C_3  and  O_10 
REMARK    3  A    between atoms: C_4  and  O_9 
REMARK    4  A    between atoms: C_5  and  C_6 
REMARK    5  A    between atoms: C_6  and  O_7 
REMARK    6  A    between atoms: C_11  and  O_12 
REMARK    7  A    between atoms: O_12  and  C_13 
REMARK    8  A    between atoms: C_18  and  C_19 
REMARK    9  A    between atoms: C_19  and  O_20 
ROOT
HETATM    1  C   LIG     1      27.870  23.957  18.078  1.00  0.00     0.205 C 
HETATM    2  C   LIG     1      29.182  23.597  18.806  1.00  0.00     0.183 C 
HETATM    3  C   LIG     1      29.466  24.588  19.951  1.00  0.00     0.180 C 
HETATM    4  C   LIG     1      28.205  24.765  20.832  1.00  0.00     0.179 C 
HETATM    5  O   LIG     1      27.108  25.203  20.045  1.00  0.00    -0.348 OA
HETATM    6  C   LIG     1      26.729  24.233  19.082  1.00  0.00     0.298 C 
ENDROOT
BRANCH   6   7
HETATM    7  O   LIG     1      26.319  23.018  19.716  1.00  0.00    -0.317 OA
BRANCH   7   8
HETATM    8  C   LIG     1      25.018  22.805  20.183  1.00  0.00     0.080 A 
HETATM    9  C   LIG     1      24.711  23.183  21.495  1.00  0.00     0.037 A 
HETATM   10  C   LIG     1      23.426  22.988  22.005  1.00  0.00     0.003 A 
HETATM   11  C   LIG     1      22.435  22.423  21.201  1.00  0.00     0.001 A 
HETATM   12  C   LIG     1      22.724  22.058  19.883  1.00  0.00     0.012 A 
HETATM   13  C   LIG     1      24.014  22.250  19.356  1.00  0.00    -0.001 A 
BRANCH  13  14
HETATM   14  C   LIG     1      24.289  21.893  17.916  1.00  0.00     0.205 C 
BRANCH  14  15
HETATM   15  O   LIG     1      25.423  21.075  17.819  1.00  0.00    -0.396 OA
HETATM   16  H   LIG     1      25.746  21.150  16.883  1.00  0.00     0.209 HD
ENDBRANCH  14  15
ENDBRANCH  13  14
ENDBRANCH   7   8
ENDBRANCH   6   7
BRANCH   1  17
HETATM   17  O   LIG     1      28.059  25.050  17.213  1.00  0.00    -0.388 OA
HETATM   18  H   LIG     1      28.345  24.700  16.330  1.00  0.00     0.210 HD
ENDBRANCH   1  17
BRANCH   2  19
HETATM   19  O   LIG     1      29.101  22.292  19.325  1.00  0.00    -0.390 OA
HETATM   20  H   LIG     1      29.844  21.773  18.919  1.00  0.00     0.210 HD
ENDBRANCH   2  19
BRANCH   4  21
HETATM   21  C   LIG     1      28.434  25.807  21.935  1.00  0.00     0.198 C 
BRANCH  21  22
HETATM   22  O   LIG     1      29.062  25.221  23.042  1.00  0.00    -0.398 OA
HETATM   23  H   LIG     1      30.023  25.143  22.803  1.00  0.00     0.209 HD
ENDBRANCH  21  22
ENDBRANCH   4  21
BRANCH   3  24
HETATM   24  O   LIG     1      30.538  24.117  20.730  1.00  0.00    -0.390 OA
HETATM   25  H   LIG     1      31.172  23.675  20.108  1.00  0.00     0.210 HD
ENDBRANCH   3  24
TORSDOF 9
ENDMDL
MODEL 20
REMARK VINA RESULT:      -3.8     14.540     15.746
REMARK  9 active torsions:
REMARK  status: ('A' for Active; 'I' for Inactive)
REMARK    1  A    between atoms: O_1  and  C_2 
REMARK    2  A    between atoms: C_3  and  O_10 
REMARK    3  A    between atoms: C_4  and  O_9 
REMARK    4  A    between atoms: C_5  and  C_6 
REMARK    5  A    between atoms: C_6  and  O_7 
REMARK    6  A    between atoms: C_11  and  O_12 
REMARK    7  A    between atoms: O_12  and  C_13 
REMARK    8  A    between atoms: C_18  and  C_19 
REMARK    9  A    between atoms: C_19  and  O_20 
ROOT
HETATM    1  C   LIG     1      23.043  21.363  19.047  1.00  0.00     0.205 C 
HETATM    2  C   LIG     1      22.930  19.910  18.540  1.00  0.00     0.183 C 
HETATM    3  C   LIG     1      24.013  19.608  17.487  1.00  0.00     0.180 C 
HETATM    4  C   LIG     1      25.401  20.062  18.000  1.00  0.00     0.179 C 
HETATM    5  O   LIG     1      25.382  21.444  18.325  1.00  0.00    -0.348 OA
HETATM    6  C   LIG     1      24.503  21.721  19.402  1.00  0.00     0.298 C 
ENDROOT
BRANCH   6   7
HETATM    7  O   LIG     1      24.912  21.028  20.586  1.00  0.00    -0.317 OA
BRANCH   7   8
HETATM    8  C   LIG     1      25.179  21.679  21.793  1.00  0.00     0.080 A 
HETATM    9  C   LIG     1      26.389  22.372  21.922  1.00  0.00     0.037 A 
HETATM   10  C   LIG     1      26.700  23.036  23.111  1.00  0.00     0.003 A 
HETATM   11  C   LIG     1      25.798  23.020  24.176  1.00  0.00     0.001 A 
HETATM   12  C   LIG     1      24.579  22.347  24.053  1.00  0.00     0.012 A 
HETATM   13  C   LIG     1      24.252  21.676  22.861  1.00  0.00    -0.001 A 
BRANCH  13  14
HETATM   14  C   LIG     1      22.909  20.998  22.734  1.00  0.00     0.205 C 
BRANCH  14  15
HETATM   15  O   LIG     1      23.068  19.658  22.356  1.00  0.00    -0.396 OA
HETATM   16  H   LIG     1      23.698  19.654  21.587  1.00  0.00     0.209 HD
ENDBRANCH  14  15
ENDBRANCH  13  14
ENDBRANCH   7   8
ENDBRANCH   6   7
BRANCH   1  17
HETATM   17  O   LIG     1      22.514  22.265  18.106  1.00  0.00    -0.388 OA
HETATM   18  H   LIG     1      23.269  22.673  17.609  1.00  0.00     0.210 HD
ENDBRANCH   1  17
BRANCH   2  19
HETATM   19  O   LIG     1      23.061  19.014  19.617  1.00  0.00    -0.390 OA
HETATM   20  H   LIG     1      23.544  19.498  20.337  1.00  0.00     0.210 HD
ENDBRANCH   2  19
BRANCH   4  21
HETATM   21  C   LIG     1      26.490  19.846  16.939  1.00  0.00     0.198 C 
BRANCH  21  22
HETATM   22  O   LIG     1      25.922  19.778  15.660  1.00  0.00    -0.398 OA
HETATM   23  H   LIG     1      25.602  20.694  15.453  1.00  0.00     0.209 HD
ENDBRANCH  21  22
ENDBRANCH   4  21
BRANCH   3  24
HETATM   24  O   LIG     1      24.029  18.231  17.204  1.00  0.00    -0.390 OA
HETATM   25  H   LIG     1      24.274  17.768  18.047  1.00  0.00     0.210 HD
ENDBRANCH   3  24
TORSDOF 9
ENDMDL
