MODEL 1
REMARK VINA RESULT:      -7.1      0.000      0.000
REMARK  4 active torsions:
REMARK  status: ('A' for Active; 'I' for Inactive)
REMARK    1  A    between atoms: C_2  and  N_4 
REMARK    2  A    between atoms: N_4  and  C_5 
REMARK    3  A    between atoms: C_7  and  N_8 
REMARK    4  A    between atoms: N_8  and  C_9 
ROOT
HETATM    1  C   LIG     1      15.872  34.742  20.816  1.00  0.00     0.741 A 
HETATM    2  N   LIG     1      15.820  35.175  22.102  1.00  0.00     0.130 NA
HETATM    3  C   LIG     1      16.632  36.178  22.525  1.00  0.00     0.741 A 
HETATM    4  N   LIG     1      17.503  36.749  21.653  1.00  0.00    -0.030 NA
HETATM    5  C   LIG     1      17.559  36.321  20.366  1.00  0.00     0.259 A 
HETATM    6 CL   LIG     1      18.682  37.062  19.247  1.00  0.00    -0.040 Cl
HETATM    7  N   LIG     1      16.745  35.320  19.949  1.00  0.00    -0.030 NA
ENDROOT
BRANCH   1   8
HETATM    8  N   LIG     1      15.005  33.682  20.390  1.00  0.00    -0.218 N 
HETATM    9  H   LIG     1      13.998  33.729  20.665  1.00  0.00     0.178 HD
BRANCH   8  10
HETATM   10  C   LIG     1      15.454  32.538  19.591  1.00  0.00     0.091 C 
HETATM   11  C   LIG     1      14.827  31.254  20.136  1.00  0.00     0.032 C 
HETATM   12  C   LIG     1      15.069  32.752  18.126  1.00  0.00     0.032 C 
ENDBRANCH   8  10
ENDBRANCH   1   8
BRANCH   3  13
HETATM   13  N   LIG     1      16.565  36.619  23.887  1.00  0.00    -0.218 N 
HETATM   14  H   LIG     1      15.713  37.148  24.189  1.00  0.00     0.178 HD
BRANCH  13  15
HETATM   15  C   LIG     1      17.621  36.332  24.864  1.00  0.00     0.091 C 
HETATM   16  C   LIG     1      17.354  34.990  25.555  1.00  0.00     0.032 C 
HETATM   17  C   LIG     1      17.699  37.458  25.899  1.00  0.00     0.032 C 
ENDBRANCH  13  15
ENDBRANCH   3  13
TORSDOF 4
ENDMDL
MODEL 2
REMARK VINA RESULT:      -7.1      0.096      5.515
REMARK  4 active torsions:
REMARK  status: ('A' for Active; 'I' for Inactive)
REMARK    1  A    between atoms: C_2  and  N_4 
REMARK    2  A    between atoms: N_4  and  C_5 
REMARK    3  A    between atoms: C_7  and  N_8 
REMARK    4  A    between atoms: N_8  and  C_9 
ROOT
HETATM    1  C   LIG     1      16.614  36.163  22.490  1.00  0.00     0.741 A 
HETATM    2  N   LIG     1      15.790  35.185  22.033  1.00  0.00     0.130 NA
HETATM    3  C   LIG     1      15.858  34.776  20.740  1.00  0.00     0.741 A 
HETATM    4  N   LIG     1      16.755  35.353  19.900  1.00  0.00    -0.030 NA
HETATM    5  C   LIG     1      17.581  36.330  20.351  1.00  0.00     0.259 A 
HETATM    6 CL   LIG     1      18.737  37.068  19.264  1.00  0.00    -0.040 Cl
HETATM    7  N   LIG     1      17.510  36.733  21.644  1.00  0.00    -0.030 NA
ENDROOT
BRANCH   1   8
HETATM    8  N   LIG     1      16.526  36.579  23.860  1.00  0.00    -0.218 N 
HETATM    9  H   LIG     1      15.632  37.012  24.186  1.00  0.00     0.178 HD
BRANCH   8  10
HETATM   10  C   LIG     1      17.619  36.431  24.825  1.00  0.00     0.091 C 
HETATM   11  C   LIG     1      17.590  37.596  25.815  1.00  0.00     0.032 C 
HETATM   12  C   LIG     1      17.483  35.093  25.554  1.00  0.00     0.032 C 
ENDBRANCH   8  10
ENDBRANCH   1   8
BRANCH   3  13
HETATM   13  N   LIG     1      14.977  33.744  20.275  1.00  0.00    -0.218 N 
HETATM   14  H   LIG     1      13.953  33.854  20.462  1.00  0.00     0.178 HD
BRANCH  13  15
HETATM   15  C   LIG     1      15.454  32.573  19.531  1.00  0.00     0.091 C 
HETATM   16  C   LIG     1      15.100  32.708  18.045  1.00  0.00     0.032 C 
HETATM   17  C   LIG     1      14.840  31.296  20.111  1.00  0.00     0.032 C 
ENDBRANCH  13  15
ENDBRANCH   3  13
TORSDOF 4
ENDMDL
MODEL 3
REMARK VINA RESULT:      -6.7      2.171      5.376
REMARK  4 active torsions:
REMARK  status: ('A' for Active; 'I' for Inactive)
REMARK    1  A    between atoms: C_2  and  N_4 
REMARK    2  A    between atoms: N_4  and  C_5 
REMARK    3  A    between atoms: C_7  and  N_8 
REMARK    4  A    between atoms: N_8  and  C_9 
ROOT
HETATM    1  C   LIG     1      16.860  36.073  22.832  1.00  0.00     0.741 A 
HETATM    2  N   LIG     1      17.602  36.858  22.009  1.00  0.00     0.130 NA
HETATM    3  C   LIG     1      17.674  36.588  20.680  1.00  0.00     0.741 A 
HETATM    4  N   LIG     1      17.002  35.521  20.174  1.00  0.00    -0.030 NA
HETATM    5  C   LIG     1      16.259  34.734  20.992  1.00  0.00     0.259 A 
HETATM    6 CL   LIG     1      15.392  33.363  20.335  1.00  0.00    -0.040 Cl
HETATM    7  N   LIG     1      16.189  35.010  22.318  1.00  0.00    -0.030 NA
ENDROOT
BRANCH   1   8
HETATM    8  N   LIG     1      16.797  36.377  24.232  1.00  0.00    -0.218 N 
HETATM    9  H   LIG     1      15.983  36.935  24.578  1.00  0.00     0.178 HD
BRANCH   8  10
HETATM   10  C   LIG     1      17.807  35.949  25.203  1.00  0.00     0.091 C 
HETATM   11  C   LIG     1      18.174  37.121  26.114  1.00  0.00     0.032 C 
HETATM   12  C   LIG     1      17.269  34.772  26.020  1.00  0.00     0.032 C 
ENDBRANCH   8  10
ENDBRANCH   1   8
BRANCH   3  13
HETATM   13  N   LIG     1      18.465  37.426  19.827  1.00  0.00    -0.218 N 
HETATM   14  H   LIG     1      18.338  37.330  18.793  1.00  0.00     0.178 HD
BRANCH  13  15
HETATM   15  C   LIG     1      19.411  38.418  20.350  1.00  0.00     0.091 C 
HETATM   16  C   LIG     1      18.683  39.728  20.670  1.00  0.00     0.032 C 
HETATM   17  C   LIG     1      20.530  38.664  19.333  1.00  0.00     0.032 C 
ENDBRANCH  13  15
ENDBRANCH   3  13
TORSDOF 4
ENDMDL
MODEL 4
REMARK VINA RESULT:      -6.6      2.257      4.257
REMARK  4 active torsions:
REMARK  status: ('A' for Active; 'I' for Inactive)
REMARK    1  A    between atoms: C_2  and  N_4 
REMARK    2  A    between atoms: N_4  and  C_5 
REMARK    3  A    between atoms: C_7  and  N_8 
REMARK    4  A    between atoms: N_8  and  C_9 
ROOT
HETATM    1  C   LIG     1      17.771  36.616  20.227  1.00  0.00     0.741 A 
HETATM    2  N   LIG     1      17.627  37.209  21.440  1.00  0.00     0.130 NA
HETATM    3  C   LIG     1      16.771  36.696  22.360  1.00  0.00     0.741 A 
HETATM    4  N   LIG     1      16.050  35.584  22.059  1.00  0.00    -0.030 NA
HETATM    5  C   LIG     1      16.190  34.987  20.849  1.00  0.00     0.259 A 
HETATM    6 CL   LIG     1      15.261  33.554  20.469  1.00  0.00    -0.040 Cl
HETATM    7  N   LIG     1      17.049  35.503  19.935  1.00  0.00    -0.030 NA
ENDROOT
BRANCH   1   8
HETATM    8  N   LIG     1      18.683  37.174  19.270  1.00  0.00    -0.218 N 
HETATM    9  H   LIG     1      19.110  36.531  18.565  1.00  0.00     0.178 HD
BRANCH   8  10
HETATM   10  C   LIG     1      19.046  38.593  19.226  1.00  0.00     0.091 C 
HETATM   11  C   LIG     1      20.520  38.757  19.600  1.00  0.00     0.032 C 
HETATM   12  C   LIG     1      18.774  39.151  17.828  1.00  0.00     0.032 C 
ENDBRANCH   8  10
ENDBRANCH   1   8
BRANCH   3  13
HETATM   13  N   LIG     1      16.630  37.337  23.634  1.00  0.00    -0.218 N 
HETATM   14  H   LIG     1      15.786  37.935  23.790  1.00  0.00     0.178 HD
BRANCH  13  15
HETATM   15  C   LIG     1      17.601  37.160  24.720  1.00  0.00     0.091 C 
HETATM   16  C   LIG     1      17.495  35.746  25.302  1.00  0.00     0.032 C 
HETATM   17  C   LIG     1      17.363  38.206  25.813  1.00  0.00     0.032 C 
ENDBRANCH  13  15
ENDBRANCH   3  13
TORSDOF 4
ENDMDL
MODEL 5
REMARK VINA RESULT:      -6.4      2.619      5.641
REMARK  4 active torsions:
REMARK  status: ('A' for Active; 'I' for Inactive)
REMARK    1  A    between atoms: C_2  and  N_4 
REMARK    2  A    between atoms: N_4  and  C_5 
REMARK    3  A    between atoms: C_7  and  N_8 
REMARK    4  A    between atoms: N_8  and  C_9 
ROOT
HETATM    1  C   LIG     1      16.959  36.961  23.326  1.00  0.00     0.741 A 
HETATM    2  N   LIG     1      17.626  37.881  22.583  1.00  0.00     0.130 NA
HETATM    3  C   LIG     1      17.839  37.673  21.258  1.00  0.00     0.741 A 
HETATM    4  N   LIG     1      17.382  36.534  20.676  1.00  0.00    -0.030 NA
HETATM    5  C   LIG     1      16.714  35.612  21.413  1.00  0.00     0.259 A 
HETATM    6 CL   LIG     1      16.126  34.147  20.657  1.00  0.00    -0.040 Cl
HETATM    7  N   LIG     1      16.503  35.826  22.736  1.00  0.00    -0.030 NA
ENDROOT
BRANCH   1   8
HETATM    8  N   LIG     1      16.743  37.202  24.724  1.00  0.00    -0.218 N 
HETATM    9  H   LIG     1      16.043  37.928  24.997  1.00  0.00     0.178 HD
BRANCH   8  10
HETATM   10  C   LIG     1      17.450  36.485  25.789  1.00  0.00     0.091 C 
HETATM   11  C   LIG     1      17.518  34.996  25.449  1.00  0.00     0.032 C 
HETATM   12  C   LIG     1      18.854  37.070  25.959  1.00  0.00     0.032 C 
ENDBRANCH   8  10
ENDBRANCH   1   8
BRANCH   3  13
HETATM   13  N   LIG     1      18.549  38.654  20.491  1.00  0.00    -0.218 N 
HETATM   14  H   LIG     1      18.555  39.640  20.843  1.00  0.00     0.178 HD
BRANCH  13  15
HETATM   15  C   LIG     1      19.280  38.321  19.264  1.00  0.00     0.091 C 
HETATM   16  C   LIG     1      20.780  38.575  19.454  1.00  0.00     0.032 C 
HETATM   17  C   LIG     1      18.743  39.147  18.091  1.00  0.00     0.032 C 
ENDBRANCH  13  15
ENDBRANCH   3  13
TORSDOF 4
ENDMDL
MODEL 6
REMARK VINA RESULT:      -6.2      5.011      7.383
REMARK  4 active torsions:
REMARK  status: ('A' for Active; 'I' for Inactive)
REMARK    1  A    between atoms: C_2  and  N_4 
REMARK    2  A    between atoms: N_4  and  C_5 
REMARK    3  A    between atoms: C_7  and  N_8 
REMARK    4  A    between atoms: N_8  and  C_9 
ROOT
HETATM    1  C   LIG     1      16.702  32.963  15.041  1.00  0.00     0.741 A 
HETATM    2  N   LIG     1      16.235  33.246  16.284  1.00  0.00     0.130 NA
HETATM    3  C   LIG     1      15.241  32.500  16.832  1.00  0.00     0.741 A 
HETATM    4  N   LIG     1      14.710  31.467  16.128  1.00  0.00    -0.030 NA
HETATM    5  C   LIG     1      15.173  31.180  14.886  1.00  0.00     0.259 A 
HETATM    6 CL   LIG     1      14.487  29.846  13.984  1.00  0.00    -0.040 Cl
HETATM    7  N   LIG     1      16.167  31.926  14.344  1.00  0.00    -0.030 NA
ENDROOT
BRANCH   1   8
HETATM    8  N   LIG     1      17.753  33.762  14.480  1.00  0.00    -0.218 N 
HETATM    9  H   LIG     1      18.210  34.474  15.094  1.00  0.00     0.178 HD
BRANCH   8  10
HETATM   10  C   LIG     1      18.221  33.635  13.097  1.00  0.00     0.091 C 
HETATM   11  C   LIG     1      17.549  34.699  12.228  1.00  0.00     0.032 C 
HETATM   12  C   LIG     1      19.743  33.778  13.054  1.00  0.00     0.032 C 
ENDBRANCH   8  10
ENDBRANCH   1   8
BRANCH   3  13
HETATM   13  N   LIG     1      14.759  32.816  18.145  1.00  0.00    -0.218 N 
HETATM   14  H   LIG     1      13.838  33.308  18.222  1.00  0.00     0.178 HD
BRANCH  13  15
HETATM   15  C   LIG     1      15.488  32.452  19.365  1.00  0.00     0.091 C 
HETATM   16  C   LIG     1      14.831  31.240  20.034  1.00  0.00     0.032 C 
HETATM   17  C   LIG     1      15.524  33.641  20.330  1.00  0.00     0.032 C 
ENDBRANCH  13  15
ENDBRANCH   3  13
TORSDOF 4
ENDMDL
MODEL 7
REMARK VINA RESULT:      -6.2      7.025      9.776
REMARK  4 active torsions:
REMARK  status: ('A' for Active; 'I' for Inactive)
REMARK    1  A    between atoms: C_2  and  N_4 
REMARK    2  A    between atoms: N_4  and  C_5 
REMARK    3  A    between atoms: C_7  and  N_8 
REMARK    4  A    between atoms: N_8  and  C_9 
ROOT
HETATM    1  C   LIG     1      17.263  33.316  14.134  1.00  0.00     0.741 A 
HETATM    2  N   LIG     1      16.801  32.205  13.506  1.00  0.00     0.130 NA
HETATM    3  C   LIG     1      15.821  31.452  14.070  1.00  0.00     0.741 A 
HETATM    4  N   LIG     1      15.305  31.815  15.273  1.00  0.00    -0.030 NA
HETATM    5  C   LIG     1      15.762  32.925  15.905  1.00  0.00     0.259 A 
HETATM    6 CL   LIG     1      15.092  33.388  17.453  1.00  0.00    -0.040 Cl
HETATM    7  N   LIG     1      16.739  33.673  15.336  1.00  0.00    -0.030 NA
ENDROOT
BRANCH   1   8
HETATM    8  N   LIG     1      18.297  34.098  13.520  1.00  0.00    -0.218 N 
HETATM    9  H   LIG     1      18.520  35.031  13.934  1.00  0.00     0.178 HD
BRANCH   8  10
HETATM   10  C   LIG     1      19.058  33.659  12.347  1.00  0.00     0.091 C 
HETATM   11  C   LIG     1      18.756  34.582  11.165  1.00  0.00     0.032 C 
HETATM   12  C   LIG     1      20.553  33.663  12.672  1.00  0.00     0.032 C 
ENDBRANCH   8  10
ENDBRANCH   1   8
BRANCH   3  13
HETATM   13  N   LIG     1      15.348  30.280  13.394  1.00  0.00    -0.218 N 
HETATM   14  H   LIG     1      15.375  30.275  12.347  1.00  0.00     0.178 HD
BRANCH  13  15
HETATM   15  C   LIG     1      14.863  29.095  14.109  1.00  0.00     0.091 C 
HETATM   16  C   LIG     1      15.334  27.819  13.403  1.00  0.00     0.032 C 
HETATM   17  C   LIG     1      13.334  29.123  14.197  1.00  0.00     0.032 C 
ENDBRANCH  13  15
ENDBRANCH   3  13
TORSDOF 4
ENDMDL
MODEL 8
REMARK VINA RESULT:      -6.2      4.873      7.150
REMARK  4 active torsions:
REMARK  status: ('A' for Active; 'I' for Inactive)
REMARK    1  A    between atoms: C_2  and  N_4 
REMARK    2  A    between atoms: N_4  and  C_5 
REMARK    3  A    between atoms: C_7  and  N_8 
REMARK    4  A    between atoms: N_8  and  C_9 
ROOT
HETATM    1  C   LIG     1      15.031  30.955  14.578  1.00  0.00     0.741 A 
HETATM    2  N   LIG     1      14.537  31.236  15.811  1.00  0.00     0.130 NA
HETATM    3  C   LIG     1      15.117  32.189  16.584  1.00  0.00     0.741 A 
HETATM    4  N   LIG     1      16.202  32.862  16.120  1.00  0.00    -0.030 NA
HETATM    5  C   LIG     1      16.699  32.586  14.888  1.00  0.00     0.259 A 
HETATM    6 CL   LIG     1      18.095  33.457  14.294  1.00  0.00    -0.040 Cl
HETATM    7  N   LIG     1      16.115  31.634  14.120  1.00  0.00    -0.030 NA
ENDROOT
BRANCH   1   8
HETATM    8  N   LIG     1      14.402  29.944  13.777  1.00  0.00    -0.218 N 
HETATM    9  H   LIG     1      13.988  30.230  12.861  1.00  0.00     0.178 HD
BRANCH   8  10
HETATM   10  C   LIG     1      14.309  28.536  14.171  1.00  0.00     0.091 C 
HETATM   11  C   LIG     1      12.931  27.988  13.798  1.00  0.00     0.032 C 
HETATM   12  C   LIG     1      15.418  27.736  13.484  1.00  0.00     0.032 C 
ENDBRANCH   8  10
ENDBRANCH   1   8
BRANCH   3  13
HETATM   13  N   LIG     1      14.583  32.470  17.885  1.00  0.00    -0.218 N 
HETATM   14  H   LIG     1      13.580  32.765  17.949  1.00  0.00     0.178 HD
BRANCH  13  15
HETATM   15  C   LIG     1      15.374  32.331  19.112  1.00  0.00     0.091 C 
HETATM   16  C   LIG     1      14.764  31.257  20.019  1.00  0.00     0.032 C 
HETATM   17  C   LIG     1      15.444  33.673  19.847  1.00  0.00     0.032 C 
ENDBRANCH  13  15
ENDBRANCH   3  13
TORSDOF 4
ENDMDL
MODEL 9
REMARK VINA RESULT:      -6.2      4.850      8.849
REMARK  4 active torsions:
REMARK  status: ('A' for Active; 'I' for Inactive)
REMARK    1  A    between atoms: C_2  and  N_4 
REMARK    2  A    between atoms: N_4  and  C_5 
REMARK    3  A    between atoms: C_7  and  N_8 
REMARK    4  A    between atoms: N_8  and  C_9 
ROOT
HETATM    1  C   LIG     1      15.163  32.209  16.603  1.00  0.00     0.741 A 
HETATM    2  N   LIG     1      14.576  31.268  15.819  1.00  0.00     0.130 NA
HETATM    3  C   LIG     1      15.068  30.998  14.583  1.00  0.00     0.741 A 
HETATM    4  N   LIG     1      16.153  31.678  14.129  1.00  0.00    -0.030 NA
HETATM    5  C   LIG     1      16.744  32.618  14.908  1.00  0.00     0.259 A 
HETATM    6 CL   LIG     1      18.142  33.489  14.319  1.00  0.00    -0.040 Cl
HETATM    7  N   LIG     1      16.249  32.882  16.143  1.00  0.00    -0.030 NA
ENDROOT
BRANCH   1   8
HETATM    8  N   LIG     1      14.628  32.477  17.907  1.00  0.00    -0.218 N 
HETATM    9  H   LIG     1      13.631  32.784  17.976  1.00  0.00     0.178 HD
BRANCH   8  10
HETATM   10  C   LIG     1      15.401  32.346  19.145  1.00  0.00     0.091 C 
HETATM   11  C   LIG     1      15.419  33.684  19.884  1.00  0.00     0.032 C 
HETATM   12  C   LIG     1      14.789  31.249  20.019  1.00  0.00     0.032 C 
ENDBRANCH   8  10
ENDBRANCH   1   8
BRANCH   3  13
HETATM   13  N   LIG     1      14.433  30.004  13.768  1.00  0.00    -0.218 N 
HETATM   14  H   LIG     1      14.043  30.305  12.844  1.00  0.00     0.178 HD
BRANCH  13  15
HETATM   15  C   LIG     1      14.339  28.596  14.167  1.00  0.00     0.091 C 
HETATM   16  C   LIG     1      15.439  27.776  13.483  1.00  0.00     0.032 C 
HETATM   17  C   LIG     1      12.958  28.039  13.808  1.00  0.00     0.032 C 
ENDBRANCH  13  15
ENDBRANCH   3  13
TORSDOF 4
ENDMDL
MODEL 10
REMARK VINA RESULT:      -6.2      1.665      2.263
REMARK  4 active torsions:
REMARK  status: ('A' for Active; 'I' for Inactive)
REMARK    1  A    between atoms: C_2  and  N_4 
REMARK    2  A    between atoms: N_4  and  C_5 
REMARK    3  A    between atoms: C_7  and  N_8 
REMARK    4  A    between atoms: N_8  and  C_9 
ROOT
HETATM    1  C   LIG     1      17.244  36.263  21.312  1.00  0.00     0.741 A 
HETATM    2  N   LIG     1      17.055  36.066  22.642  1.00  0.00     0.130 NA
HETATM    3  C   LIG     1      17.364  37.042  23.533  1.00  0.00     0.741 A 
HETATM    4  N   LIG     1      17.868  38.223  23.088  1.00  0.00    -0.030 NA
HETATM    5  C   LIG     1      18.058  38.426  21.761  1.00  0.00     0.259 A 
HETATM    6 CL   LIG     1      18.706  39.949  21.193  1.00  0.00    -0.040 Cl
HETATM    7  N   LIG     1      17.747  37.448  20.874  1.00  0.00    -0.030 NA
ENDROOT
BRANCH   1   8
HETATM    8  N   LIG     1      16.910  35.219  20.387  1.00  0.00    -0.218 N 
HETATM    9  H   LIG     1      17.691  34.730  19.893  1.00  0.00     0.178 HD
BRANCH   8  10
HETATM   10  C   LIG     1      15.536  34.800  20.097  1.00  0.00     0.091 C 
HETATM   11  C   LIG     1      15.424  33.280  20.227  1.00  0.00     0.032 C 
HETATM   12  C   LIG     1      14.572  35.501  21.056  1.00  0.00     0.032 C 
ENDBRANCH   8  10
ENDBRANCH   1   8
BRANCH   3  13
HETATM   13  N   LIG     1      17.161  36.814  24.934  1.00  0.00    -0.218 N 
HETATM   14  H   LIG     1      16.400  37.351  25.412  1.00  0.00     0.178 HD
BRANCH  13  15
HETATM   15  C   LIG     1      17.953  35.847  25.701  1.00  0.00     0.091 C 
HETATM   16  C   LIG     1      17.075  34.668  26.137  1.00  0.00     0.032 C 
HETATM   17  C   LIG     1      18.576  36.529  26.923  1.00  0.00     0.032 C 
ENDBRANCH  13  15
ENDBRANCH   3  13
TORSDOF 4
ENDMDL
MODEL 11
REMARK VINA RESULT:      -6.2      7.011      9.114
REMARK  4 active torsions:
REMARK  status: ('A' for Active; 'I' for Inactive)
REMARK    1  A    between atoms: C_2  and  N_4 
REMARK    2  A    between atoms: N_4  and  C_5 
REMARK    3  A    between atoms: C_7  and  N_8 
REMARK    4  A    between atoms: N_8  and  C_9 
ROOT
HETATM    1  C   LIG     1      15.806  31.440  14.089  1.00  0.00     0.741 A 
HETATM    2  N   LIG     1      16.765  32.209  13.512  1.00  0.00     0.130 NA
HETATM    3  C   LIG     1      17.223  33.323  14.139  1.00  0.00     0.741 A 
HETATM    4  N   LIG     1      16.713  33.669  15.350  1.00  0.00    -0.030 NA
HETATM    5  C   LIG     1      15.756  32.904  15.931  1.00  0.00     0.259 A 
HETATM    6 CL   LIG     1      15.106  33.354  17.492  1.00  0.00    -0.040 Cl
HETATM    7  N   LIG     1      15.304  31.792  15.301  1.00  0.00    -0.030 NA
ENDROOT
BRANCH   1   8
HETATM    8  N   LIG     1      15.337  30.266  13.410  1.00  0.00    -0.218 N 
HETATM    9  H   LIG     1      15.335  30.269  12.365  1.00  0.00     0.178 HD
BRANCH   8  10
HETATM   10  C   LIG     1      14.862  29.064  14.101  1.00  0.00     0.091 C 
HETATM   11  C   LIG     1      13.334  29.074  14.157  1.00  0.00     0.032 C 
HETATM   12  C   LIG     1      15.372  27.818  13.375  1.00  0.00     0.032 C 
ENDBRANCH   8  10
ENDBRANCH   1   8
BRANCH   3  13
HETATM   13  N   LIG     1      18.233  34.125  13.513  1.00  0.00    -0.218 N 
HETATM   14  H   LIG     1      18.402  35.085  13.894  1.00  0.00     0.178 HD
BRANCH  13  15
HETATM   15  C   LIG     1      19.046  33.640  12.392  1.00  0.00     0.091 C 
HETATM   16  C   LIG     1      20.533  33.675  12.761  1.00  0.00     0.032 C 
HETATM   17  C   LIG     1      18.785  34.491  11.146  1.00  0.00     0.032 C 
ENDBRANCH  13  15
ENDBRANCH   3  13
TORSDOF 4
ENDMDL
MODEL 12
REMARK VINA RESULT:      -6.1      1.549      5.349
REMARK  4 active torsions:
REMARK  status: ('A' for Active; 'I' for Inactive)
REMARK    1  A    between atoms: C_2  and  N_4 
REMARK    2  A    between atoms: N_4  and  C_5 
REMARK    3  A    between atoms: C_7  and  N_8 
REMARK    4  A    between atoms: N_8  and  C_9 
ROOT
HETATM    1  C   LIG     1      17.163  37.212  23.842  1.00  0.00     0.741 A 
HETATM    2  N   LIG     1      16.903  36.091  23.120  1.00  0.00     0.130 NA
HETATM    3  C   LIG     1      17.179  36.049  21.791  1.00  0.00     0.741 A 
HETATM    4  N   LIG     1      17.715  37.138  21.182  1.00  0.00    -0.030 NA
HETATM    5  C   LIG     1      17.978  38.260  21.898  1.00  0.00     0.259 A 
HETATM    6 CL   LIG     1      18.670  39.659  21.108  1.00  0.00    -0.040 Cl
HETATM    7  N   LIG     1      17.701  38.296  23.225  1.00  0.00    -0.030 NA
ENDROOT
BRANCH   1   8
HETATM    8  N   LIG     1      16.865  37.235  25.245  1.00  0.00    -0.218 N 
HETATM    9  H   LIG     1      16.080  37.843  25.571  1.00  0.00     0.178 HD
BRANCH   8  10
HETATM   10  C   LIG     1      17.599  36.453  26.244  1.00  0.00     0.091 C 
HETATM   11  C   LIG     1      17.461  34.962  25.931  1.00  0.00     0.032 C 
HETATM   12  C   LIG     1      19.070  36.875  26.248  1.00  0.00     0.032 C 
ENDBRANCH   8  10
ENDBRANCH   1   8
BRANCH   3  13
HETATM   13  N   LIG     1      16.895  34.858  21.045  1.00  0.00    -0.218 N 
HETATM   14  H   LIG     1      17.684  34.405  20.528  1.00  0.00     0.178 HD
BRANCH  13  15
HETATM   15  C   LIG     1      15.562  34.247  21.007  1.00  0.00     0.091 C 
HETATM   16  C   LIG     1      15.455  33.276  19.826  1.00  0.00     0.032 C 
HETATM   17  C   LIG     1      14.488  35.335  20.902  1.00  0.00     0.032 C 
ENDBRANCH  13  15
ENDBRANCH   3  13
TORSDOF 4
ENDMDL
MODEL 13
REMARK VINA RESULT:      -5.6      2.279      5.753
REMARK  4 active torsions:
REMARK  status: ('A' for Active; 'I' for Inactive)
REMARK    1  A    between atoms: C_2  and  N_4 
REMARK    2  A    between atoms: N_4  and  C_5 
REMARK    3  A    between atoms: C_7  and  N_8 
REMARK    4  A    between atoms: N_8  and  C_9 
ROOT
HETATM    1  C   LIG     1      17.499  36.122  20.472  1.00  0.00     0.741 A 
HETATM    2  N   LIG     1      16.528  35.409  19.846  1.00  0.00     0.130 NA
HETATM    3  C   LIG     1      15.738  34.557  20.548  1.00  0.00     0.741 A 
HETATM    4  N   LIG     1      15.926  34.417  21.886  1.00  0.00    -0.030 NA
HETATM    5  C   LIG     1      16.894  35.127  22.517  1.00  0.00     0.259 A 
HETATM    6 CL   LIG     1      17.130  34.944  24.241  1.00  0.00    -0.040 Cl
HETATM    7  N   LIG     1      17.679  35.978  21.810  1.00  0.00    -0.030 NA
ENDROOT
BRANCH   1   8
HETATM    8  N   LIG     1      18.322  37.017  19.711  1.00  0.00    -0.218 N 
HETATM    9  H   LIG     1      18.333  36.911  18.671  1.00  0.00     0.178 HD
BRANCH   8  10
HETATM   10  C   LIG     1      19.145  38.071  20.310  1.00  0.00     0.091 C 
HETATM   11  C   LIG     1      20.069  38.668  19.248  1.00  0.00     0.032 C 
HETATM   12  C   LIG     1      18.242  39.149  20.913  1.00  0.00     0.032 C 
ENDBRANCH   8  10
ENDBRANCH   1   8
BRANCH   3  13
HETATM   13  N   LIG     1      14.719  33.810  19.869  1.00  0.00    -0.218 N 
HETATM   14  H   LIG     1      13.758  34.222  19.825  1.00  0.00     0.178 HD
BRANCH  13  15
HETATM   15  C   LIG     1      14.984  32.522  19.220  1.00  0.00     0.091 C 
HETATM   16  C   LIG     1      16.120  31.787  19.941  1.00  0.00     0.032 C 
HETATM   17  C   LIG     1      15.339  32.739  17.746  1.00  0.00     0.032 C 
ENDBRANCH  13  15
ENDBRANCH   3  13
TORSDOF 4
ENDMDL
MODEL 14
REMARK VINA RESULT:      -5.2      1.280      1.584
REMARK  4 active torsions:
REMARK  status: ('A' for Active; 'I' for Inactive)
REMARK    1  A    between atoms: C_2  and  N_4 
REMARK    2  A    between atoms: N_4  and  C_5 
REMARK    3  A    between atoms: C_7  and  N_8 
REMARK    4  A    between atoms: N_8  and  C_9 
ROOT
HETATM    1  C   LIG     1      16.072  34.943  20.027  1.00  0.00     0.741 A 
HETATM    2  N   LIG     1      16.112  35.047  21.380  1.00  0.00     0.130 NA
HETATM    3  C   LIG     1      16.993  35.889  21.980  1.00  0.00     0.741 A 
HETATM    4  N   LIG     1      17.840  36.629  21.218  1.00  0.00    -0.030 NA
HETATM    5  C   LIG     1      17.803  36.529  19.865  1.00  0.00     0.259 A 
HETATM    6 CL   LIG     1      18.895  37.486  18.889  1.00  0.00    -0.040 Cl
HETATM    7  N   LIG     1      16.921  35.687  19.272  1.00  0.00    -0.030 NA
ENDROOT
BRANCH   1   8
HETATM    8  N   LIG     1      15.133  34.048  19.414  1.00  0.00    -0.218 N 
HETATM    9  H   LIG     1      14.207  33.911  19.880  1.00  0.00     0.178 HD
BRANCH   8  10
HETATM   10  C   LIG     1      15.400  33.317  18.172  1.00  0.00     0.091 C 
HETATM   11  C   LIG     1      14.634  31.993  18.181  1.00  0.00     0.032 C 
HETATM   12  C   LIG     1      14.991  34.175  16.973  1.00  0.00     0.032 C 
ENDBRANCH   8  10
ENDBRANCH   1   8
BRANCH   3  13
HETATM   13  N   LIG     1      17.023  35.983  23.410  1.00  0.00    -0.218 N 
HETATM   14  H   LIG     1      17.299  35.131  23.951  1.00  0.00     0.178 HD
BRANCH  13  15
HETATM   15  C   LIG     1      16.715  37.225  24.128  1.00  0.00     0.091 C 
HETATM   16  C   LIG     1      15.880  38.157  23.242  1.00  0.00     0.032 C 
HETATM   17  C   LIG     1      18.010  37.918  24.560  1.00  0.00     0.032 C 
ENDBRANCH  13  15
ENDBRANCH   3  13
TORSDOF 4
ENDMDL
MODEL 15
REMARK VINA RESULT:      -4.9      4.131      8.330
REMARK  4 active torsions:
REMARK  status: ('A' for Active; 'I' for Inactive)
REMARK    1  A    between atoms: C_2  and  N_4 
REMARK    2  A    between atoms: N_4  and  C_5 
REMARK    3  A    between atoms: C_7  and  N_8 
REMARK    4  A    between atoms: N_8  and  C_9 
ROOT
HETATM    1  C   LIG     1      14.778  32.322  17.952  1.00  0.00     0.741 A 
HETATM    2  N   LIG     1      13.971  31.394  17.377  1.00  0.00     0.130 NA
HETATM    3  C   LIG     1      14.127  31.061  16.069  1.00  0.00     0.741 A 
HETATM    4  N   LIG     1      15.097  31.666  15.334  1.00  0.00    -0.030 NA
HETATM    5  C   LIG     1      15.907  32.593  15.905  1.00  0.00     0.259 A 
HETATM    6 CL   LIG     1      17.155  33.366  14.954  1.00  0.00    -0.040 Cl
HETATM    7  N   LIG     1      15.747  32.920  17.211  1.00  0.00    -0.030 NA
ENDROOT
BRANCH   1   8
HETATM    8  N   LIG     1      14.597  32.657  19.335  1.00  0.00    -0.218 N 
HETATM    9  H   LIG     1      13.803  32.213  19.849  1.00  0.00     0.178 HD
BRANCH   8  10
HETATM   10  C   LIG     1      15.463  33.587  20.066  1.00  0.00     0.091 C 
HETATM   11  C   LIG     1      15.612  34.883  19.269  1.00  0.00     0.032 C 
HETATM   12  C   LIG     1      14.871  33.863  21.449  1.00  0.00     0.032 C 
ENDBRANCH   8  10
ENDBRANCH   1   8
BRANCH   3  13
HETATM   13  N   LIG     1      13.263  30.082  15.478  1.00  0.00    -0.218 N 
HETATM   14  H   LIG     1      12.400  29.811  16.003  1.00  0.00     0.178 HD
BRANCH  13  15
HETATM   15  C   LIG     1      13.530  29.480  14.167  1.00  0.00     0.091 C 
HETATM   16  C   LIG     1      12.550  28.332  13.901  1.00  0.00     0.032 C 
HETATM   17  C   LIG     1      14.975  28.974  14.106  1.00  0.00     0.032 C 
ENDBRANCH  13  15
ENDBRANCH   3  13
TORSDOF 4
ENDMDL
MODEL 16
REMARK VINA RESULT:      -4.1      3.509      5.802
REMARK  4 active torsions:
REMARK  status: ('A' for Active; 'I' for Inactive)
REMARK    1  A    between atoms: C_2  and  N_4 
REMARK    2  A    between atoms: N_4  and  C_5 
REMARK    3  A    between atoms: C_7  and  N_8 
REMARK    4  A    between atoms: N_8  and  C_9 
ROOT
HETATM    1  C   LIG     1      18.828  38.748  19.047  1.00  0.00     0.741 A 
HETATM    2  N   LIG     1      18.225  37.536  18.943  1.00  0.00     0.130 NA
HETATM    3  C   LIG     1      17.804  36.879  20.055  1.00  0.00     0.741 A 
HETATM    4  N   LIG     1      17.994  37.440  21.277  1.00  0.00    -0.030 NA
HETATM    5  C   LIG     1      18.595  38.651  21.386  1.00  0.00     0.259 A 
HETATM    6 CL   LIG     1      18.833  39.369  22.964  1.00  0.00    -0.040 Cl
HETATM    7  N   LIG     1      19.011  39.303  20.273  1.00  0.00    -0.030 NA
ENDROOT
BRANCH   1   8
HETATM    8  N   LIG     1      19.264  39.426  17.859  1.00  0.00    -0.218 N 
HETATM    9  H   LIG     1      20.291  39.492  17.679  1.00  0.00     0.178 HD
BRANCH   8  10
HETATM   10  C   LIG     1      18.348  40.029  16.887  1.00  0.00     0.091 C 
HETATM   11  C   LIG     1      18.862  41.413  16.488  1.00  0.00     0.032 C 
HETATM   12  C   LIG     1      18.227  39.120  15.662  1.00  0.00     0.032 C 
ENDBRANCH   8  10
ENDBRANCH   1   8
BRANCH   3  13
HETATM   13  N   LIG     1      17.173  35.599  19.926  1.00  0.00    -0.218 N 
HETATM   14  H   LIG     1      17.339  35.058  19.046  1.00  0.00     0.178 HD
BRANCH  13  15
HETATM   15  C   LIG     1      16.338  35.019  20.983  1.00  0.00     0.091 C 
HETATM   16  C   LIG     1      15.060  35.846  21.164  1.00  0.00     0.032 C 
HETATM   17  C   LIG     1      17.122  34.956  22.297  1.00  0.00     0.032 C 
ENDBRANCH  13  15
ENDBRANCH   3  13
TORSDOF 4
ENDMDL
