REMARK  4 active torsions:
REMARK  status: ('A' for Active; 'I' for Inactive)
REMARK    1  A    between atoms: C_2  and  N_4 
REMARK    2  A    between atoms: N_4  and  C_5 
REMARK    3  A    between atoms: C_7  and  N_8 
REMARK    4  A    between atoms: N_8  and  C_9 
ROOT
HETATM    1  C   LIG     1      -1.167   0.003  -0.010  1.00  0.00     0.741 A 
HETATM    2  N   LIG     1       0.026   0.179   0.614  1.00  0.00     0.130 NA
HETATM    3  C   LIG     1       1.166  -0.325   0.075  1.00  0.00     0.741 A 
HETATM    4  N   LIG     1       1.108  -1.013  -1.095  1.00  0.00    -0.030 NA
HETATM    5  C   LIG     1      -0.081  -1.191  -1.723  1.00  0.00     0.259 A 
HETATM    6 CL   LIG     1      -0.149  -2.076  -3.231  1.00  0.00    -0.040 Cl
HETATM    7  N   LIG     1      -1.216  -0.684  -1.181  1.00  0.00    -0.030 NA
ENDROOT
BRANCH   1   8
HETATM    8  N   LIG     1      -2.359   0.545   0.576  1.00  0.00    -0.218 N 
HETATM    9  H   LIG     1      -2.271   1.066   1.478  1.00  0.00     0.178 HD
BRANCH   8  10
HETATM   10  C   LIG     1      -3.691   0.409  -0.020  1.00  0.00     0.091 C 
HETATM   11  C   LIG     1      -4.608  -0.350   0.940  1.00  0.00     0.032 C 
HETATM   12  C   LIG     1      -4.258   1.795  -0.333  1.00  0.00     0.032 C 
ENDBRANCH   8  10
ENDBRANCH   1   8
BRANCH   3  13
HETATM   13  N   LIG     1       2.416  -0.132   0.750  1.00  0.00    -0.218 N 
HETATM   14  H   LIG     1       2.402   0.359   1.674  1.00  0.00     0.178 HD
BRANCH  13  15
HETATM   15  C   LIG     1       3.690  -0.619   0.210  1.00  0.00     0.091 C 
HETATM   16  C   LIG     1       4.746  -0.685   1.319  1.00  0.00     0.032 C 
HETATM   17  C   LIG     1       4.164   0.295  -0.924  1.00  0.00     0.032 C 
ENDBRANCH  13  15
ENDBRANCH   3  13
TORSDOF 4
