REMARK  3 active torsions:
REMARK  status: ('A' for Active; 'I' for Inactive)
REMARK    1  A    between atoms: C_13  and  C_14 
REMARK    2  A    between atoms: C_14  and  C_15 
REMARK    3  A    between atoms: C_15  and  O_16 
ROOT
HETATM    1  C   LIG     1      -0.893   2.307   1.111  1.00  0.00     0.156 C 
HETATM    2  N   LIG     1      -0.993   0.903   0.703  1.00  0.00    -0.349 N 
HETATM    3  C   LIG     1      -2.179   0.410   0.041  1.00  0.00     0.051 A 
HETATM    4  C   LIG     1      -2.901   1.218  -0.857  1.00  0.00     0.031 A 
HETATM    5  C   LIG     1      -3.946   0.673  -1.609  1.00  0.00     0.002 A 
HETATM    6  C   LIG     1      -4.272  -0.680  -1.484  1.00  0.00     0.002 A 
HETATM    7  C   LIG     1      -3.567  -1.489  -0.588  1.00  0.00     0.021 A 
HETATM    8  C   LIG     1      -2.537  -0.944   0.184  1.00  0.00     0.032 A 
HETATM    9  S   LIG     1      -1.736  -1.939   1.445  1.00  0.00    -0.086 SA
HETATM   10  C   LIG     1      -0.090  -1.365   1.016  1.00  0.00     0.032 A 
HETATM   11  C   LIG     1       0.135   0.010   0.826  1.00  0.00     0.052 A 
HETATM   12  C   LIG     1       1.446   0.464   0.594  1.00  0.00     0.038 A 
HETATM   13  C   LIG     1       2.518  -0.443   0.554  1.00  0.00    -0.046 A 
HETATM   14  C   LIG     1       2.268  -1.815   0.709  1.00  0.00     0.009 A 
HETATM   15  C   LIG     1       0.969  -2.273   0.941  1.00  0.00     0.022 A 
ENDROOT
BRANCH  13  16
HETATM   16  C   LIG     1       3.912   0.043   0.266  1.00  0.00     0.148 C 
BRANCH  16  17
HETATM   17  C   LIG     1       4.182  -0.001  -1.205  1.00  0.00     0.143 C 
HETATM   18  O   LIG     1       5.072  -0.767  -1.662  1.00  0.00    -0.650 OA
BRANCH  17  19
HETATM   19  O   LIG     1       3.451   0.808  -2.069  1.00  0.00    -0.776 OA
HETATM   20  H   LIG     1       3.621   0.789  -3.068  1.00  0.00     0.167 HD
ENDBRANCH  17  19
ENDBRANCH  16  17
ENDBRANCH  13  16
TORSDOF 3
