MODEL 1
REMARK VINA RESULT:      -9.7      0.000      0.000
REMARK  3 active torsions:
REMARK  status: ('A' for Active; 'I' for Inactive)
REMARK    1  A    between atoms: C_13  and  C_14 
REMARK    2  A    between atoms: C_14  and  C_15 
REMARK    3  A    between atoms: C_15  and  O_16 
ROOT
HETATM    1  C   LIG     1      16.034  35.027  22.268  1.00  0.00     0.156 C 
HETATM    2  N   LIG     1      16.829  36.100  22.873  1.00  0.00    -0.349 N 
HETATM    3  C   LIG     1      17.215  36.038  24.264  1.00  0.00     0.051 A 
HETATM    4  C   LIG     1      17.528  34.811  24.879  1.00  0.00     0.031 A 
HETATM    5  C   LIG     1      18.055  34.788  26.173  1.00  0.00     0.002 A 
HETATM    6  C   LIG     1      18.286  35.982  26.860  1.00  0.00     0.002 A 
HETATM    7  C   LIG     1      17.970  37.206  26.262  1.00  0.00     0.021 A 
HETATM    8  C   LIG     1      17.421  37.234  24.977  1.00  0.00     0.032 A 
HETATM    9  S   LIG     1      16.869  38.788  24.269  1.00  0.00    -0.086 SA
HETATM   10  C   LIG     1      17.573  38.435  22.655  1.00  0.00     0.032 A 
HETATM   11  C   LIG     1      17.361  37.175  22.069  1.00  0.00     0.052 A 
HETATM   12  C   LIG     1      17.824  36.941  20.762  1.00  0.00     0.038 A 
HETATM   13  C   LIG     1      18.489  37.952  20.049  1.00  0.00    -0.046 A 
HETATM   14  C   LIG     1      18.724  39.191  20.665  1.00  0.00     0.009 A 
HETATM   15  C   LIG     1      18.265  39.431  21.962  1.00  0.00     0.022 A 
ENDROOT
BRANCH  13  16
HETATM   16  C   LIG     1      19.017  37.684  18.667  1.00  0.00     0.148 C 
BRANCH  16  17
HETATM   17  C   LIG     1      19.218  38.970  17.930  1.00  0.00     0.143 C 
HETATM   18  O   LIG     1      18.297  39.435  17.207  1.00  0.00    -0.650 OA
BRANCH  17  19
HETATM   19  O   LIG     1      20.425  39.653  18.042  1.00  0.00    -0.776 OA
HETATM   20  H   LIG     1      21.150  39.328  18.672  1.00  0.00     0.167 HD
ENDBRANCH  17  19
ENDBRANCH  16  17
ENDBRANCH  13  16
TORSDOF 3
ENDMDL
