REMARK  3 active torsions:
REMARK  status: ('A' for Active; 'I' for Inactive)
REMARK    1  A    between atoms: C_2  and  C_3 
REMARK    2  A    between atoms: C_3  and  C_4 
REMARK    3  A    between atoms: C_7  and  O_8 
ROOT
HETATM    1  C   LIG     1       0.959   0.025   0.742  1.00  0.00    -0.055 A 
HETATM    2  C   LIG     1       0.058   1.052   0.421  1.00  0.00     0.010 A 
HETATM    3  C   LIG     1      -1.291   0.764   0.190  1.00  0.00     0.037 A 
HETATM    4  C   LIG     1      -1.758  -0.562   0.279  1.00  0.00     0.068 A 
HETATM    5  C   LIG     1      -0.857  -1.583   0.601  1.00  0.00     0.037 A 
HETATM    6  C   LIG     1       0.492  -1.295   0.831  1.00  0.00     0.010 A 
ENDROOT
BRANCH   1   7
HETATM    7  C   LIG     1       2.412   0.342   0.987  1.00  0.00     0.064 C 
BRANCH   7   8
HETATM    8  C   LIG     1       3.088   0.788  -0.280  1.00  0.00    -0.032 C 
HETATM    9  C   LIG     1       3.287  -0.049  -1.302  1.00  0.00     0.007 C 
ENDBRANCH   7   8
ENDBRANCH   1   7
BRANCH   4  10
HETATM   10  O   LIG     1      -3.100  -0.903   0.056  1.00  0.00    -0.356 OA
HETATM   11  C   LIG     1      -4.122   0.031  -0.278  1.00  0.00     0.210 C 
ENDBRANCH   4  10
TORSDOF 3
