REMARK  3 active torsions:
REMARK  status: ('A' for Active; 'I' for Inactive)
REMARK    1  A    between atoms: C_2  and  C_3 
REMARK    2  A    between atoms: C_2  and  O_5 
REMARK    3  A    between atoms: O_5  and  C_6 
ROOT
HETATM    1  O   LIG     1       0.091  -1.551   1.106  1.00  0.00    -0.260 OA
HETATM    2  C   LIG     1       0.647  -0.762   0.295  1.00  0.00     0.282 C 
ENDROOT
BRANCH   2   3
HETATM    3  C   LIG     1       2.113  -0.649   0.298  1.00  0.00     0.072 C 
HETATM    4  C   LIG     1       2.764   0.165  -0.530  1.00  0.00     0.017 C 
ENDBRANCH   2   3
BRANCH   2   5
HETATM    5  O   LIG     1      -0.119  -0.006  -0.602  1.00  0.00    -0.319 OA
BRANCH   5   6
HETATM    6  C   LIG     1      -1.545  -0.028  -0.629  1.00  0.00     0.174 C 
HETATM    7  C   LIG     1      -2.118   0.780   0.530  1.00  0.00     0.034 C 
ENDBRANCH   5   6
ENDBRANCH   2   5
TORSDOF 3
