MODEL 1
REMARK VINA RESULT:      -4.6      0.000      0.000
REMARK  3 active torsions:
REMARK  status: ('A' for Active; 'I' for Inactive)
REMARK    1  A    between atoms: C_2  and  C_3 
REMARK    2  A    between atoms: C_2  and  O_5 
REMARK    3  A    between atoms: O_5  and  C_6 
ROOT
HETATM    1  O   LIG     1      17.116  38.554  25.614  1.00  0.00    -0.260 OA
HETATM    2  C   LIG     1      17.492  37.392  25.304  1.00  0.00     0.282 C 
ENDROOT
BRANCH   2   3
HETATM    3  C   LIG     1      18.281  36.614  26.270  1.00  0.00     0.072 C 
HETATM    4  C   LIG     1      18.218  35.286  26.333  1.00  0.00     0.017 C 
ENDBRANCH   2   3
BRANCH   2   5
HETATM    5  O   LIG     1      17.158  36.843  24.058  1.00  0.00    -0.319 OA
BRANCH   5   6
HETATM    6  C   LIG     1      16.454  37.562  23.047  1.00  0.00     0.174 C 
HETATM    7  C   LIG     1      17.429  38.219  22.076  1.00  0.00     0.034 C 
ENDBRANCH   5   6
ENDBRANCH   2   5
TORSDOF 3
ENDMDL
MODEL 2
REMARK VINA RESULT:      -4.4      1.505      3.290
REMARK  3 active torsions:
REMARK  status: ('A' for Active; 'I' for Inactive)
REMARK    1  A    between atoms: C_2  and  C_3 
REMARK    2  A    between atoms: C_2  and  O_5 
REMARK    3  A    between atoms: O_5  and  C_6 
ROOT
HETATM    1  O   LIG     1      16.224  39.092  22.707  1.00  0.00    -0.260 OA
HETATM    2  C   LIG     1      16.378  37.929  23.170  1.00  0.00     0.282 C 
ENDROOT
BRANCH   2   3
HETATM    3  C   LIG     1      16.627  36.817  22.241  1.00  0.00     0.072 C 
HETATM    4  C   LIG     1      16.862  35.577  22.665  1.00  0.00     0.017 C 
ENDBRANCH   2   3
BRANCH   2   5
HETATM    5  O   LIG     1      16.320  37.699  24.550  1.00  0.00    -0.319 OA
BRANCH   5   6
HETATM    6  C   LIG     1      17.337  38.114  25.459  1.00  0.00     0.174 C 
HETATM    7  C   LIG     1      18.149  36.917  25.942  1.00  0.00     0.034 C 
ENDBRANCH   5   6
ENDBRANCH   2   5
TORSDOF 3
ENDMDL
MODEL 3
REMARK VINA RESULT:      -4.4      1.022      3.509
REMARK  3 active torsions:
REMARK  status: ('A' for Active; 'I' for Inactive)
REMARK    1  A    between atoms: C_2  and  C_3 
REMARK    2  A    between atoms: C_2  and  O_5 
REMARK    3  A    between atoms: O_5  and  C_6 
ROOT
HETATM    1  O   LIG     1      16.915  38.734  25.657  1.00  0.00    -0.260 OA
HETATM    2  C   LIG     1      17.584  37.890  25.001  1.00  0.00     0.282 C 
ENDROOT
BRANCH   2   3
HETATM    3  C   LIG     1      17.309  37.717  23.567  1.00  0.00     0.072 C 
HETATM    4  C   LIG     1      17.501  38.695  22.685  1.00  0.00     0.017 C 
ENDBRANCH   2   3
BRANCH   2   5
HETATM    5  O   LIG     1      18.580  37.129  25.627  1.00  0.00    -0.319 OA
BRANCH   5   6
HETATM    6  C   LIG     1      18.317  36.210  26.686  1.00  0.00     0.174 C 
HETATM    7  C   LIG     1      17.816  34.880  26.133  1.00  0.00     0.034 C 
ENDBRANCH   5   6
ENDBRANCH   2   5
TORSDOF 3
ENDMDL
MODEL 4
REMARK VINA RESULT:      -4.0      2.631      3.178
REMARK  3 active torsions:
REMARK  status: ('A' for Active; 'I' for Inactive)
REMARK    1  A    between atoms: C_2  and  C_3 
REMARK    2  A    between atoms: C_2  and  O_5 
REMARK    3  A    between atoms: O_5  and  C_6 
ROOT
HETATM    1  O   LIG     1      15.829  38.036  23.977  1.00  0.00    -0.260 OA
HETATM    2  C   LIG     1      16.608  37.653  23.063  1.00  0.00     0.282 C 
ENDROOT
BRANCH   2   3
HETATM    3  C   LIG     1      16.182  36.566  22.169  1.00  0.00     0.072 C 
HETATM    4  C   LIG     1      17.045  35.700  21.644  1.00  0.00     0.017 C 
ENDBRANCH   2   3
BRANCH   2   5
HETATM    5  O   LIG     1      17.861  38.257  22.895  1.00  0.00    -0.319 OA
BRANCH   5   6
HETATM    6  C   LIG     1      18.101  39.326  21.981  1.00  0.00     0.174 C 
HETATM    7  C   LIG     1      19.112  38.909  20.919  1.00  0.00     0.034 C 
ENDBRANCH   5   6
ENDBRANCH   2   5
TORSDOF 3
ENDMDL
MODEL 5
REMARK VINA RESULT:      -3.9      7.970      8.998
REMARK  3 active torsions:
REMARK  status: ('A' for Active; 'I' for Inactive)
REMARK    1  A    between atoms: C_2  and  C_3 
REMARK    2  A    between atoms: C_2  and  O_5 
REMARK    3  A    between atoms: O_5  and  C_6 
ROOT
HETATM    1  O   LIG     1      15.669  32.852  17.532  1.00  0.00    -0.260 OA
HETATM    2  C   LIG     1      14.981  32.253  18.402  1.00  0.00     0.282 C 
ENDROOT
BRANCH   2   3
HETATM    3  C   LIG     1      15.344  32.388  19.820  1.00  0.00     0.072 C 
HETATM    4  C   LIG     1      15.592  33.571  20.379  1.00  0.00     0.017 C 
ENDBRANCH   2   3
BRANCH   2   5
HETATM    5  O   LIG     1      13.880  31.472  18.026  1.00  0.00    -0.319 OA
BRANCH   5   6
HETATM    6  C   LIG     1      13.113  31.712  16.848  1.00  0.00     0.174 C 
HETATM    7  C   LIG     1      13.379  30.635  15.802  1.00  0.00     0.034 C 
ENDBRANCH   5   6
ENDBRANCH   2   5
TORSDOF 3
ENDMDL
MODEL 6
REMARK VINA RESULT:      -3.9      1.285      3.948
REMARK  3 active torsions:
REMARK  status: ('A' for Active; 'I' for Inactive)
REMARK    1  A    between atoms: C_2  and  C_3 
REMARK    2  A    between atoms: C_2  and  O_5 
REMARK    3  A    between atoms: O_5  and  C_6 
ROOT
HETATM    1  O   LIG     1      17.138  36.550  21.732  1.00  0.00    -0.260 OA
HETATM    2  C   LIG     1      17.002  37.400  22.653  1.00  0.00     0.282 C 
ENDROOT
BRANCH   2   3
HETATM    3  C   LIG     1      17.306  38.811  22.375  1.00  0.00     0.072 C 
HETATM    4  C   LIG     1      18.392  39.184  21.701  1.00  0.00     0.017 C 
ENDBRANCH   2   3
BRANCH   2   5
HETATM    5  O   LIG     1      16.562  37.008  23.924  1.00  0.00    -0.319 OA
BRANCH   5   6
HETATM    6  C   LIG     1      17.445  36.691  24.998  1.00  0.00     0.174 C 
HETATM    7  C   LIG     1      17.490  35.185  25.232  1.00  0.00     0.034 C 
ENDBRANCH   5   6
ENDBRANCH   2   5
TORSDOF 3
ENDMDL
MODEL 7
REMARK VINA RESULT:      -3.8      3.353      5.123
REMARK  3 active torsions:
REMARK  status: ('A' for Active; 'I' for Inactive)
REMARK    1  A    between atoms: C_2  and  C_3 
REMARK    2  A    between atoms: C_2  and  O_5 
REMARK    3  A    between atoms: O_5  and  C_6 
ROOT
HETATM    1  O   LIG     1      19.005  40.036  19.738  1.00  0.00    -0.260 OA
HETATM    2  C   LIG     1      19.188  38.968  20.383  1.00  0.00     0.282 C 
ENDROOT
BRANCH   2   3
HETATM    3  C   LIG     1      19.661  37.773  19.668  1.00  0.00     0.072 C 
HETATM    4  C   LIG     1      18.890  36.704  19.485  1.00  0.00     0.017 C 
ENDBRANCH   2   3
BRANCH   2   5
HETATM    5  O   LIG     1      18.950  38.919  21.763  1.00  0.00    -0.319 OA
BRANCH   5   6
HETATM    6  C   LIG     1      17.653  39.055  22.341  1.00  0.00     0.174 C 
HETATM    7  C   LIG     1      17.006  37.689  22.537  1.00  0.00     0.034 C 
ENDBRANCH   5   6
ENDBRANCH   2   5
TORSDOF 3
ENDMDL
MODEL 8
REMARK VINA RESULT:      -3.8      3.745      4.626
REMARK  3 active torsions:
REMARK  status: ('A' for Active; 'I' for Inactive)
REMARK    1  A    between atoms: C_2  and  C_3 
REMARK    2  A    between atoms: C_2  and  O_5 
REMARK    3  A    between atoms: O_5  and  C_6 
ROOT
HETATM    1  O   LIG     1      18.022  36.310  19.710  1.00  0.00    -0.260 OA
HETATM    2  C   LIG     1      17.876  36.957  20.783  1.00  0.00     0.282 C 
ENDROOT
BRANCH   2   3
HETATM    3  C   LIG     1      17.001  36.413  21.832  1.00  0.00     0.072 C 
HETATM    4  C   LIG     1      16.885  35.105  22.052  1.00  0.00     0.017 C 
ENDBRANCH   2   3
BRANCH   2   5
HETATM    5  O   LIG     1      18.541  38.175  20.977  1.00  0.00    -0.319 OA
BRANCH   5   6
HETATM    6  C   LIG     1      18.904  39.049  19.910  1.00  0.00     0.174 C 
HETATM    7  C   LIG     1      20.357  38.827  19.503  1.00  0.00     0.034 C 
ENDBRANCH   5   6
ENDBRANCH   2   5
TORSDOF 3
ENDMDL
MODEL 9
REMARK VINA RESULT:      -3.8      9.191     10.600
REMARK  3 active torsions:
REMARK  status: ('A' for Active; 'I' for Inactive)
REMARK    1  A    between atoms: C_2  and  C_3 
REMARK    2  A    between atoms: C_2  and  O_5 
REMARK    3  A    between atoms: O_5  and  C_6 
ROOT
HETATM    1  O   LIG     1      12.314  31.214  16.655  1.00  0.00    -0.260 OA
HETATM    2  C   LIG     1      13.564  31.223  16.820  1.00  0.00     0.282 C 
ENDROOT
BRANCH   2   3
HETATM    3  C   LIG     1      14.441  31.077  15.649  1.00  0.00     0.072 C 
HETATM    4  C   LIG     1      14.249  30.132  14.731  1.00  0.00     0.017 C 
ENDBRANCH   2   3
BRANCH   2   5
HETATM    5  O   LIG     1      14.113  31.376  18.100  1.00  0.00    -0.319 OA
BRANCH   5   6
HETATM    6  C   LIG     1      15.017  32.423  18.447  1.00  0.00     0.174 C 
HETATM    7  C   LIG     1      15.572  32.212  19.852  1.00  0.00     0.034 C 
ENDBRANCH   5   6
ENDBRANCH   2   5
TORSDOF 3
ENDMDL
MODEL 10
REMARK VINA RESULT:      -3.8      2.960      5.214
REMARK  3 active torsions:
REMARK  status: ('A' for Active; 'I' for Inactive)
REMARK    1  A    between atoms: C_2  and  C_3 
REMARK    2  A    between atoms: C_2  and  O_5 
REMARK    3  A    between atoms: O_5  and  C_6 
ROOT
HETATM    1  O   LIG     1      18.627  36.532  19.485  1.00  0.00    -0.260 OA
HETATM    2  C   LIG     1      18.480  37.485  20.298  1.00  0.00     0.282 C 
ENDROOT
BRANCH   2   3
HETATM    3  C   LIG     1      19.216  38.738  20.072  1.00  0.00     0.072 C 
HETATM    4  C   LIG     1      20.388  38.769  19.441  1.00  0.00     0.017 C 
ENDBRANCH   2   3
BRANCH   2   5
HETATM    5  O   LIG     1      17.625  37.356  21.400  1.00  0.00    -0.319 OA
BRANCH   5   6
HETATM    6  C   LIG     1      17.209  38.459  22.204  1.00  0.00     0.174 C 
HETATM    7  C   LIG     1      17.626  38.254  23.656  1.00  0.00     0.034 C 
ENDBRANCH   5   6
ENDBRANCH   2   5
TORSDOF 3
ENDMDL
MODEL 11
REMARK VINA RESULT:      -3.8      1.769      2.298
REMARK  3 active torsions:
REMARK  status: ('A' for Active; 'I' for Inactive)
REMARK    1  A    between atoms: C_2  and  C_3 
REMARK    2  A    between atoms: C_2  and  O_5 
REMARK    3  A    between atoms: O_5  and  C_6 
ROOT
HETATM    1  O   LIG     1      17.156  35.062  23.624  1.00  0.00    -0.260 OA
HETATM    2  C   LIG     1      17.072  36.303  23.830  1.00  0.00     0.282 C 
ENDROOT
BRANCH   2   3
HETATM    3  C   LIG     1      17.447  36.836  25.148  1.00  0.00     0.072 C 
HETATM    4  C   LIG     1      17.357  38.132  25.441  1.00  0.00     0.017 C 
ENDBRANCH   2   3
BRANCH   2   5
HETATM    5  O   LIG     1      16.633  37.165  22.816  1.00  0.00    -0.319 OA
BRANCH   5   6
HETATM    6  C   LIG     1      17.420  37.500  21.675  1.00  0.00     0.174 C 
HETATM    7  C   LIG     1      18.073  38.866  21.852  1.00  0.00     0.034 C 
ENDBRANCH   5   6
ENDBRANCH   2   5
TORSDOF 3
ENDMDL
MODEL 12
REMARK VINA RESULT:      -3.8      4.313      6.701
REMARK  3 active torsions:
REMARK  status: ('A' for Active; 'I' for Inactive)
REMARK    1  A    between atoms: C_2  and  C_3 
REMARK    2  A    between atoms: C_2  and  O_5 
REMARK    3  A    between atoms: O_5  and  C_6 
ROOT
HETATM    1  O   LIG     1      20.573  39.331  19.332  1.00  0.00    -0.260 OA
HETATM    2  C   LIG     1      19.325  39.217  19.193  1.00  0.00     0.282 C 
ENDROOT
BRANCH   2   3
HETATM    3  C   LIG     1      18.783  38.852  17.876  1.00  0.00     0.072 C 
HETATM    4  C   LIG     1      18.843  39.673  16.831  1.00  0.00     0.017 C 
ENDBRANCH   2   3
BRANCH   2   5
HETATM    5  O   LIG     1      18.465  39.429  20.278  1.00  0.00    -0.319 OA
BRANCH   5   6
HETATM    6  C   LIG     1      18.795  39.079  21.621  1.00  0.00     0.174 C 
HETATM    7  C   LIG     1      17.617  38.394  22.304  1.00  0.00     0.034 C 
ENDBRANCH   5   6
ENDBRANCH   2   5
TORSDOF 3
ENDMDL
MODEL 13
REMARK VINA RESULT:      -3.8      7.116      8.569
REMARK  3 active torsions:
REMARK  status: ('A' for Active; 'I' for Inactive)
REMARK    1  A    between atoms: C_2  and  C_3 
REMARK    2  A    between atoms: C_2  and  O_5 
REMARK    3  A    between atoms: O_5  and  C_6 
ROOT
HETATM    1  O   LIG     1      14.427  31.144  19.373  1.00  0.00    -0.260 OA
HETATM    2  C   LIG     1      14.721  32.088  18.590  1.00  0.00     0.282 C 
ENDROOT
BRANCH   2   3
HETATM    3  C   LIG     1      14.152  32.096  17.234  1.00  0.00     0.072 C 
HETATM    4  C   LIG     1      13.674  30.995  16.658  1.00  0.00     0.017 C 
ENDBRANCH   2   3
BRANCH   2   5
HETATM    5  O   LIG     1      15.573  33.119  19.006  1.00  0.00    -0.319 OA
BRANCH   5   6
HETATM    6  C   LIG     1      15.563  33.662  20.325  1.00  0.00     0.174 C 
HETATM    7  C   LIG     1      15.897  35.149  20.297  1.00  0.00     0.034 C 
ENDBRANCH   5   6
ENDBRANCH   2   5
TORSDOF 3
ENDMDL
MODEL 14
REMARK VINA RESULT:      -3.7      7.594      9.077
REMARK  3 active torsions:
REMARK  status: ('A' for Active; 'I' for Inactive)
REMARK    1  A    between atoms: C_2  and  C_3 
REMARK    2  A    between atoms: C_2  and  O_5 
REMARK    3  A    between atoms: O_5  and  C_6 
ROOT
HETATM    1  O   LIG     1      14.950  34.348  16.681  1.00  0.00    -0.260 OA
HETATM    2  C   LIG     1      14.789  33.214  17.206  1.00  0.00     0.282 C 
ENDROOT
BRANCH   2   3
HETATM    3  C   LIG     1      13.626  32.403  16.817  1.00  0.00     0.072 C 
HETATM    4  C   LIG     1      13.737  31.123  16.469  1.00  0.00     0.017 C 
ENDBRANCH   2   3
BRANCH   2   5
HETATM    5  O   LIG     1      15.708  32.727  18.145  1.00  0.00    -0.319 OA
BRANCH   5   6
HETATM    6  C   LIG     1      15.371  32.449  19.503  1.00  0.00     0.174 C 
HETATM    7  C   LIG     1      15.598  33.677  20.377  1.00  0.00     0.034 C 
ENDBRANCH   5   6
ENDBRANCH   2   5
TORSDOF 3
ENDMDL
MODEL 15
REMARK VINA RESULT:      -3.7      3.729      4.924
REMARK  3 active torsions:
REMARK  status: ('A' for Active; 'I' for Inactive)
REMARK    1  A    between atoms: C_2  and  C_3 
REMARK    2  A    between atoms: C_2  and  O_5 
REMARK    3  A    between atoms: O_5  and  C_6 
ROOT
HETATM    1  O   LIG     1      18.329  36.441  19.864  1.00  0.00    -0.260 OA
HETATM    2  C   LIG     1      17.965  37.112  20.868  1.00  0.00     0.282 C 
ENDROOT
BRANCH   2   3
HETATM    3  C   LIG     1      18.378  38.518  20.977  1.00  0.00     0.072 C 
HETATM    4  C   LIG     1      19.389  39.018  20.270  1.00  0.00     0.017 C 
ENDBRANCH   2   3
BRANCH   2   5
HETATM    5  O   LIG     1      17.173  36.527  21.865  1.00  0.00    -0.319 OA
BRANCH   5   6
HETATM    6  C   LIG     1      16.712  35.179  21.812  1.00  0.00     0.174 C 
HETATM    7  C   LIG     1      15.292  35.116  21.262  1.00  0.00     0.034 C 
ENDBRANCH   5   6
ENDBRANCH   2   5
TORSDOF 3
ENDMDL
MODEL 16
REMARK VINA RESULT:      -3.7      9.701     11.221
REMARK  3 active torsions:
REMARK  status: ('A' for Active; 'I' for Inactive)
REMARK    1  A    between atoms: C_2  and  C_3 
REMARK    2  A    between atoms: C_2  and  O_5 
REMARK    3  A    between atoms: O_5  and  C_6 
ROOT
HETATM    1  O   LIG     1      17.508  32.146  15.209  1.00  0.00    -0.260 OA
HETATM    2  C   LIG     1      16.277  32.248  14.954  1.00  0.00     0.282 C 
ENDROOT
BRANCH   2   3
HETATM    3  C   LIG     1      15.702  31.437  13.871  1.00  0.00     0.072 C 
HETATM    4  C   LIG     1      15.220  30.213  14.080  1.00  0.00     0.017 C 
ENDBRANCH   2   3
BRANCH   2   5
HETATM    5  O   LIG     1      15.466  33.118  15.694  1.00  0.00    -0.319 OA
BRANCH   5   6
HETATM    6  C   LIG     1      15.019  32.838  17.019  1.00  0.00     0.174 C 
HETATM    7  C   LIG     1      13.693  32.085  16.992  1.00  0.00     0.034 C 
ENDBRANCH   5   6
ENDBRANCH   2   5
TORSDOF 3
ENDMDL
MODEL 17
REMARK VINA RESULT:      -3.6      9.334     10.460
REMARK  3 active torsions:
REMARK  status: ('A' for Active; 'I' for Inactive)
REMARK    1  A    between atoms: C_2  and  C_3 
REMARK    2  A    between atoms: C_2  and  O_5 
REMARK    3  A    between atoms: O_5  and  C_6 
ROOT
HETATM    1  O   LIG     1      15.378  34.397  16.366  1.00  0.00    -0.260 OA
HETATM    2  C   LIG     1      15.388  33.138  16.425  1.00  0.00     0.282 C 
ENDROOT
BRANCH   2   3
HETATM    3  C   LIG     1      14.466  32.457  17.345  1.00  0.00     0.072 C 
HETATM    4  C   LIG     1      13.363  31.844  16.921  1.00  0.00     0.017 C 
ENDBRANCH   2   3
BRANCH   2   5
HETATM    5  O   LIG     1      16.262  32.395  15.620  1.00  0.00    -0.319 OA
BRANCH   5   6
HETATM    6  C   LIG     1      16.053  32.180  14.225  1.00  0.00     0.174 C 
HETATM    7  C   LIG     1      15.410  30.820  13.980  1.00  0.00     0.034 C 
ENDBRANCH   5   6
ENDBRANCH   2   5
TORSDOF 3
ENDMDL
MODEL 18
REMARK VINA RESULT:      -3.5     11.397     12.157
REMARK  3 active torsions:
REMARK  status: ('A' for Active; 'I' for Inactive)
REMARK    1  A    between atoms: C_2  and  C_3 
REMARK    2  A    between atoms: C_2  and  O_5 
REMARK    3  A    between atoms: O_5  and  C_6 
ROOT
HETATM    1  O   LIG     1      14.312  29.395  14.060  1.00  0.00    -0.260 OA
HETATM    2  C   LIG     1      14.848  30.383  14.630  1.00  0.00     0.282 C 
ENDROOT
BRANCH   2   3
HETATM    3  C   LIG     1      14.178  30.990  15.790  1.00  0.00     0.072 C 
HETATM    4  C   LIG     1      12.936  30.668  16.141  1.00  0.00     0.017 C 
ENDBRANCH   2   3
BRANCH   2   5
HETATM    5  O   LIG     1      16.069  30.894  14.171  1.00  0.00    -0.319 OA
BRANCH   5   6
HETATM    6  C   LIG     1      16.268  32.264  13.830  1.00  0.00     0.174 C 
HETATM    7  C   LIG     1      17.204  32.937  14.828  1.00  0.00     0.034 C 
ENDBRANCH   5   6
ENDBRANCH   2   5
TORSDOF 3
ENDMDL
MODEL 19
REMARK VINA RESULT:      -3.5      3.528      4.367
REMARK  3 active torsions:
REMARK  status: ('A' for Active; 'I' for Inactive)
REMARK    1  A    between atoms: C_2  and  C_3 
REMARK    2  A    between atoms: C_2  and  O_5 
REMARK    3  A    between atoms: O_5  and  C_6 
ROOT
HETATM    1  O   LIG     1      17.029  35.400  22.578  1.00  0.00    -0.260 OA
HETATM    2  C   LIG     1      16.947  35.890  21.420  1.00  0.00     0.282 C 
ENDROOT
BRANCH   2   3
HETATM    3  C   LIG     1      16.157  35.187  20.399  1.00  0.00     0.072 C 
HETATM    4  C   LIG     1      15.615  33.991  20.620  1.00  0.00     0.017 C 
ENDBRANCH   2   3
BRANCH   2   5
HETATM    5  O   LIG     1      17.596  37.092  21.108  1.00  0.00    -0.319 OA
BRANCH   5   6
HETATM    6  C   LIG     1      17.499  38.268  21.910  1.00  0.00     0.174 C 
HETATM    7  C   LIG     1      18.552  39.290  21.497  1.00  0.00     0.034 C 
ENDBRANCH   5   6
ENDBRANCH   2   5
TORSDOF 3
ENDMDL
MODEL 20
REMARK VINA RESULT:      -3.5     11.151     12.217
REMARK  3 active torsions:
REMARK  status: ('A' for Active; 'I' for Inactive)
REMARK    1  A    between atoms: C_2  and  C_3 
REMARK    2  A    between atoms: C_2  and  O_5 
REMARK    3  A    between atoms: O_5  and  C_6 
ROOT
HETATM    1  O   LIG     1      17.401  34.847  12.992  1.00  0.00    -0.260 OA
HETATM    2  C   LIG     1      17.872  33.720  13.305  1.00  0.00     0.282 C 
ENDROOT
BRANCH   2   3
HETATM    3  C   LIG     1      17.716  33.239  14.686  1.00  0.00     0.072 C 
HETATM    4  C   LIG     1      16.589  32.679  15.119  1.00  0.00     0.017 C 
ENDBRANCH   2   3
BRANCH   2   5
HETATM    5  O   LIG     1      18.531  32.933  12.352  1.00  0.00    -0.319 OA
BRANCH   5   6
HETATM    6  C   LIG     1      19.690  33.365  11.642  1.00  0.00     0.174 C 
HETATM    7  C   LIG     1      20.790  33.784  12.611  1.00  0.00     0.034 C 
ENDBRANCH   5   6
ENDBRANCH   2   5
TORSDOF 3
ENDMDL
