MODEL 1
REMARK VINA RESULT:      -6.5      0.000      0.000
REMARK  3 active torsions:
REMARK  status: ('A' for Active; 'I' for Inactive)
REMARK    1  A    between atoms: C_2  and  C_3 
REMARK    2  A    between atoms: C_3  and  C_4 
REMARK    3  A    between atoms: C_7  and  O_8 
ROOT
HETATM    1  C   LIG     1      18.327  37.647  20.537  1.00  0.00    -0.055 A 
HETATM    2  C   LIG     1      17.555  36.595  21.053  1.00  0.00     0.010 A 
HETATM    3  C   LIG     1      16.954  36.709  22.311  1.00  0.00     0.037 A 
HETATM    4  C   LIG     1      17.118  37.883  23.071  1.00  0.00     0.068 A 
HETATM    5  C   LIG     1      17.886  38.931  22.552  1.00  0.00     0.037 A 
HETATM    6  C   LIG     1      18.488  38.817  21.295  1.00  0.00     0.010 A 
ENDROOT
BRANCH   1   7
HETATM    7  C   LIG     1      18.974  37.517  19.182  1.00  0.00     0.064 C 
BRANCH   7   8
HETATM    8  C   LIG     1      19.318  38.867  18.616  1.00  0.00    -0.032 C 
HETATM    9  C   LIG     1      18.763  39.317  17.487  1.00  0.00     0.007 C 
ENDBRANCH   7   8
ENDBRANCH   1   7
BRANCH   4  10
HETATM   10  O   LIG     1      16.537  38.047  24.337  1.00  0.00    -0.356 OA
HETATM   11  C   LIG     1      17.257  37.999  25.565  1.00  0.00     0.210 C 
ENDBRANCH   4  10
TORSDOF 3
ENDMDL
MODEL 2
REMARK VINA RESULT:      -6.3      2.665      5.475
REMARK  3 active torsions:
REMARK  status: ('A' for Active; 'I' for Inactive)
REMARK    1  A    between atoms: C_2  and  C_3 
REMARK    2  A    between atoms: C_3  and  C_4 
REMARK    3  A    between atoms: C_7  and  O_8 
ROOT
HETATM    1  C   LIG     1      17.260  37.113  23.951  1.00  0.00    -0.055 A 
HETATM    2  C   LIG     1      17.434  37.973  22.856  1.00  0.00     0.010 A 
HETATM    3  C   LIG     1      17.328  37.487  21.549  1.00  0.00     0.037 A 
HETATM    4  C   LIG     1      17.043  36.126  21.321  1.00  0.00     0.068 A 
HETATM    5  C   LIG     1      16.868  35.272  22.415  1.00  0.00     0.037 A 
HETATM    6  C   LIG     1      16.976  35.759  23.722  1.00  0.00     0.010 A 
ENDROOT
BRANCH   1   7
HETATM    7  C   LIG     1      17.380  37.644  25.357  1.00  0.00     0.064 C 
BRANCH   7   8
HETATM    8  C   LIG     1      18.561  37.039  26.064  1.00  0.00    -0.032 C 
HETATM    9  C   LIG     1      18.431  35.980  26.868  1.00  0.00     0.007 C 
ENDBRANCH   7   8
ENDBRANCH   1   7
BRANCH   4  10
HETATM   10  O   LIG     1      16.926  35.589  20.030  1.00  0.00    -0.356 OA
HETATM   11  C   LIG     1      15.756  34.951  19.528  1.00  0.00     0.210 C 
ENDBRANCH   4  10
TORSDOF 3
ENDMDL
MODEL 3
REMARK VINA RESULT:      -6.3      2.191      5.013
REMARK  3 active torsions:
REMARK  status: ('A' for Active; 'I' for Inactive)
REMARK    1  A    between atoms: C_2  and  C_3 
REMARK    2  A    between atoms: C_3  and  C_4 
REMARK    3  A    between atoms: C_7  and  O_8 
ROOT
HETATM    1  C   LIG     1      17.673  37.453  21.599  1.00  0.00    -0.055 A 
HETATM    2  C   LIG     1      18.095  36.674  20.511  1.00  0.00     0.010 A 
HETATM    3  C   LIG     1      18.765  37.264  19.435  1.00  0.00     0.037 A 
HETATM    4  C   LIG     1      19.025  38.649  19.435  1.00  0.00     0.068 A 
HETATM    5  C   LIG     1      18.605  39.422  20.523  1.00  0.00     0.037 A 
HETATM    6  C   LIG     1      17.933  38.831  21.598  1.00  0.00     0.010 A 
ENDROOT
BRANCH   1   7
HETATM    7  C   LIG     1      16.948  36.810  22.754  1.00  0.00     0.064 C 
BRANCH   7   8
HETATM    8  C   LIG     1      16.838  37.758  23.916  1.00  0.00    -0.032 C 
HETATM    9  C   LIG     1      17.470  37.530  25.071  1.00  0.00     0.007 C 
ENDBRANCH   7   8
ENDBRANCH   1   7
BRANCH   4  10
HETATM   10  O   LIG     1      19.693  39.289  18.381  1.00  0.00    -0.356 OA
HETATM   11  C   LIG     1      19.123  39.534  17.099  1.00  0.00     0.210 C 
ENDBRANCH   4  10
TORSDOF 3
ENDMDL
MODEL 4
REMARK VINA RESULT:      -6.2      2.474      4.913
REMARK  3 active torsions:
REMARK  status: ('A' for Active; 'I' for Inactive)
REMARK    1  A    between atoms: C_2  and  C_3 
REMARK    2  A    between atoms: C_3  and  C_4 
REMARK    3  A    between atoms: C_7  and  O_8 
ROOT
HETATM    1  C   LIG     1      17.757  37.335  21.344  1.00  0.00    -0.055 A 
HETATM    2  C   LIG     1      18.218  36.639  20.217  1.00  0.00     0.010 A 
HETATM    3  C   LIG     1      18.878  37.317  19.187  1.00  0.00     0.037 A 
HETATM    4  C   LIG     1      19.087  38.707  19.273  1.00  0.00     0.068 A 
HETATM    5  C   LIG     1      18.627  39.398  20.399  1.00  0.00     0.037 A 
HETATM    6  C   LIG     1      17.966  38.720  21.429  1.00  0.00     0.010 A 
ENDROOT
BRANCH   1   7
HETATM    7  C   LIG     1      17.044  36.599  22.450  1.00  0.00     0.064 C 
BRANCH   7   8
HETATM    8  C   LIG     1      16.818  35.159  22.081  1.00  0.00    -0.032 C 
HETATM    9  C   LIG     1      15.638  34.726  21.630  1.00  0.00     0.007 C 
ENDBRANCH   7   8
ENDBRANCH   1   7
BRANCH   4  10
HETATM   10  O   LIG     1      19.742  39.433  18.267  1.00  0.00    -0.356 OA
HETATM   11  C   LIG     1      19.210  39.664  16.966  1.00  0.00     0.210 C 
ENDBRANCH   4  10
TORSDOF 3
ENDMDL
MODEL 5
REMARK VINA RESULT:      -6.1      1.786      2.523
REMARK  3 active torsions:
REMARK  status: ('A' for Active; 'I' for Inactive)
REMARK    1  A    between atoms: C_2  and  C_3 
REMARK    2  A    between atoms: C_3  and  C_4 
REMARK    3  A    between atoms: C_7  and  O_8 
ROOT
HETATM    1  C   LIG     1      17.516  37.905  22.335  1.00  0.00    -0.055 A 
HETATM    2  C   LIG     1      17.206  36.596  21.937  1.00  0.00     0.010 A 
HETATM    3  C   LIG     1      17.045  35.585  22.890  1.00  0.00     0.037 A 
HETATM    4  C   LIG     1      17.193  35.874  24.261  1.00  0.00     0.068 A 
HETATM    5  C   LIG     1      17.500  37.181  24.654  1.00  0.00     0.037 A 
HETATM    6  C   LIG     1      17.662  38.191  23.701  1.00  0.00     0.010 A 
ENDROOT
BRANCH   1   7
HETATM    7  C   LIG     1      17.691  38.989  21.302  1.00  0.00     0.064 C 
BRANCH   7   8
HETATM    8  C   LIG     1      19.147  39.238  21.022  1.00  0.00    -0.032 C 
HETATM    9  C   LIG     1      19.712  38.875  19.867  1.00  0.00     0.007 C 
ENDBRANCH   7   8
ENDBRANCH   1   7
BRANCH   4  10
HETATM   10  O   LIG     1      17.042  34.897  25.256  1.00  0.00    -0.356 OA
HETATM   11  C   LIG     1      17.899  34.761  26.385  1.00  0.00     0.210 C 
ENDBRANCH   4  10
TORSDOF 3
ENDMDL
MODEL 6
REMARK VINA RESULT:      -5.9      2.106      3.289
REMARK  3 active torsions:
REMARK  status: ('A' for Active; 'I' for Inactive)
REMARK    1  A    between atoms: C_2  and  C_3 
REMARK    2  A    between atoms: C_3  and  C_4 
REMARK    3  A    between atoms: C_7  and  O_8 
ROOT
HETATM    1  C   LIG     1      17.747  37.865  21.550  1.00  0.00    -0.055 A 
HETATM    2  C   LIG     1      16.630  37.979  22.392  1.00  0.00     0.010 A 
HETATM    3  C   LIG     1      15.675  36.958  22.444  1.00  0.00     0.037 A 
HETATM    4  C   LIG     1      15.828  35.803  21.652  1.00  0.00     0.068 A 
HETATM    5  C   LIG     1      16.944  35.692  20.815  1.00  0.00     0.037 A 
HETATM    6  C   LIG     1      17.898  36.714  20.763  1.00  0.00     0.010 A 
ENDROOT
BRANCH   1   7
HETATM    7  C   LIG     1      18.771  38.970  21.497  1.00  0.00     0.064 C 
BRANCH   7   8
HETATM    8  C   LIG     1      19.125  39.308  20.075  1.00  0.00    -0.032 C 
HETATM    9  C   LIG     1      20.262  38.885  19.515  1.00  0.00     0.007 C 
ENDBRANCH   7   8
ENDBRANCH   1   7
BRANCH   4  10
HETATM   10  O   LIG     1      14.900  34.753  21.668  1.00  0.00    -0.356 OA
HETATM   11  C   LIG     1      14.991  33.587  20.854  1.00  0.00     0.210 C 
ENDBRANCH   4  10
TORSDOF 3
ENDMDL
MODEL 7
REMARK VINA RESULT:      -5.9      8.370      9.473
REMARK  3 active torsions:
REMARK  status: ('A' for Active; 'I' for Inactive)
REMARK    1  A    between atoms: C_2  and  C_3 
REMARK    2  A    between atoms: C_3  and  C_4 
REMARK    3  A    between atoms: C_7  and  O_8 
ROOT
HETATM    1  C   LIG     1      14.384  30.758  15.351  1.00  0.00    -0.055 A 
HETATM    2  C   LIG     1      13.637  30.765  16.540  1.00  0.00     0.010 A 
HETATM    3  C   LIG     1      13.953  31.657  17.569  1.00  0.00     0.037 A 
HETATM    4  C   LIG     1      15.026  32.558  17.422  1.00  0.00     0.068 A 
HETATM    5  C   LIG     1      15.767  32.550  16.235  1.00  0.00     0.037 A 
HETATM    6  C   LIG     1      15.451  31.657  15.206  1.00  0.00     0.010 A 
ENDROOT
BRANCH   1   7
HETATM    7  C   LIG     1      14.039  29.792  14.247  1.00  0.00     0.064 C 
BRANCH   7   8
HETATM    8  C   LIG     1      15.259  29.047  13.782  1.00  0.00    -0.032 C 
HETATM    9  C   LIG     1      15.262  27.717  13.648  1.00  0.00     0.007 C 
ENDBRANCH   7   8
ENDBRANCH   1   7
BRANCH   4  10
HETATM   10  O   LIG     1      15.383  33.471  18.425  1.00  0.00    -0.356 OA
HETATM   11  C   LIG     1      15.454  33.156  19.812  1.00  0.00     0.210 C 
ENDBRANCH   4  10
TORSDOF 3
ENDMDL
MODEL 8
REMARK VINA RESULT:      -5.8      2.717      4.869
REMARK  3 active torsions:
REMARK  status: ('A' for Active; 'I' for Inactive)
REMARK    1  A    between atoms: C_2  and  C_3 
REMARK    2  A    between atoms: C_3  and  C_4 
REMARK    3  A    between atoms: C_7  and  O_8 
ROOT
HETATM    1  C   LIG     1      16.945  37.572  22.319  1.00  0.00    -0.055 A 
HETATM    2  C   LIG     1      15.707  36.922  22.442  1.00  0.00     0.010 A 
HETATM    3  C   LIG     1      15.363  35.883  21.571  1.00  0.00     0.037 A 
HETATM    4  C   LIG     1      16.259  35.479  20.561  1.00  0.00     0.068 A 
HETATM    5  C   LIG     1      17.493  36.129  20.443  1.00  0.00     0.037 A 
HETATM    6  C   LIG     1      17.836  37.168  21.314  1.00  0.00     0.010 A 
ENDROOT
BRANCH   1   7
HETATM    7  C   LIG     1      17.307  38.692  23.260  1.00  0.00     0.064 C 
BRANCH   7   8
HETATM    8  C   LIG     1      17.254  38.234  24.691  1.00  0.00    -0.032 C 
HETATM    9  C   LIG     1      18.185  37.425  25.205  1.00  0.00     0.007 C 
ENDBRANCH   7   8
ENDBRANCH   1   7
BRANCH   4  10
HETATM   10  O   LIG     1      15.962  34.444  19.662  1.00  0.00    -0.356 OA
HETATM   11  C   LIG     1      15.446  33.173  20.043  1.00  0.00     0.210 C 
ENDBRANCH   4  10
TORSDOF 3
ENDMDL
MODEL 9
REMARK VINA RESULT:      -5.7      3.421      4.311
REMARK  3 active torsions:
REMARK  status: ('A' for Active; 'I' for Inactive)
REMARK    1  A    between atoms: C_2  and  C_3 
REMARK    2  A    between atoms: C_3  and  C_4 
REMARK    3  A    between atoms: C_7  and  O_8 
ROOT
HETATM    1  C   LIG     1      15.934  35.166  21.262  1.00  0.00    -0.055 A 
HETATM    2  C   LIG     1      17.011  35.087  22.157  1.00  0.00     0.010 A 
HETATM    3  C   LIG     1      17.125  36.000  23.211  1.00  0.00     0.037 A 
HETATM    4  C   LIG     1      16.155  37.007  23.384  1.00  0.00     0.068 A 
HETATM    5  C   LIG     1      15.081  37.082  22.490  1.00  0.00     0.037 A 
HETATM    6  C   LIG     1      14.969  36.170  21.436  1.00  0.00     0.010 A 
ENDROOT
BRANCH   1   7
HETATM    7  C   LIG     1      15.819  34.181  20.127  1.00  0.00     0.064 C 
BRANCH   7   8
HETATM    8  C   LIG     1      15.005  32.984  20.532  1.00  0.00    -0.032 C 
HETATM    9  C   LIG     1      15.076  31.828  19.865  1.00  0.00     0.007 C 
ENDBRANCH   7   8
ENDBRANCH   1   7
BRANCH   4  10
HETATM   10  O   LIG     1      16.224  37.946  24.424  1.00  0.00    -0.356 OA
HETATM   11  C   LIG     1      17.362  38.140  25.258  1.00  0.00     0.210 C 
ENDBRANCH   4  10
TORSDOF 3
ENDMDL
MODEL 10
REMARK VINA RESULT:      -5.5      8.473      9.667
REMARK  3 active torsions:
REMARK  status: ('A' for Active; 'I' for Inactive)
REMARK    1  A    between atoms: C_2  and  C_3 
REMARK    2  A    between atoms: C_3  and  C_4 
REMARK    3  A    between atoms: C_7  and  O_8 
ROOT
HETATM    1  C   LIG     1      15.003  30.924  14.807  1.00  0.00    -0.055 A 
HETATM    2  C   LIG     1      16.053  31.847  14.927  1.00  0.00     0.010 A 
HETATM    3  C   LIG     1      16.152  32.664  16.058  1.00  0.00     0.037 A 
HETATM    4  C   LIG     1      15.197  32.566  17.089  1.00  0.00     0.068 A 
HETATM    5  C   LIG     1      14.152  31.643  16.966  1.00  0.00     0.037 A 
HETATM    6  C   LIG     1      14.053  30.827  15.835  1.00  0.00     0.010 A 
ENDROOT
BRANCH   1   7
HETATM    7  C   LIG     1      14.901  30.049  13.584  1.00  0.00     0.064 C 
BRANCH   7   8
HETATM    8  C   LIG     1      15.446  28.674  13.857  1.00  0.00    -0.032 C 
HETATM    9  C   LIG     1      14.720  27.575  13.638  1.00  0.00     0.007 C 
ENDBRANCH   7   8
ENDBRANCH   1   7
BRANCH   4  10
HETATM   10  O   LIG     1      15.251  33.362  18.242  1.00  0.00    -0.356 OA
HETATM   11  C   LIG     1      15.344  32.851  19.568  1.00  0.00     0.210 C 
ENDBRANCH   4  10
TORSDOF 3
ENDMDL
MODEL 11
REMARK VINA RESULT:      -5.5      7.970      9.875
REMARK  3 active torsions:
REMARK  status: ('A' for Active; 'I' for Inactive)
REMARK    1  A    between atoms: C_2  and  C_3 
REMARK    2  A    between atoms: C_3  and  C_4 
REMARK    3  A    between atoms: C_7  and  O_8 
ROOT
HETATM    1  C   LIG     1      14.859  31.869  16.341  1.00  0.00    -0.055 A 
HETATM    2  C   LIG     1      14.701  30.996  15.253  1.00  0.00     0.010 A 
HETATM    3  C   LIG     1      15.479  31.152  14.101  1.00  0.00     0.037 A 
HETATM    4  C   LIG     1      16.430  32.188  14.023  1.00  0.00     0.068 A 
HETATM    5  C   LIG     1      16.586  33.055  15.111  1.00  0.00     0.037 A 
HETATM    6  C   LIG     1      15.808  32.900  16.262  1.00  0.00     0.010 A 
ENDROOT
BRANCH   1   7
HETATM    7  C   LIG     1      14.016  31.697  17.579  1.00  0.00     0.064 C 
BRANCH   7   8
HETATM    8  C   LIG     1      14.775  32.108  18.810  1.00  0.00    -0.032 C 
HETATM    9  C   LIG     1      14.838  31.324  19.890  1.00  0.00     0.007 C 
ENDBRANCH   7   8
ENDBRANCH   1   7
BRANCH   4  10
HETATM   10  O   LIG     1      17.233  32.388  12.891  1.00  0.00    -0.356 OA
HETATM   11  C   LIG     1      18.123  33.486  12.720  1.00  0.00     0.210 C 
ENDBRANCH   4  10
TORSDOF 3
ENDMDL
MODEL 12
REMARK VINA RESULT:      -5.4      8.978     10.651
REMARK  3 active torsions:
REMARK  status: ('A' for Active; 'I' for Inactive)
REMARK    1  A    between atoms: C_2  and  C_3 
REMARK    2  A    between atoms: C_3  and  C_4 
REMARK    3  A    between atoms: C_7  and  O_8 
ROOT
HETATM    1  C   LIG     1      14.587  31.902  16.356  1.00  0.00    -0.055 A 
HETATM    2  C   LIG     1      13.638  30.891  16.139  1.00  0.00     0.010 A 
HETATM    3  C   LIG     1      13.817  29.960  15.111  1.00  0.00     0.037 A 
HETATM    4  C   LIG     1      14.955  30.028  14.283  1.00  0.00     0.068 A 
HETATM    5  C   LIG     1      15.900  31.036  14.503  1.00  0.00     0.037 A 
HETATM    6  C   LIG     1      15.720  31.968  15.530  1.00  0.00     0.010 A 
ENDROOT
BRANCH   1   7
HETATM    7  C   LIG     1      14.387  32.904  17.463  1.00  0.00     0.064 C 
BRANCH   7   8
HETATM    8  C   LIG     1      15.228  32.560  18.661  1.00  0.00    -0.032 C 
HETATM    9  C   LIG     1      14.827  31.664  19.567  1.00  0.00     0.007 C 
ENDBRANCH   7   8
ENDBRANCH   1   7
BRANCH   4  10
HETATM   10  O   LIG     1      15.180  29.119  13.239  1.00  0.00    -0.356 OA
HETATM   11  C   LIG     1      15.354  27.717  13.418  1.00  0.00     0.210 C 
ENDBRANCH   4  10
TORSDOF 3
ENDMDL
MODEL 13
REMARK VINA RESULT:      -5.3      9.428     10.762
REMARK  3 active torsions:
REMARK  status: ('A' for Active; 'I' for Inactive)
REMARK    1  A    between atoms: C_2  and  C_3 
REMARK    2  A    between atoms: C_3  and  C_4 
REMARK    3  A    between atoms: C_7  and  O_8 
ROOT
HETATM    1  C   LIG     1      15.346  31.797  15.329  1.00  0.00    -0.055 A 
HETATM    2  C   LIG     1      14.193  31.516  16.078  1.00  0.00     0.010 A 
HETATM    3  C   LIG     1      13.340  30.474  15.701  1.00  0.00     0.037 A 
HETATM    4  C   LIG     1      13.631  29.695  14.564  1.00  0.00     0.068 A 
HETATM    5  C   LIG     1      14.782  29.977  13.820  1.00  0.00     0.037 A 
HETATM    6  C   LIG     1      15.635  31.019  14.197  1.00  0.00     0.010 A 
ENDROOT
BRANCH   1   7
HETATM    7  C   LIG     1      16.261  32.922  15.739  1.00  0.00     0.064 C 
BRANCH   7   8
HETATM    8  C   LIG     1      17.507  32.939  14.898  1.00  0.00    -0.032 C 
HETATM    9  C   LIG     1      17.826  33.988  14.135  1.00  0.00     0.007 C 
ENDBRANCH   7   8
ENDBRANCH   1   7
BRANCH   4  10
HETATM   10  O   LIG     1      12.807  28.641  14.144  1.00  0.00    -0.356 OA
HETATM   11  C   LIG     1      13.286  27.391  13.659  1.00  0.00     0.210 C 
ENDBRANCH   4  10
TORSDOF 3
ENDMDL
MODEL 14
REMARK VINA RESULT:      -5.2      5.740      7.608
REMARK  3 active torsions:
REMARK  status: ('A' for Active; 'I' for Inactive)
REMARK    1  A    between atoms: C_2  and  C_3 
REMARK    2  A    between atoms: C_3  and  C_4 
REMARK    3  A    between atoms: C_7  and  O_8 
ROOT
HETATM    1  C   LIG     1      15.531  34.020  19.435  1.00  0.00    -0.055 A 
HETATM    2  C   LIG     1      15.215  34.162  18.075  1.00  0.00     0.010 A 
HETATM    3  C   LIG     1      14.655  33.096  17.363  1.00  0.00     0.037 A 
HETATM    4  C   LIG     1      14.402  31.869  18.008  1.00  0.00     0.068 A 
HETATM    5  C   LIG     1      14.717  31.732  19.364  1.00  0.00     0.037 A 
HETATM    6  C   LIG     1      15.278  32.798  20.075  1.00  0.00     0.010 A 
ENDROOT
BRANCH   1   7
HETATM    7  C   LIG     1      16.137  35.172  20.195  1.00  0.00     0.064 C 
BRANCH   7   8
HETATM    8  C   LIG     1      15.938  35.006  21.676  1.00  0.00    -0.032 C 
HETATM    9  C   LIG     1      16.942  35.170  22.542  1.00  0.00     0.007 C 
ENDBRANCH   7   8
ENDBRANCH   1   7
BRANCH   4  10
HETATM   10  O   LIG     1      13.842  30.770  17.339  1.00  0.00    -0.356 OA
HETATM   11  C   LIG     1      12.976  30.870  16.213  1.00  0.00     0.210 C 
ENDBRANCH   4  10
TORSDOF 3
ENDMDL
MODEL 15
REMARK VINA RESULT:      -5.2      6.687      7.777
REMARK  3 active torsions:
REMARK  status: ('A' for Active; 'I' for Inactive)
REMARK    1  A    between atoms: C_2  and  C_3 
REMARK    2  A    between atoms: C_3  and  C_4 
REMARK    3  A    between atoms: C_7  and  O_8 
ROOT
HETATM    1  C   LIG     1      14.178  31.905  17.212  1.00  0.00    -0.055 A 
HETATM    2  C   LIG     1      14.421  31.467  18.523  1.00  0.00     0.010 A 
HETATM    3  C   LIG     1      15.035  32.315  19.451  1.00  0.00     0.037 A 
HETATM    4  C   LIG     1      15.414  33.619  19.076  1.00  0.00     0.068 A 
HETATM    5  C   LIG     1      15.169  34.052  17.769  1.00  0.00     0.037 A 
HETATM    6  C   LIG     1      14.556  33.204  16.841  1.00  0.00     0.010 A 
ENDROOT
BRANCH   1   7
HETATM    7  C   LIG     1      13.519  30.985  16.217  1.00  0.00     0.064 C 
BRANCH   7   8
HETATM    8  C   LIG     1      14.433  30.698  15.059  1.00  0.00    -0.032 C 
HETATM    9  C   LIG     1      14.268  29.624  14.282  1.00  0.00     0.007 C 
ENDBRANCH   7   8
ENDBRANCH   1   7
BRANCH   4  10
HETATM   10  O   LIG     1      16.033  34.507  19.968  1.00  0.00    -0.356 OA
HETATM   11  C   LIG     1      15.488  34.893  21.226  1.00  0.00     0.210 C 
ENDBRANCH   4  10
TORSDOF 3
ENDMDL
MODEL 16
REMARK VINA RESULT:      -5.1      8.376     10.092
REMARK  3 active torsions:
REMARK  status: ('A' for Active; 'I' for Inactive)
REMARK    1  A    between atoms: C_2  and  C_3 
REMARK    2  A    between atoms: C_3  and  C_4 
REMARK    3  A    between atoms: C_7  and  O_8 
ROOT
HETATM    1  C   LIG     1      15.464  31.632  14.808  1.00  0.00    -0.055 A 
HETATM    2  C   LIG     1      15.822  31.685  13.452  1.00  0.00     0.010 A 
HETATM    3  C   LIG     1      16.813  32.570  13.016  1.00  0.00     0.037 A 
HETATM    4  C   LIG     1      17.463  33.416  13.935  1.00  0.00     0.068 A 
HETATM    5  C   LIG     1      17.105  33.359  15.287  1.00  0.00     0.037 A 
HETATM    6  C   LIG     1      16.113  32.475  15.723  1.00  0.00     0.010 A 
ENDROOT
BRANCH   1   7
HETATM    7  C   LIG     1      14.393  30.678  15.272  1.00  0.00     0.064 C 
BRANCH   7   8
HETATM    8  C   LIG     1      13.854  31.083  16.616  1.00  0.00    -0.032 C 
HETATM    9  C   LIG     1      12.747  31.821  16.735  1.00  0.00     0.007 C 
ENDBRANCH   7   8
ENDBRANCH   1   7
BRANCH   4  10
HETATM   10  O   LIG     1      18.462  34.321  13.548  1.00  0.00    -0.356 OA
HETATM   11  C   LIG     1      19.602  33.975  12.768  1.00  0.00     0.210 C 
ENDBRANCH   4  10
TORSDOF 3
ENDMDL
MODEL 17
REMARK VINA RESULT:      -5.0      7.595      8.603
REMARK  3 active torsions:
REMARK  status: ('A' for Active; 'I' for Inactive)
REMARK    1  A    between atoms: C_2  and  C_3 
REMARK    2  A    between atoms: C_3  and  C_4 
REMARK    3  A    between atoms: C_7  and  O_8 
ROOT
HETATM    1  C   LIG     1      15.704  32.070  14.694  1.00  0.00    -0.055 A 
HETATM    2  C   LIG     1      14.774  31.034  14.869  1.00  0.00     0.010 A 
HETATM    3  C   LIG     1      14.185  30.814  16.118  1.00  0.00     0.037 A 
HETATM    4  C   LIG     1      14.521  31.634  17.214  1.00  0.00     0.068 A 
HETATM    5  C   LIG     1      15.447  32.667  17.035  1.00  0.00     0.037 A 
HETATM    6  C   LIG     1      16.036  32.886  15.786  1.00  0.00     0.010 A 
ENDROOT
BRANCH   1   7
HETATM    7  C   LIG     1      16.337  32.300  13.345  1.00  0.00     0.064 C 
BRANCH   7   8
HETATM    8  C   LIG     1      17.455  33.301  13.437  1.00  0.00    -0.032 C 
HETATM    9  C   LIG     1      18.382  33.408  12.481  1.00  0.00     0.007 C 
ENDBRANCH   7   8
ENDBRANCH   1   7
BRANCH   4  10
HETATM   10  O   LIG     1      13.959  31.455  18.486  1.00  0.00    -0.356 OA
HETATM   11  C   LIG     1      14.697  31.499  19.704  1.00  0.00     0.210 C 
ENDBRANCH   4  10
TORSDOF 3
ENDMDL
MODEL 18
REMARK VINA RESULT:      -5.0     10.377     11.767
REMARK  3 active torsions:
REMARK  status: ('A' for Active; 'I' for Inactive)
REMARK    1  A    between atoms: C_2  and  C_3 
REMARK    2  A    between atoms: C_3  and  C_4 
REMARK    3  A    between atoms: C_7  and  O_8 
ROOT
HETATM    1  C   LIG     1      14.774  30.802  14.970  1.00  0.00    -0.055 A 
HETATM    2  C   LIG     1      15.428  29.822  14.209  1.00  0.00     0.010 A 
HETATM    3  C   LIG     1      14.746  28.673  13.797  1.00  0.00     0.037 A 
HETATM    4  C   LIG     1      13.392  28.490  14.143  1.00  0.00     0.068 A 
HETATM    5  C   LIG     1      12.743  29.471  14.901  1.00  0.00     0.037 A 
HETATM    6  C   LIG     1      13.426  30.619  15.314  1.00  0.00     0.010 A 
ENDROOT
BRANCH   1   7
HETATM    7  C   LIG     1      15.517  32.037  15.413  1.00  0.00     0.064 C 
BRANCH   7   8
HETATM    8  C   LIG     1      14.821  32.699  16.571  1.00  0.00    -0.032 C 
HETATM    9  C   LIG     1      15.066  33.969  16.903  1.00  0.00     0.007 C 
ENDBRANCH   7   8
ENDBRANCH   1   7
BRANCH   4  10
HETATM   10  O   LIG     1      12.664  27.356  13.755  1.00  0.00    -0.356 OA
HETATM   11  C   LIG     1      11.527  27.385  12.897  1.00  0.00     0.210 C 
ENDBRANCH   4  10
TORSDOF 3
ENDMDL
MODEL 19
REMARK VINA RESULT:      -4.9      9.374     10.905
REMARK  3 active torsions:
REMARK  status: ('A' for Active; 'I' for Inactive)
REMARK    1  A    between atoms: C_2  and  C_3 
REMARK    2  A    between atoms: C_3  and  C_4 
REMARK    3  A    between atoms: C_7  and  O_8 
ROOT
HETATM    1  C   LIG     1      13.999  30.435  14.902  1.00  0.00    -0.055 A 
HETATM    2  C   LIG     1      14.001  31.162  16.102  1.00  0.00     0.010 A 
HETATM    3  C   LIG     1      14.987  32.125  16.345  1.00  0.00     0.037 A 
HETATM    4  C   LIG     1      15.987  32.373  15.384  1.00  0.00     0.068 A 
HETATM    5  C   LIG     1      15.980  31.647  14.188  1.00  0.00     0.037 A 
HETATM    6  C   LIG     1      14.995  30.684  13.946  1.00  0.00     0.010 A 
ENDROOT
BRANCH   1   7
HETATM    7  C   LIG     1      12.936  29.397  14.648  1.00  0.00     0.064 C 
BRANCH   7   8
HETATM    8  C   LIG     1      13.515  28.186  13.971  1.00  0.00    -0.032 C 
HETATM    9  C   LIG     1      12.739  27.197  13.516  1.00  0.00     0.007 C 
ENDBRANCH   7   8
ENDBRANCH   1   7
BRANCH   4  10
HETATM   10  O   LIG     1      16.996  33.327  15.579  1.00  0.00    -0.356 OA
HETATM   11  C   LIG     1      17.705  33.974  14.527  1.00  0.00     0.210 C 
ENDBRANCH   4  10
TORSDOF 3
ENDMDL
MODEL 20
REMARK VINA RESULT:      -4.8      8.490      9.552
REMARK  3 active torsions:
REMARK  status: ('A' for Active; 'I' for Inactive)
REMARK    1  A    between atoms: C_2  and  C_3 
REMARK    2  A    between atoms: C_3  and  C_4 
REMARK    3  A    between atoms: C_7  and  O_8 
ROOT
HETATM    1  C   LIG     1      16.983  33.110  14.187  1.00  0.00    -0.055 A 
HETATM    2  C   LIG     1      16.510  32.180  13.248  1.00  0.00     0.010 A 
HETATM    3  C   LIG     1      15.540  31.240  13.609  1.00  0.00     0.037 A 
HETATM    4  C   LIG     1      15.026  31.219  14.921  1.00  0.00     0.068 A 
HETATM    5  C   LIG     1      15.499  32.149  15.854  1.00  0.00     0.037 A 
HETATM    6  C   LIG     1      16.470  33.089  15.493  1.00  0.00     0.010 A 
ENDROOT
BRANCH   1   7
HETATM    7  C   LIG     1      18.031  34.119  13.792  1.00  0.00     0.064 C 
BRANCH   7   8
HETATM    8  C   LIG     1      18.925  33.574  12.714  1.00  0.00    -0.032 C 
HETATM    9  C   LIG     1      20.214  33.915  12.631  1.00  0.00     0.007 C 
ENDBRANCH   7   8
ENDBRANCH   1   7
BRANCH   4  10
HETATM   10  O   LIG     1      14.053  30.297  15.333  1.00  0.00    -0.356 OA
HETATM   11  C   LIG     1      12.903  30.632  16.102  1.00  0.00     0.210 C 
ENDBRANCH   4  10
TORSDOF 3
ENDMDL
