MODEL 1
REMARK VINA RESULT:      -6.4      0.000      0.000
REMARK  1 active torsions:
REMARK  status: ('A' for Active; 'I' for Inactive)
REMARK    1  A    between atoms: C_5  and  C_6 
ROOT
HETATM    1  C   LIG     1      15.965  35.540  20.183  1.00  0.00     0.010 C 
HETATM    2  C   LIG     1      17.035  35.685  21.272  1.00  0.00    -0.012 C 
HETATM    3  C   LIG     1      16.692  34.783  22.488  1.00  0.00     0.005 C 
HETATM    4  C   LIG     1      17.268  35.336  23.799  1.00  0.00     0.013 C 
HETATM    5  C   LIG     1      16.645  36.713  24.156  1.00  0.00     0.059 C 
HETATM    6  C   LIG     1      16.465  37.534  22.891  1.00  0.00     0.131 C 
HETATM    7  C   LIG     1      17.241  37.175  21.654  1.00  0.00     0.083 C 
HETATM    8  O   LIG     1      15.646  38.440  22.851  1.00  0.00    -0.298 OA
ENDROOT
BRANCH   5   9
HETATM    9  C   LIG     1      17.495  37.472  25.221  1.00  0.00    -0.012 C 
HETATM   10  C   LIG     1      18.041  36.526  26.307  1.00  0.00     0.010 C 
HETATM   11  C   LIG     1      18.675  38.221  24.576  1.00  0.00     0.010 C 
ENDBRANCH   5   9
TORSDOF 1
ENDMDL
MODEL 2
REMARK VINA RESULT:      -6.3      1.246      4.045
REMARK  1 active torsions:
REMARK  status: ('A' for Active; 'I' for Inactive)
REMARK    1  A    between atoms: C_5  and  C_6 
ROOT
HETATM    1  C   LIG     1      18.261  37.735  25.355  1.00  0.00     0.010 C 
HETATM    2  C   LIG     1      17.087  37.001  24.696  1.00  0.00    -0.012 C 
HETATM    3  C   LIG     1      17.458  35.516  24.436  1.00  0.00     0.005 C 
HETATM    4  C   LIG     1      16.684  34.925  23.249  1.00  0.00     0.013 C 
HETATM    5  C   LIG     1      17.044  35.647  21.923  1.00  0.00     0.059 C 
HETATM    6  C   LIG     1      17.205  37.136  22.179  1.00  0.00     0.131 C 
HETATM    7  C   LIG     1      16.611  37.745  23.420  1.00  0.00     0.083 C 
HETATM    8  O   LIG     1      17.868  37.827  21.422  1.00  0.00    -0.298 OA
ENDROOT
BRANCH   5   9
HETATM    9  C   LIG     1      15.989  35.364  20.808  1.00  0.00    -0.012 C 
HETATM   10  C   LIG     1      15.875  33.862  20.489  1.00  0.00     0.010 C 
HETATM   11  C   LIG     1      14.598  35.897  21.195  1.00  0.00     0.010 C 
ENDBRANCH   5   9
TORSDOF 1
ENDMDL
MODEL 3
REMARK VINA RESULT:      -6.2      1.599      2.521
REMARK  1 active torsions:
REMARK  status: ('A' for Active; 'I' for Inactive)
REMARK    1  A    between atoms: C_5  and  C_6 
ROOT
HETATM    1  C   LIG     1      18.605  39.316  19.594  1.00  0.00     0.010 C 
HETATM    2  C   LIG     1      18.853  38.288  20.706  1.00  0.00    -0.012 C 
HETATM    3  C   LIG     1      17.986  37.021  20.471  1.00  0.00     0.005 C 
HETATM    4  C   LIG     1      17.660  36.292  21.782  1.00  0.00     0.013 C 
HETATM    5  C   LIG     1      16.798  37.177  22.722  1.00  0.00     0.059 C 
HETATM    6  C   LIG     1      17.271  38.618  22.643  1.00  0.00     0.131 C 
HETATM    7  C   LIG     1      18.643  38.922  22.106  1.00  0.00     0.083 C 
HETATM    8  O   LIG     1      16.523  39.534  22.949  1.00  0.00    -0.298 OA
ENDROOT
BRANCH   5   9
HETATM    9  C   LIG     1      16.811  36.643  24.188  1.00  0.00    -0.012 C 
HETATM   10  C   LIG     1      17.192  35.153  24.258  1.00  0.00     0.010 C 
HETATM   11  C   LIG     1      17.781  37.446  25.074  1.00  0.00     0.010 C 
ENDBRANCH   5   9
TORSDOF 1
ENDMDL
MODEL 4
REMARK VINA RESULT:      -6.0      2.225      3.030
REMARK  1 active torsions:
REMARK  status: ('A' for Active; 'I' for Inactive)
REMARK    1  A    between atoms: C_5  and  C_6 
ROOT
HETATM    1  C   LIG     1      15.402  33.750  20.265  1.00  0.00     0.010 C 
HETATM    2  C   LIG     1      15.783  34.586  21.494  1.00  0.00    -0.012 C 
HETATM    3  C   LIG     1      14.945  35.892  21.538  1.00  0.00     0.005 C 
HETATM    4  C   LIG     1      15.679  37.025  22.270  1.00  0.00     0.013 C 
HETATM    5  C   LIG     1      16.980  37.430  21.527  1.00  0.00     0.059 C 
HETATM    6  C   LIG     1      17.662  36.188  20.979  1.00  0.00     0.131 C 
HETATM    7  C   LIG     1      17.313  34.838  21.542  1.00  0.00     0.083 C 
HETATM    8  O   LIG     1      18.439  36.271  20.040  1.00  0.00    -0.298 OA
ENDROOT
BRANCH   5   9
HETATM    9  C   LIG     1      17.935  38.256  22.445  1.00  0.00    -0.012 C 
HETATM   10  C   LIG     1      18.461  39.520  21.743  1.00  0.00     0.010 C 
HETATM   11  C   LIG     1      17.243  38.667  23.757  1.00  0.00     0.010 C 
ENDBRANCH   5   9
TORSDOF 1
ENDMDL
MODEL 5
REMARK VINA RESULT:      -5.9      1.558      2.666
REMARK  1 active torsions:
REMARK  status: ('A' for Active; 'I' for Inactive)
REMARK    1  A    between atoms: C_5  and  C_6 
ROOT
HETATM    1  C   LIG     1      16.888  39.322  21.835  1.00  0.00     0.010 C 
HETATM    2  C   LIG     1      17.668  38.089  22.313  1.00  0.00    -0.012 C 
HETATM    3  C   LIG     1      16.754  36.834  22.295  1.00  0.00     0.005 C 
HETATM    4  C   LIG     1      17.192  35.786  23.328  1.00  0.00     0.013 C 
HETATM    5  C   LIG     1      17.065  36.331  24.777  1.00  0.00     0.059 C 
HETATM    6  C   LIG     1      17.487  37.790  24.811  1.00  0.00     0.131 C 
HETATM    7  C   LIG     1      18.325  38.348  23.694  1.00  0.00     0.083 C 
HETATM    8  O   LIG     1      17.096  38.527  25.703  1.00  0.00    -0.298 OA
ENDROOT
BRANCH   5   9
HETATM    9  C   LIG     1      17.881  35.469  25.790  1.00  0.00    -0.012 C 
HETATM   10  C   LIG     1      18.636  36.338  26.812  1.00  0.00     0.010 C 
HETATM   11  C   LIG     1      16.977  34.481  26.550  1.00  0.00     0.010 C 
ENDBRANCH   5   9
TORSDOF 1
ENDMDL
MODEL 6
REMARK VINA RESULT:      -5.6      1.817      3.873
REMARK  1 active torsions:
REMARK  status: ('A' for Active; 'I' for Inactive)
REMARK    1  A    between atoms: C_5  and  C_6 
ROOT
HETATM    1  C   LIG     1      18.473  35.949  26.923  1.00  0.00     0.010 C 
HETATM    2  C   LIG     1      17.379  36.275  25.898  1.00  0.00    -0.012 C 
HETATM    3  C   LIG     1      17.442  35.279  24.708  1.00  0.00     0.005 C 
HETATM    4  C   LIG     1      16.898  35.894  23.411  1.00  0.00     0.013 C 
HETATM    5  C   LIG     1      17.762  37.098  22.949  1.00  0.00     0.059 C 
HETATM    6  C   LIG     1      18.197  37.908  24.158  1.00  0.00     0.131 C 
HETATM    7  C   LIG     1      17.455  37.760  25.458  1.00  0.00     0.083 C 
HETATM    8  O   LIG     1      19.184  38.625  24.101  1.00  0.00    -0.298 OA
ENDROOT
BRANCH   5   9
HETATM    9  C   LIG     1      17.010  37.980  21.904  1.00  0.00    -0.012 C 
HETATM   10  C   LIG     1      15.930  38.860  22.560  1.00  0.00     0.010 C 
HETATM   11  C   LIG     1      17.980  38.883  21.121  1.00  0.00     0.010 C 
ENDBRANCH   5   9
TORSDOF 1
ENDMDL
MODEL 7
REMARK VINA RESULT:      -5.4      2.390      4.426
REMARK  1 active torsions:
REMARK  status: ('A' for Active; 'I' for Inactive)
REMARK    1  A    between atoms: C_5  and  C_6 
ROOT
HETATM    1  C   LIG     1      16.686  37.571  24.714  1.00  0.00     0.010 C 
HETATM    2  C   LIG     1      16.447  37.639  23.200  1.00  0.00    -0.012 C 
HETATM    3  C   LIG     1      16.955  36.340  22.516  1.00  0.00     0.005 C 
HETATM    4  C   LIG     1      17.370  36.579  21.058  1.00  0.00     0.013 C 
HETATM    5  C   LIG     1      18.572  37.557  20.963  1.00  0.00     0.059 C 
HETATM    6  C   LIG     1      18.415  38.659  21.996  1.00  0.00     0.131 C 
HETATM    7  C   LIG     1      17.063  38.928  22.597  1.00  0.00     0.083 C 
HETATM    8  O   LIG     1      19.389  39.282  22.390  1.00  0.00    -0.298 OA
ENDROOT
BRANCH   5   9
HETATM    9  C   LIG     1      18.735  38.133  19.522  1.00  0.00    -0.012 C 
HETATM   10  C   LIG     1      20.069  38.880  19.345  1.00  0.00     0.010 C 
HETATM   11  C   LIG     1      18.639  37.027  18.455  1.00  0.00     0.010 C 
ENDBRANCH   5   9
TORSDOF 1
ENDMDL
MODEL 8
REMARK VINA RESULT:      -5.4      1.808      3.769
REMARK  1 active torsions:
REMARK  status: ('A' for Active; 'I' for Inactive)
REMARK    1  A    between atoms: C_5  and  C_6 
ROOT
HETATM    1  C   LIG     1      18.681  40.091  20.903  1.00  0.00     0.010 C 
HETATM    2  C   LIG     1      18.937  38.607  21.198  1.00  0.00    -0.012 C 
HETATM    3  C   LIG     1      18.688  37.754  19.925  1.00  0.00     0.005 C 
HETATM    4  C   LIG     1      18.270  36.316  20.266  1.00  0.00     0.013 C 
HETATM    5  C   LIG     1      16.913  36.284  21.020  1.00  0.00     0.059 C 
HETATM    6  C   LIG     1      16.845  37.446  21.997  1.00  0.00     0.131 C 
HETATM    7  C   LIG     1      18.113  38.133  22.424  1.00  0.00     0.083 C 
HETATM    8  O   LIG     1      15.766  37.867  22.384  1.00  0.00    -0.298 OA
ENDROOT
BRANCH   5   9
HETATM    9  C   LIG     1      16.682  34.915  21.732  1.00  0.00    -0.012 C 
HETATM   10  C   LIG     1      16.979  34.991  23.241  1.00  0.00     0.010 C 
HETATM   11  C   LIG     1      15.241  34.410  21.534  1.00  0.00     0.010 C 
ENDBRANCH   5   9
TORSDOF 1
ENDMDL
MODEL 9
REMARK VINA RESULT:      -5.4      2.026      2.897
REMARK  1 active torsions:
REMARK  status: ('A' for Active; 'I' for Inactive)
REMARK    1  A    between atoms: C_5  and  C_6 
ROOT
HETATM    1  C   LIG     1      14.894  34.241  21.610  1.00  0.00     0.010 C 
HETATM    2  C   LIG     1      15.368  35.553  20.970  1.00  0.00    -0.012 C 
HETATM    3  C   LIG     1      16.823  35.403  20.448  1.00  0.00     0.005 C 
HETATM    4  C   LIG     1      17.570  36.744  20.427  1.00  0.00     0.013 C 
HETATM    5  C   LIG     1      17.734  37.323  21.858  1.00  0.00     0.059 C 
HETATM    6  C   LIG     1      16.471  37.064  22.662  1.00  0.00     0.131 C 
HETATM    7  C   LIG     1      15.188  36.744  21.946  1.00  0.00     0.083 C 
HETATM    8  O   LIG     1      16.506  37.046  23.882  1.00  0.00    -0.298 OA
ENDROOT
BRANCH   5   9
HETATM    9  C   LIG     1      18.099  38.840  21.828  1.00  0.00    -0.012 C 
HETATM   10  C   LIG     1      19.077  39.222  22.954  1.00  0.00     0.010 C 
HETATM   11  C   LIG     1      18.713  39.248  20.476  1.00  0.00     0.010 C 
ENDBRANCH   5   9
TORSDOF 1
ENDMDL
MODEL 10
REMARK VINA RESULT:      -5.1      7.678     10.735
REMARK  1 active torsions:
REMARK  status: ('A' for Active; 'I' for Inactive)
REMARK    1  A    between atoms: C_5  and  C_6 
ROOT
HETATM    1  C   LIG     1      14.968  34.004  17.089  1.00  0.00     0.010 C 
HETATM    2  C   LIG     1      15.503  32.618  16.705  1.00  0.00    -0.012 C 
HETATM    3  C   LIG     1      15.821  32.567  15.186  1.00  0.00     0.005 C 
HETATM    4  C   LIG     1      15.705  31.145  14.619  1.00  0.00     0.013 C 
HETATM    5  C   LIG     1      14.251  30.611  14.723  1.00  0.00     0.059 C 
HETATM    6  C   LIG     1      13.637  31.056  16.039  1.00  0.00     0.131 C 
HETATM    7  C   LIG     1      14.531  31.500  17.164  1.00  0.00     0.083 C 
HETATM    8  O   LIG     1      12.424  31.121  16.167  1.00  0.00    -0.298 OA
ENDROOT
BRANCH   5   9
HETATM    9  C   LIG     1      14.192  29.061  14.554  1.00  0.00    -0.012 C 
HETATM   10  C   LIG     1      12.860  28.596  13.937  1.00  0.00     0.010 C 
HETATM   11  C   LIG     1      15.351  28.542  13.682  1.00  0.00     0.010 C 
ENDBRANCH   5   9
TORSDOF 1
ENDMDL
MODEL 11
REMARK VINA RESULT:      -4.9      4.940      7.843
REMARK  1 active torsions:
REMARK  status: ('A' for Active; 'I' for Inactive)
REMARK    1  A    between atoms: C_5  and  C_6 
ROOT
HETATM    1  C   LIG     1      14.762  34.080  21.372  1.00  0.00     0.010 C 
HETATM    2  C   LIG     1      15.680  33.892  20.157  1.00  0.00    -0.012 C 
HETATM    3  C   LIG     1      15.207  34.788  18.981  1.00  0.00     0.005 C 
HETATM    4  C   LIG     1      15.597  34.203  17.616  1.00  0.00     0.013 C 
HETATM    5  C   LIG     1      14.898  32.839  17.364  1.00  0.00     0.059 C 
HETATM    6  C   LIG     1      14.860  32.039  18.654  1.00  0.00     0.131 C 
HETATM    7  C   LIG     1      15.797  32.393  19.776  1.00  0.00     0.083 C 
HETATM    8  O   LIG     1      14.030  31.157  18.812  1.00  0.00    -0.298 OA
ENDROOT
BRANCH   5   9
HETATM    9  C   LIG     1      15.585  32.044  16.211  1.00  0.00    -0.012 C 
HETATM   10  C   LIG     1      14.571  31.235  15.382  1.00  0.00     0.010 C 
HETATM   11  C   LIG     1      16.367  32.976  15.267  1.00  0.00     0.010 C 
ENDBRANCH   5   9
TORSDOF 1
ENDMDL
MODEL 12
REMARK VINA RESULT:      -4.8      9.080     10.765
REMARK  1 active torsions:
REMARK  status: ('A' for Active; 'I' for Inactive)
REMARK    1  A    between atoms: C_5  and  C_6 
ROOT
HETATM    1  C   LIG     1      18.346  33.219  14.061  1.00  0.00     0.010 C 
HETATM    2  C   LIG     1      16.851  33.262  14.405  1.00  0.00    -0.012 C 
HETATM    3  C   LIG     1      16.615  32.737  15.847  1.00  0.00     0.005 C 
HETATM    4  C   LIG     1      15.215  32.131  16.019  1.00  0.00     0.013 C 
HETATM    5  C   LIG     1      15.024  30.880  15.120  1.00  0.00     0.059 C 
HETATM    6  C   LIG     1      15.693  31.112  13.776  1.00  0.00     0.131 C 
HETATM    7  C   LIG     1      16.013  32.514  13.336  1.00  0.00     0.083 C 
HETATM    8  O   LIG     1      16.033  30.166  13.082  1.00  0.00    -0.298 OA
ENDROOT
BRANCH   5   9
HETATM    9  C   LIG     1      13.517  30.510  14.959  1.00  0.00    -0.012 C 
HETATM   10  C   LIG     1      13.327  29.087  14.404  1.00  0.00     0.010 C 
HETATM   11  C   LIG     1      12.759  30.627  16.294  1.00  0.00     0.010 C 
ENDBRANCH   5   9
TORSDOF 1
ENDMDL
MODEL 13
REMARK VINA RESULT:      -4.7      1.624      2.175
REMARK  1 active torsions:
REMARK  status: ('A' for Active; 'I' for Inactive)
REMARK    1  A    between atoms: C_5  and  C_6 
ROOT
HETATM    1  C   LIG     1      16.616  35.511  20.258  1.00  0.00     0.010 C 
HETATM    2  C   LIG     1      16.280  36.513  21.370  1.00  0.00    -0.012 C 
HETATM    3  C   LIG     1      17.466  37.490  21.592  1.00  0.00     0.005 C 
HETATM    4  C   LIG     1      17.508  38.032  23.027  1.00  0.00     0.013 C 
HETATM    5  C   LIG     1      17.752  36.894  24.055  1.00  0.00     0.059 C 
HETATM    6  C   LIG     1      16.983  35.653  23.635  1.00  0.00     0.131 C 
HETATM    7  C   LIG     1      15.841  35.779  22.665  1.00  0.00     0.083 C 
HETATM    8  O   LIG     1      17.328  34.549  24.026  1.00  0.00    -0.298 OA
ENDROOT
BRANCH   5   9
HETATM    9  C   LIG     1      17.384  37.339  25.505  1.00  0.00    -0.012 C 
HETATM   10  C   LIG     1      18.390  36.812  26.544  1.00  0.00     0.010 C 
HETATM   11  C   LIG     1      17.304  38.872  25.625  1.00  0.00     0.010 C 
ENDBRANCH   5   9
TORSDOF 1
ENDMDL
MODEL 14
REMARK VINA RESULT:      -4.7      7.131     10.355
REMARK  1 active torsions:
REMARK  status: ('A' for Active; 'I' for Inactive)
REMARK    1  A    between atoms: C_5  and  C_6 
ROOT
HETATM    1  C   LIG     1      15.524  33.846  17.954  1.00  0.00     0.010 C 
HETATM    2  C   LIG     1      14.567  33.233  16.922  1.00  0.00    -0.012 C 
HETATM    3  C   LIG     1      13.959  31.913  17.470  1.00  0.00     0.005 C 
HETATM    4  C   LIG     1      13.571  30.944  16.344  1.00  0.00     0.013 C 
HETATM    5  C   LIG     1      14.816  30.486  15.537  1.00  0.00     0.059 C 
HETATM    6  C   LIG     1      15.771  31.655  15.365  1.00  0.00     0.131 C 
HETATM    7  C   LIG     1      15.267  33.060  15.549  1.00  0.00     0.083 C 
HETATM    8  O   LIG     1      16.957  31.460  15.146  1.00  0.00    -0.298 OA
ENDROOT
BRANCH   5   9
HETATM    9  C   LIG     1      14.416  29.860  14.165  1.00  0.00    -0.012 C 
HETATM   10  C   LIG     1      15.376  28.733  13.742  1.00  0.00     0.010 C 
HETATM   11  C   LIG     1      12.980  29.305  14.193  1.00  0.00     0.010 C 
ENDBRANCH   5   9
TORSDOF 1
ENDMDL
MODEL 15
REMARK VINA RESULT:      -4.3      4.648      7.789
REMARK  1 active torsions:
REMARK  status: ('A' for Active; 'I' for Inactive)
REMARK    1  A    between atoms: C_5  and  C_6 
ROOT
HETATM    1  C   LIG     1      16.496  35.313  19.990  1.00  0.00     0.010 C 
HETATM    2  C   LIG     1      15.297  34.391  19.734  1.00  0.00    -0.012 C 
HETATM    3  C   LIG     1      15.674  32.918  20.050  1.00  0.00     0.005 C 
HETATM    4  C   LIG     1      14.843  31.921  19.230  1.00  0.00     0.013 C 
HETATM    5  C   LIG     1      15.118  32.069  17.709  1.00  0.00     0.059 C 
HETATM    6  C   LIG     1      15.273  33.539  17.360  1.00  0.00     0.131 C 
HETATM    7  C   LIG     1      14.741  34.587  18.299  1.00  0.00     0.083 C 
HETATM    8  O   LIG     1      15.884  33.877  16.358  1.00  0.00    -0.298 OA
ENDROOT
BRANCH   5   9
HETATM    9  C   LIG     1      14.008  31.385  16.853  1.00  0.00    -0.012 C 
HETATM   10  C   LIG     1      12.776  32.291  16.673  1.00  0.00     0.010 C 
HETATM   11  C   LIG     1      14.533  30.978  15.464  1.00  0.00     0.010 C 
ENDBRANCH   5   9
TORSDOF 1
ENDMDL
MODEL 16
REMARK VINA RESULT:      -4.3      8.252      9.573
REMARK  1 active torsions:
REMARK  status: ('A' for Active; 'I' for Inactive)
REMARK    1  A    between atoms: C_5  and  C_6 
ROOT
HETATM    1  C   LIG     1      12.844  30.381  16.669  1.00  0.00     0.010 C 
HETATM    2  C   LIG     1      13.529  31.220  15.581  1.00  0.00    -0.012 C 
HETATM    3  C   LIG     1      14.587  30.368  14.830  1.00  0.00     0.005 C 
HETATM    4  C   LIG     1      15.718  31.230  14.252  1.00  0.00     0.013 C 
HETATM    5  C   LIG     1      16.523  31.937  15.376  1.00  0.00     0.059 C 
HETATM    6  C   LIG     1      15.575  32.397  16.470  1.00  0.00     0.131 C 
HETATM    7  C   LIG     1      14.107  32.532  16.173  1.00  0.00     0.083 C 
HETATM    8  O   LIG     1      15.985  32.593  17.603  1.00  0.00    -0.298 OA
ENDROOT
BRANCH   5   9
HETATM    9  C   LIG     1      17.378  33.117  14.817  1.00  0.00    -0.012 C 
HETATM   10  C   LIG     1      17.338  33.183  13.280  1.00  0.00     0.010 C 
HETATM   11  C   LIG     1      16.914  34.471  15.385  1.00  0.00     0.010 C 
ENDBRANCH   5   9
TORSDOF 1
ENDMDL
MODEL 17
REMARK VINA RESULT:      -4.2     17.028     18.974
REMARK  1 active torsions:
REMARK  status: ('A' for Active; 'I' for Inactive)
REMARK    1  A    between atoms: C_5  and  C_6 
ROOT
HETATM    1  C   LIG     1      22.435  23.555  37.509  1.00  0.00     0.010 C 
HETATM    2  C   LIG     1      21.669  23.909  36.228  1.00  0.00    -0.012 C 
HETATM    3  C   LIG     1      20.252  23.276  36.256  1.00  0.00     0.005 C 
HETATM    4  C   LIG     1      19.712  23.004  34.845  1.00  0.00     0.013 C 
HETATM    5  C   LIG     1      20.583  21.959  34.096  1.00  0.00     0.059 C 
HETATM    6  C   LIG     1      22.049  22.194  34.418  1.00  0.00     0.131 C 
HETATM    7  C   LIG     1      22.487  23.524  34.967  1.00  0.00     0.083 C 
HETATM    8  O   LIG     1      22.862  21.290  34.297  1.00  0.00    -0.298 OA
ENDROOT
BRANCH   5   9
HETATM    9  C   LIG     1      20.317  21.982  32.559  1.00  0.00    -0.012 C 
HETATM   10  C   LIG     1      19.750  20.644  32.050  1.00  0.00     0.010 C 
HETATM   11  C   LIG     1      19.349  23.113  32.168  1.00  0.00     0.010 C 
ENDBRANCH   5   9
TORSDOF 1
ENDMDL
MODEL 18
REMARK VINA RESULT:      -4.1     16.375     17.553
REMARK  1 active torsions:
REMARK  status: ('A' for Active; 'I' for Inactive)
REMARK    1  A    between atoms: C_5  and  C_6 
ROOT
HETATM    1  C   LIG     1      26.570  31.855  37.932  1.00  0.00     0.010 C 
HETATM    2  C   LIG     1      26.042  30.651  37.142  1.00  0.00    -0.012 C 
HETATM    3  C   LIG     1      26.983  29.430  37.330  1.00  0.00     0.005 C 
HETATM    4  C   LIG     1      26.934  28.473  36.131  1.00  0.00     0.013 C 
HETATM    5  C   LIG     1      27.452  29.159  34.837  1.00  0.00     0.059 C 
HETATM    6  C   LIG     1      26.972  30.600  34.798  1.00  0.00     0.131 C 
HETATM    7  C   LIG     1      25.809  31.021  35.654  1.00  0.00     0.083 C 
HETATM    8  O   LIG     1      27.566  31.433  34.130  1.00  0.00    -0.298 OA
ENDROOT
BRANCH   5   9
HETATM    9  C   LIG     1      27.026  28.374  33.558  1.00  0.00    -0.012 C 
HETATM   10  C   LIG     1      28.165  28.291  32.525  1.00  0.00     0.010 C 
HETATM   11  C   LIG     1      26.559  26.946  33.899  1.00  0.00     0.010 C 
ENDBRANCH   5   9
TORSDOF 1
ENDMDL
MODEL 19
REMARK VINA RESULT:      -4.0     16.347     17.656
REMARK  1 active torsions:
REMARK  status: ('A' for Active; 'I' for Inactive)
REMARK    1  A    between atoms: C_5  and  C_6 
ROOT
HETATM    1  C   LIG     1      23.364  18.298  17.478  1.00  0.00     0.010 C 
HETATM    2  C   LIG     1      22.554  19.309  18.299  1.00  0.00    -0.012 C 
HETATM    3  C   LIG     1      23.017  20.757  17.978  1.00  0.00     0.005 C 
HETATM    4  C   LIG     1      22.781  21.713  19.155  1.00  0.00     0.013 C 
HETATM    5  C   LIG     1      23.625  21.307  20.393  1.00  0.00     0.059 C 
HETATM    6  C   LIG     1      23.653  19.793  20.517  1.00  0.00     0.131 C 
HETATM    7  C   LIG     1      22.611  18.970  19.811  1.00  0.00     0.083 C 
HETATM    8  O   LIG     1      24.553  19.238  21.129  1.00  0.00    -0.298 OA
ENDROOT
BRANCH   5   9
HETATM    9  C   LIG     1      23.100  21.984  21.697  1.00  0.00    -0.012 C 
HETATM   10  C   LIG     1      24.222  22.703  22.468  1.00  0.00     0.010 C 
HETATM   11  C   LIG     1      21.977  22.995  21.398  1.00  0.00     0.010 C 
ENDBRANCH   5   9
TORSDOF 1
ENDMDL
MODEL 20
REMARK VINA RESULT:      -3.9     15.509     16.783
REMARK  1 active torsions:
REMARK  status: ('A' for Active; 'I' for Inactive)
REMARK    1  A    between atoms: C_5  and  C_6 
ROOT
HETATM    1  C   LIG     1      27.156  23.294  18.023  1.00  0.00     0.010 C 
HETATM    2  C   LIG     1      25.812  23.594  18.700  1.00  0.00    -0.012 C 
HETATM    3  C   LIG     1      26.006  23.762  20.231  1.00  0.00     0.005 C 
HETATM    4  C   LIG     1      24.739  23.398  21.018  1.00  0.00     0.013 C 
HETATM    5  C   LIG     1      24.373  21.899  20.840  1.00  0.00     0.059 C 
HETATM    6  C   LIG     1      24.636  21.476  19.405  1.00  0.00     0.131 C 
HETATM    7  C   LIG     1      24.752  22.523  18.331  1.00  0.00     0.083 C 
HETATM    8  O   LIG     1      24.821  20.301  19.129  1.00  0.00    -0.298 OA
ENDROOT
BRANCH   5   9
HETATM    9  C   LIG     1      22.900  21.611  21.267  1.00  0.00    -0.012 C 
HETATM   10  C   LIG     1      22.821  20.921  22.641  1.00  0.00     0.010 C 
HETATM   11  C   LIG     1      22.060  22.900  21.309  1.00  0.00     0.010 C 
ENDBRANCH   5   9
TORSDOF 1
ENDMDL
