REMARK  1 active torsions:
REMARK  status: ('A' for Active; 'I' for Inactive)
REMARK    1  A    between atoms: C_5  and  C_6 
ROOT
HETATM    1  C   LIG     1      -3.542  -0.082   0.355  1.00  0.00     0.010 C 
HETATM    2  C   LIG     1      -2.285  -0.249  -0.509  1.00  0.00    -0.012 C 
HETATM    3  C   LIG     1      -1.442  -1.452  -0.006  1.00  0.00     0.005 C 
HETATM    4  C   LIG     1       0.050  -1.287  -0.328  1.00  0.00     0.013 C 
HETATM    5  C   LIG     1       0.656  -0.061   0.407  1.00  0.00     0.059 C 
HETATM    6  C   LIG     1      -0.347   1.080   0.408  1.00  0.00     0.131 C 
HETATM    7  C   LIG     1      -1.480   1.075  -0.581  1.00  0.00     0.083 C 
HETATM    8  O   LIG     1      -0.279   1.964   1.248  1.00  0.00    -0.298 OA
ENDROOT
BRANCH   5   9
HETATM    9  C   LIG     1       2.020   0.369  -0.217  1.00  0.00    -0.012 C 
HETATM   10  C   LIG     1       2.643   1.566   0.524  1.00  0.00     0.010 C 
HETATM   11  C   LIG     1       3.031  -0.792  -0.224  1.00  0.00     0.010 C 
ENDBRANCH   5   9
TORSDOF 1
