REMARK  5 active torsions:
REMARK  status: ('A' for Active; 'I' for Inactive)
REMARK    1  A    between atoms: C_2  and  C_3 
REMARK    2  A    between atoms: C_3  and  C_4 
REMARK    3  A    between atoms: C_4  and  C_5 
REMARK    4  A    between atoms: C_5  and  C_7 
REMARK    5  A    between atoms: C_7  and  C_8 
ROOT
HETATM    1  C   LIG     1       0.721  -0.682  -0.339  1.00  0.00     0.133 C 
HETATM    2  O   LIG     1       0.964  -1.799  -0.773  1.00  0.00    -0.298 OA
ENDROOT
BRANCH   1   3
HETATM    3  C   LIG     1      -0.581  -0.015  -0.693  1.00  0.00     0.079 C 
BRANCH   3   4
HETATM    4  C   LIG     1      -1.518   0.043   0.522  1.00  0.00     0.007 C 
BRANCH   4   5
HETATM    5  C   LIG     1      -2.816   0.811   0.229  1.00  0.00    -0.004 C 
HETATM    6  C   LIG     1      -3.756   0.050  -0.706  1.00  0.00     0.005 C 
ENDBRANCH   4   5
ENDBRANCH   3   4
ENDBRANCH   1   3
BRANCH   1   7
HETATM    7  C   LIG     1       1.733   0.007   0.537  1.00  0.00     0.156 C 
BRANCH   7   8
HETATM    8  C   LIG     1       3.011   0.243  -0.221  1.00  0.00     0.130 C 
HETATM    9  C   LIG     1       4.278  -0.474   0.141  1.00  0.00     0.091 C 
HETATM   10  O   LIG     1       3.021   1.035  -1.151  1.00  0.00    -0.298 OA
ENDBRANCH   7   8
ENDBRANCH   1   7
TORSDOF 5
