REMARK  0 active torsions:
REMARK  status: ('A' for Active; 'I' for Inactive)
ROOT
HETATM    1  O   LIG     1      -1.316   1.781  -0.219  1.00  0.00    -0.272 OA
HETATM    2  C   LIG     1      -0.601   0.757  -0.056  1.00  0.00     0.232 A 
HETATM    3  C   LIG     1      -1.183  -0.610   0.066  1.00  0.00     0.184 A 
HETATM    4  S   LIG     1       0.205  -1.775   0.358  1.00  0.00    -0.091 SA
HETATM    5  N   LIG     1       0.809   0.838  -0.004  1.00  0.00    -0.312 N 
HETATM    6  C   LIG     1       1.384  -0.441   0.182  1.00  0.00     0.141 A 
HETATM    7  S   LIG     1       2.945  -0.732  -0.203  1.00  0.00    -0.052 SA
HETATM    8  H   LIG     1       1.354   1.714  -0.170  1.00  0.00     0.170 HD
ENDROOT
TORSDOF 0
