REMARK  3 active torsions:
REMARK  status: ('A' for Active; 'I' for Inactive)
REMARK    1  A    between atoms: O_1  and  C_2 
REMARK    2  A    between atoms: C_2  and  C_3 
REMARK    3  A    between atoms: C_3  and  C_4 
ROOT
HETATM    1  C   LIG     1       1.106   0.077  -0.221  1.00  0.00     0.140 C 
HETATM    2  O   LIG     1       1.731  -0.937  -0.631  1.00  0.00    -0.650 OA
ENDROOT
BRANCH   1   3
HETATM    3  O   LIG     1       1.725   0.970   0.649  1.00  0.00    -0.776 OA
HETATM    4  H   LIG     1       2.679   0.822   0.954  1.00  0.00     0.167 HD
ENDBRANCH   1   3
BRANCH   1   5
HETATM    5  C   LIG     1      -0.311   0.307  -0.645  1.00  0.00     0.120 C 
BRANCH   5   6
HETATM    6  C   LIG     1      -1.279  -0.576   0.141  1.00  0.00     0.090 C 
HETATM    7  I   LIG     1      -1.393   0.006   2.200  1.00  0.00    -0.089 I 
ENDBRANCH   5   6
ENDBRANCH   1   5
TORSDOF 3
