MODEL 1
REMARK VINA RESULT:      -4.0      0.000      0.000
REMARK  2 active torsions:
REMARK  status: ('A' for Active; 'I' for Inactive)
REMARK    1  A    between atoms: C_2  and  O_3 
REMARK    2  A    between atoms: O_3  and  C_4 
ROOT
HETATM    1  C   LIG     1      18.296  38.375  23.900  1.00  0.00     0.126 C 
HETATM    2  C   LIG     1      17.163  37.935  24.764  1.00  0.00     0.254 C 
HETATM    3  O   LIG     1      15.988  37.925  24.305  1.00  0.00    -0.266 OA
ENDROOT
BRANCH   2   4
HETATM    4  O   LIG     1      17.419  37.538  26.079  1.00  0.00    -0.322 OA
BRANCH   4   5
HETATM    5  C   LIG     1      18.395  36.555  26.408  1.00  0.00     0.174 C 
HETATM    6  C   LIG     1      17.865  35.174  26.057  1.00  0.00     0.034 C 
ENDBRANCH   4   5
ENDBRANCH   2   4
TORSDOF 2
ENDMDL
MODEL 2
REMARK VINA RESULT:      -3.9      1.598      2.048
REMARK  2 active torsions:
REMARK  status: ('A' for Active; 'I' for Inactive)
REMARK    1  A    between atoms: C_2  and  O_3 
REMARK    2  A    between atoms: O_3  and  C_4 
ROOT
HETATM    1  C   LIG     1      16.771  36.847  22.330  1.00  0.00     0.126 C 
HETATM    2  C   LIG     1      16.293  37.959  23.201  1.00  0.00     0.254 C 
HETATM    3  O   LIG     1      15.893  39.037  22.683  1.00  0.00    -0.266 OA
ENDROOT
BRANCH   2   4
HETATM    4  O   LIG     1      16.295  37.790  24.588  1.00  0.00    -0.322 OA
BRANCH   4   5
HETATM    5  C   LIG     1      17.411  38.137  25.402  1.00  0.00     0.174 C 
HETATM    6  C   LIG     1      18.038  36.876  25.972  1.00  0.00     0.034 C 
ENDBRANCH   4   5
ENDBRANCH   2   4
TORSDOF 2
ENDMDL
MODEL 3
REMARK VINA RESULT:      -3.8      4.472      5.615
REMARK  2 active torsions:
REMARK  status: ('A' for Active; 'I' for Inactive)
REMARK    1  A    between atoms: C_2  and  O_3 
REMARK    2  A    between atoms: O_3  and  C_4 
ROOT
HETATM    1  C   LIG     1      19.270  37.382  19.488  1.00  0.00     0.126 C 
HETATM    2  C   LIG     1      19.554  38.813  19.796  1.00  0.00     0.254 C 
HETATM    3  O   LIG     1      20.539  39.389  19.258  1.00  0.00    -0.266 OA
ENDROOT
BRANCH   2   4
HETATM    4  O   LIG     1      18.720  39.501  20.681  1.00  0.00    -0.322 OA
BRANCH   4   5
HETATM    5  C   LIG     1      18.568  39.122  22.045  1.00  0.00     0.174 C 
HETATM    6  C   LIG     1      17.102  38.851  22.339  1.00  0.00     0.034 C 
ENDBRANCH   4   5
ENDBRANCH   2   4
TORSDOF 2
ENDMDL
MODEL 4
REMARK VINA RESULT:      -3.8      1.455      3.082
REMARK  2 active torsions:
REMARK  status: ('A' for Active; 'I' for Inactive)
REMARK    1  A    between atoms: C_2  and  O_3 
REMARK    2  A    between atoms: O_3  and  C_4 
ROOT
HETATM    1  C   LIG     1      18.380  36.740  26.211  1.00  0.00     0.126 C 
HETATM    2  C   LIG     1      17.473  37.471  25.280  1.00  0.00     0.254 C 
HETATM    3  O   LIG     1      17.115  38.651  25.547  1.00  0.00    -0.266 OA
ENDROOT
BRANCH   2   4
HETATM    4  O   LIG     1      17.028  36.834  24.118  1.00  0.00    -0.322 OA
BRANCH   4   5
HETATM    5  C   LIG     1      16.360  37.529  23.070  1.00  0.00     0.174 C 
HETATM    6  C   LIG     1      17.375  37.995  22.039  1.00  0.00     0.034 C 
ENDBRANCH   4   5
ENDBRANCH   2   4
TORSDOF 2
ENDMDL
MODEL 5
REMARK VINA RESULT:      -3.4      4.443      5.689
REMARK  2 active torsions:
REMARK  status: ('A' for Active; 'I' for Inactive)
REMARK    1  A    between atoms: C_2  and  O_3 
REMARK    2  A    between atoms: O_3  and  C_4 
ROOT
HETATM    1  C   LIG     1      17.012  35.262  22.160  1.00  0.00     0.126 C 
HETATM    2  C   LIG     1      17.145  35.850  20.796  1.00  0.00     0.254 C 
HETATM    3  O   LIG     1      16.492  35.362  19.834  1.00  0.00    -0.266 OA
ENDROOT
BRANCH   2   4
HETATM    4  O   LIG     1      17.996  36.942  20.602  1.00  0.00    -0.322 OA
BRANCH   4   5
HETATM    5  C   LIG     1      18.980  36.974  19.573  1.00  0.00     0.174 C 
HETATM    6  C   LIG     1      19.698  38.313  19.596  1.00  0.00     0.034 C 
ENDBRANCH   4   5
ENDBRANCH   2   4
TORSDOF 2
ENDMDL
MODEL 6
REMARK VINA RESULT:      -3.4      9.940     10.342
REMARK  2 active torsions:
REMARK  status: ('A' for Active; 'I' for Inactive)
REMARK    1  A    between atoms: C_2  and  O_3 
REMARK    2  A    between atoms: O_3  and  C_4 
ROOT
HETATM    1  C   LIG     1      14.508  31.125  15.657  1.00  0.00     0.126 C 
HETATM    2  C   LIG     1      13.583  31.051  16.824  1.00  0.00     0.254 C 
HETATM    3  O   LIG     1      12.372  30.745  16.650  1.00  0.00    -0.266 OA
ENDROOT
BRANCH   2   4
HETATM    4  O   LIG     1      14.074  31.324  18.104  1.00  0.00    -0.322 OA
BRANCH   4   5
HETATM    5  C   LIG     1      14.978  32.393  18.368  1.00  0.00     0.174 C 
HETATM    6  C   LIG     1      15.517  32.267  19.783  1.00  0.00     0.034 C 
ENDBRANCH   4   5
ENDBRANCH   2   4
TORSDOF 2
ENDMDL
MODEL 7
REMARK VINA RESULT:      -3.3      9.152      9.650
REMARK  2 active torsions:
REMARK  status: ('A' for Active; 'I' for Inactive)
REMARK    1  A    between atoms: C_2  and  O_3 
REMARK    2  A    between atoms: O_3  and  C_4 
ROOT
HETATM    1  C   LIG     1      15.942  32.337  15.403  1.00  0.00     0.126 C 
HETATM    2  C   LIG     1      15.385  33.332  16.364  1.00  0.00     0.254 C 
HETATM    3  O   LIG     1      15.866  34.497  16.413  1.00  0.00    -0.266 OA
ENDROOT
BRANCH   2   4
HETATM    4  O   LIG     1      14.331  32.957  17.202  1.00  0.00    -0.322 OA
BRANCH   4   5
HETATM    5  C   LIG     1      14.435  31.888  18.136  1.00  0.00     0.174 C 
HETATM    6  C   LIG     1      15.321  32.310  19.297  1.00  0.00     0.034 C 
ENDBRANCH   4   5
ENDBRANCH   2   4
TORSDOF 2
ENDMDL
MODEL 8
REMARK VINA RESULT:      -3.3      5.209      5.695
REMARK  2 active torsions:
REMARK  status: ('A' for Active; 'I' for Inactive)
REMARK    1  A    between atoms: C_2  and  O_3 
REMARK    2  A    between atoms: O_3  and  C_4 
ROOT
HETATM    1  C   LIG     1      16.938  35.207  22.621  1.00  0.00     0.126 C 
HETATM    2  C   LIG     1      16.985  35.552  21.172  1.00  0.00     0.254 C 
HETATM    3  O   LIG     1      17.598  36.586  20.790  1.00  0.00    -0.266 OA
ENDROOT
BRANCH   2   4
HETATM    4  O   LIG     1      16.344  34.720  20.249  1.00  0.00    -0.322 OA
BRANCH   4   5
HETATM    5  C   LIG     1      15.353  33.771  20.630  1.00  0.00     0.174 C 
HETATM    6  C   LIG     1      15.478  32.528  19.764  1.00  0.00     0.034 C 
ENDBRANCH   4   5
ENDBRANCH   2   4
TORSDOF 2
ENDMDL
MODEL 9
REMARK VINA RESULT:      -3.2      9.142      9.849
REMARK  2 active torsions:
REMARK  status: ('A' for Active; 'I' for Inactive)
REMARK    1  A    between atoms: C_2  and  O_3 
REMARK    2  A    between atoms: O_3  and  C_4 
ROOT
HETATM    1  C   LIG     1      15.309  32.096  19.820  1.00  0.00     0.126 C 
HETATM    2  C   LIG     1      14.904  32.122  18.386  1.00  0.00     0.254 C 
HETATM    3  O   LIG     1      13.890  31.475  18.006  1.00  0.00    -0.266 OA
ENDROOT
BRANCH   2   4
HETATM    4  O   LIG     1      15.657  32.868  17.475  1.00  0.00    -0.322 OA
BRANCH   4   5
HETATM    5  C   LIG     1      15.449  32.799  16.068  1.00  0.00     0.174 C 
HETATM    6  C   LIG     1      16.734  32.367  15.383  1.00  0.00     0.034 C 
ENDBRANCH   4   5
ENDBRANCH   2   4
TORSDOF 2
ENDMDL
MODEL 10
REMARK VINA RESULT:      -3.2      3.597      5.106
REMARK  2 active torsions:
REMARK  status: ('A' for Active; 'I' for Inactive)
REMARK    1  A    between atoms: C_2  and  O_3 
REMARK    2  A    between atoms: O_3  and  C_4 
ROOT
HETATM    1  C   LIG     1      17.076  38.709  23.166  1.00  0.00     0.126 C 
HETATM    2  C   LIG     1      17.797  38.257  21.942  1.00  0.00     0.254 C 
HETATM    3  O   LIG     1      17.416  37.221  21.333  1.00  0.00    -0.266 OA
ENDROOT
BRANCH   2   4
HETATM    4  O   LIG     1      18.893  38.994  21.482  1.00  0.00    -0.322 OA
BRANCH   4   5
HETATM    5  C   LIG     1      19.043  39.376  20.119  1.00  0.00     0.174 C 
HETATM    6  C   LIG     1      20.306  38.752  19.550  1.00  0.00     0.034 C 
ENDBRANCH   4   5
ENDBRANCH   2   4
TORSDOF 2
ENDMDL
MODEL 11
REMARK VINA RESULT:      -3.2      7.142      7.577
REMARK  2 active torsions:
REMARK  status: ('A' for Active; 'I' for Inactive)
REMARK    1  A    between atoms: C_2  and  O_3 
REMARK    2  A    between atoms: O_3  and  C_4 
ROOT
HETATM    1  C   LIG     1      14.982  32.536  17.865  1.00  0.00     0.126 C 
HETATM    2  C   LIG     1      15.136  32.224  19.315  1.00  0.00     0.254 C 
HETATM    3  O   LIG     1      14.533  31.234  19.814  1.00  0.00    -0.266 OA
ENDROOT
BRANCH   2   4
HETATM    4  O   LIG     1      15.950  33.038  20.107  1.00  0.00    -0.322 OA
BRANCH   4   5
HETATM    5  C   LIG     1      15.655  34.408  20.358  1.00  0.00     0.174 C 
HETATM    6  C   LIG     1      16.529  34.918  21.492  1.00  0.00     0.034 C 
ENDBRANCH   4   5
ENDBRANCH   2   4
TORSDOF 2
ENDMDL
MODEL 12
REMARK VINA RESULT:      -3.2     10.114     10.797
REMARK  2 active torsions:
REMARK  status: ('A' for Active; 'I' for Inactive)
REMARK    1  A    between atoms: C_2  and  O_3 
REMARK    2  A    between atoms: O_3  and  C_4 
ROOT
HETATM    1  C   LIG     1      14.190  32.460  17.167  1.00  0.00     0.126 C 
HETATM    2  C   LIG     1      15.294  33.280  16.592  1.00  0.00     0.254 C 
HETATM    3  O   LIG     1      15.191  34.536  16.551  1.00  0.00    -0.266 OA
ENDROOT
BRANCH   2   4
HETATM    4  O   LIG     1      16.437  32.641  16.102  1.00  0.00    -0.322 OA
BRANCH   4   5
HETATM    5  C   LIG     1      16.950  32.880  14.796  1.00  0.00     0.174 C 
HETATM    6  C   LIG     1      16.111  32.133  13.773  1.00  0.00     0.034 C 
ENDBRANCH   4   5
ENDBRANCH   2   4
TORSDOF 2
ENDMDL
MODEL 13
REMARK VINA RESULT:      -3.1     11.479     12.018
REMARK  2 active torsions:
REMARK  status: ('A' for Active; 'I' for Inactive)
REMARK    1  A    between atoms: C_2  and  O_3 
REMARK    2  A    between atoms: O_3  and  C_4 
ROOT
HETATM    1  C   LIG     1      14.949  32.320  16.506  1.00  0.00     0.126 C 
HETATM    2  C   LIG     1      16.033  32.624  15.529  1.00  0.00     0.254 C 
HETATM    3  O   LIG     1      16.568  33.767  15.516  1.00  0.00    -0.266 OA
ENDROOT
BRANCH   2   4
HETATM    4  O   LIG     1      16.446  31.633  14.634  1.00  0.00    -0.322 OA
BRANCH   4   5
HETATM    5  C   LIG     1      15.616  31.157  13.580  1.00  0.00     0.174 C 
HETATM    6  C   LIG     1      15.252  29.703  13.834  1.00  0.00     0.034 C 
ENDBRANCH   4   5
ENDBRANCH   2   4
TORSDOF 2
ENDMDL
MODEL 14
REMARK VINA RESULT:      -3.1     10.428     10.926
REMARK  2 active torsions:
REMARK  status: ('A' for Active; 'I' for Inactive)
REMARK    1  A    between atoms: C_2  and  O_3 
REMARK    2  A    between atoms: O_3  and  C_4 
ROOT
HETATM    1  C   LIG     1      16.907  32.534  15.214  1.00  0.00     0.126 C 
HETATM    2  C   LIG     1      15.810  33.203  15.971  1.00  0.00     0.254 C 
HETATM    3  O   LIG     1      15.912  34.420  16.284  1.00  0.00    -0.266 OA
ENDROOT
BRANCH   2   4
HETATM    4  O   LIG     1      14.676  32.466  16.324  1.00  0.00    -0.322 OA
BRANCH   4   5
HETATM    5  C   LIG     1      14.395  31.180  15.781  1.00  0.00     0.174 C 
HETATM    6  C   LIG     1      13.003  30.740  16.204  1.00  0.00     0.034 C 
ENDBRANCH   4   5
ENDBRANCH   2   4
TORSDOF 2
ENDMDL
MODEL 15
REMARK VINA RESULT:      -3.1      3.047      4.130
REMARK  2 active torsions:
REMARK  status: ('A' for Active; 'I' for Inactive)
REMARK    1  A    between atoms: C_2  and  O_3 
REMARK    2  A    between atoms: O_3  and  C_4 
ROOT
HETATM    1  C   LIG     1      16.765  35.524  20.944  1.00  0.00     0.126 C 
HETATM    2  C   LIG     1      16.779  36.169  22.288  1.00  0.00     0.254 C 
HETATM    3  O   LIG     1      17.077  35.490  23.309  1.00  0.00    -0.266 OA
ENDROOT
BRANCH   2   4
HETATM    4  O   LIG     1      16.460  37.525  22.400  1.00  0.00    -0.322 OA
BRANCH   4   5
HETATM    5  C   LIG     1      17.394  38.498  22.855  1.00  0.00     0.174 C 
HETATM    6  C   LIG     1      18.238  38.982  21.686  1.00  0.00     0.034 C 
ENDBRANCH   4   5
ENDBRANCH   2   4
TORSDOF 2
ENDMDL
MODEL 16
REMARK VINA RESULT:      -3.1     12.024     12.973
REMARK  2 active torsions:
REMARK  status: ('A' for Active; 'I' for Inactive)
REMARK    1  A    between atoms: C_2  and  O_3 
REMARK    2  A    between atoms: O_3  and  C_4 
ROOT
HETATM    1  C   LIG     1      17.612  33.248  14.741  1.00  0.00     0.126 C 
HETATM    2  C   LIG     1      18.013  33.822  13.425  1.00  0.00     0.254 C 
HETATM    3  O   LIG     1      17.447  34.863  12.993  1.00  0.00    -0.266 OA
ENDROOT
BRANCH   2   4
HETATM    4  O   LIG     1      19.017  33.194  12.683  1.00  0.00    -0.322 OA
BRANCH   4   5
HETATM    5  C   LIG     1      19.940  33.917  11.874  1.00  0.00     0.174 C 
HETATM    6  C   LIG     1      21.225  34.151  12.652  1.00  0.00     0.034 C 
ENDBRANCH   4   5
ENDBRANCH   2   4
TORSDOF 2
ENDMDL
MODEL 17
REMARK VINA RESULT:      -3.1      3.038      4.280
REMARK  2 active torsions:
REMARK  status: ('A' for Active; 'I' for Inactive)
REMARK    1  A    between atoms: C_2  and  O_3 
REMARK    2  A    between atoms: O_3  and  C_4 
ROOT
HETATM    1  C   LIG     1      17.094  35.199  23.738  1.00  0.00     0.126 C 
HETATM    2  C   LIG     1      16.875  36.517  23.078  1.00  0.00     0.254 C 
HETATM    3  O   LIG     1      17.161  37.583  23.689  1.00  0.00    -0.266 OA
ENDROOT
BRANCH   2   4
HETATM    4  O   LIG     1      16.351  36.555  21.783  1.00  0.00    -0.322 OA
BRANCH   4   5
HETATM    5  C   LIG     1      16.977  35.904  20.682  1.00  0.00     0.174 C 
HETATM    6  C   LIG     1      18.226  36.671  20.279  1.00  0.00     0.034 C 
ENDBRANCH   4   5
ENDBRANCH   2   4
TORSDOF 2
ENDMDL
MODEL 18
REMARK VINA RESULT:      -3.0     11.187     11.665
REMARK  2 active torsions:
REMARK  status: ('A' for Active; 'I' for Inactive)
REMARK    1  A    between atoms: C_2  and  O_3 
REMARK    2  A    between atoms: O_3  and  C_4 
ROOT
HETATM    1  C   LIG     1      14.765  33.068  16.825  1.00  0.00     0.126 C 
HETATM    2  C   LIG     1      14.196  31.692  16.881  1.00  0.00     0.254 C 
HETATM    3  O   LIG     1      13.812  31.213  17.984  1.00  0.00    -0.266 OA
ENDROOT
BRANCH   2   4
HETATM    4  O   LIG     1      14.094  30.945  15.704  1.00  0.00    -0.322 OA
BRANCH   4   5
HETATM    5  C   LIG     1      15.093  30.970  14.690  1.00  0.00     0.174 C 
HETATM    6  C   LIG     1      15.116  29.635  13.964  1.00  0.00     0.034 C 
ENDBRANCH   4   5
ENDBRANCH   2   4
TORSDOF 2
ENDMDL
MODEL 19
REMARK VINA RESULT:      -3.0     10.148     10.618
REMARK  2 active torsions:
REMARK  status: ('A' for Active; 'I' for Inactive)
REMARK    1  A    between atoms: C_2  and  O_3 
REMARK    2  A    between atoms: O_3  and  C_4 
ROOT
HETATM    1  C   LIG     1      16.138  32.186  14.251  1.00  0.00     0.126 C 
HETATM    2  C   LIG     1      16.350  33.013  15.473  1.00  0.00     0.254 C 
HETATM    3  O   LIG     1      16.847  34.168  15.374  1.00  0.00    -0.266 OA
ENDROOT
BRANCH   2   4
HETATM    4  O   LIG     1      15.992  32.494  16.721  1.00  0.00    -0.322 OA
BRANCH   4   5
HETATM    5  C   LIG     1      14.744  32.782  17.343  1.00  0.00     0.174 C 
HETATM    6  C   LIG     1      13.770  31.645  17.083  1.00  0.00     0.034 C 
ENDBRANCH   4   5
ENDBRANCH   2   4
TORSDOF 2
ENDMDL
MODEL 20
REMARK VINA RESULT:      -2.9     11.080     11.901
REMARK  2 active torsions:
REMARK  status: ('A' for Active; 'I' for Inactive)
REMARK    1  A    between atoms: C_2  and  O_3 
REMARK    2  A    between atoms: O_3  and  C_4 
ROOT
HETATM    1  C   LIG     1      15.651  31.382  14.574  1.00  0.00     0.126 C 
HETATM    2  C   LIG     1      16.559  32.295  15.325  1.00  0.00     0.254 C 
HETATM    3  O   LIG     1      16.213  32.738  16.454  1.00  0.00    -0.266 OA
ENDROOT
BRANCH   2   4
HETATM    4  O   LIG     1      17.789  32.650  14.764  1.00  0.00    -0.322 OA
BRANCH   4   5
HETATM    5  C   LIG     1      17.974  33.846  14.013  1.00  0.00     0.174 C 
HETATM    6  C   LIG     1      18.451  33.501  12.612  1.00  0.00     0.034 C 
ENDBRANCH   4   5
ENDBRANCH   2   4
TORSDOF 2
ENDMDL
