REMARK  2 active torsions:
REMARK  status: ('A' for Active; 'I' for Inactive)
REMARK    1  A    between atoms: C_2  and  O_3 
REMARK    2  A    between atoms: O_3  and  C_4 
ROOT
HETATM    1  C   LIG     1       2.517  -0.376   0.376  1.00  0.00     0.126 C 
HETATM    2  C   LIG     1       1.265  -0.311  -0.431  1.00  0.00     0.254 C 
HETATM    3  O   LIG     1       1.299  -0.560  -1.667  1.00  0.00    -0.266 OA
ENDROOT
BRANCH   2   4
HETATM    4  O   LIG     1       0.063   0.027   0.197  1.00  0.00    -0.322 OA
BRANCH   4   5
HETATM    5  C   LIG     1      -1.173   0.110  -0.505  1.00  0.00     0.174 C 
HETATM    6  C   LIG     1      -2.282   0.498   0.459  1.00  0.00     0.034 C 
ENDBRANCH   4   5
ENDBRANCH   2   4
TORSDOF 2
