MODEL 1
REMARK VINA RESULT:      -4.2      0.000      0.000
REMARK  0 active torsions:
REMARK  status: ('A' for Active; 'I' for Inactive)
ROOT
HETATM    1  O   LIG     1      20.569  39.444  19.284  1.00  0.00    -0.272 OA
HETATM    2  C   LIG     1      19.676  38.806  19.901  1.00  0.00     0.232 A 
HETATM    3  C   LIG     1      19.285  37.417  19.525  1.00  0.00     0.184 A 
HETATM    4  S   LIG     1      17.914  36.912  20.635  1.00  0.00    -0.091 SA
HETATM    5  N   LIG     1      19.001  39.361  21.011  1.00  0.00    -0.312 N 
HETATM    6  C   LIG     1      18.049  38.454  21.532  1.00  0.00     0.141 A 
HETATM    7  S   LIG     1      17.485  38.601  23.059  1.00  0.00    -0.052 SA
HETATM    8  H   LIG     1      19.237  40.284  21.442  1.00  0.00     0.170 HD
ENDROOT
TORSDOF 0
ENDMDL
MODEL 2
REMARK VINA RESULT:      -4.0      4.154      4.418
REMARK  0 active torsions:
REMARK  status: ('A' for Active; 'I' for Inactive)
ROOT
HETATM    1  O   LIG     1      15.907  39.121  22.748  1.00  0.00    -0.272 OA
HETATM    2  C   LIG     1      16.343  38.064  23.277  1.00  0.00     0.232 A 
HETATM    3  C   LIG     1      16.442  36.780  22.526  1.00  0.00     0.184 A 
HETATM    4  S   LIG     1      17.056  35.505  23.694  1.00  0.00    -0.091 SA
HETATM    5  N   LIG     1      16.793  38.036  24.616  1.00  0.00    -0.312 N 
HETATM    6  C   LIG     1      17.235  36.741  24.975  1.00  0.00     0.141 A 
HETATM    7  S   LIG     1      18.238  36.511  26.244  1.00  0.00    -0.052 SA
HETATM    8  H   LIG     1      16.870  38.879  25.228  1.00  0.00     0.170 HD
ENDROOT
TORSDOF 0
ENDMDL
MODEL 3
REMARK VINA RESULT:      -4.0      5.092      5.854
REMARK  0 active torsions:
REMARK  status: ('A' for Active; 'I' for Inactive)
ROOT
HETATM    1  O   LIG     1      18.191  34.544  26.430  1.00  0.00    -0.272 OA
HETATM    2  C   LIG     1      17.857  35.544  25.741  1.00  0.00     0.232 A 
HETATM    3  C   LIG     1      18.074  36.942  26.210  1.00  0.00     0.184 A 
HETATM    4  S   LIG     1      17.380  38.064  24.934  1.00  0.00    -0.091 SA
HETATM    5  N   LIG     1      17.275  35.402  24.461  1.00  0.00    -0.312 N 
HETATM    6  C   LIG     1      16.993  36.664  23.889  1.00  0.00     0.141 A 
HETATM    7  S   LIG     1      16.788  36.838  22.278  1.00  0.00    -0.052 SA
HETATM    8  H   LIG     1      17.153  34.488  23.969  1.00  0.00     0.170 HD
ENDROOT
TORSDOF 0
ENDMDL
MODEL 4
REMARK VINA RESULT:      -4.0      3.215      3.786
REMARK  0 active torsions:
REMARK  status: ('A' for Active; 'I' for Inactive)
ROOT
HETATM    1  O   LIG     1      15.947  37.987  24.183  1.00  0.00    -0.272 OA
HETATM    2  C   LIG     1      16.594  37.767  23.125  1.00  0.00     0.232 A 
HETATM    3  C   LIG     1      16.387  36.539  22.304  1.00  0.00     0.184 A 
HETATM    4  S   LIG     1      17.577  36.603  20.908  1.00  0.00    -0.091 SA
HETATM    5  N   LIG     1      17.545  38.689  22.632  1.00  0.00    -0.312 N 
HETATM    6  C   LIG     1      18.133  38.220  21.434  1.00  0.00     0.141 A 
HETATM    7  S   LIG     1      18.872  39.243  20.396  1.00  0.00    -0.052 SA
HETATM    8  H   LIG     1      17.723  39.630  23.050  1.00  0.00     0.170 HD
ENDROOT
TORSDOF 0
ENDMDL
MODEL 5
REMARK VINA RESULT:      -3.8      2.176      2.318
REMARK  0 active torsions:
REMARK  status: ('A' for Active; 'I' for Inactive)
ROOT
HETATM    1  O   LIG     1      18.826  36.449  19.059  1.00  0.00    -0.272 OA
HETATM    2  C   LIG     1      18.512  37.173  20.040  1.00  0.00     0.232 A 
HETATM    3  C   LIG     1      19.077  38.538  20.237  1.00  0.00     0.184 A 
HETATM    4  S   LIG     1      18.402  39.192  21.814  1.00  0.00    -0.091 SA
HETATM    5  N   LIG     1      17.577  36.743  21.009  1.00  0.00    -0.312 N 
HETATM    6  C   LIG     1      17.389  37.729  22.006  1.00  0.00     0.141 A 
HETATM    7  S   LIG     1      16.055  37.738  22.949  1.00  0.00    -0.052 SA
HETATM    8  H   LIG     1      17.032  35.853  20.947  1.00  0.00     0.170 HD
ENDROOT
TORSDOF 0
ENDMDL
MODEL 6
REMARK VINA RESULT:      -3.8      1.302      2.158
REMARK  0 active torsions:
REMARK  status: ('A' for Active; 'I' for Inactive)
ROOT
HETATM    1  O   LIG     1      20.284  39.363  19.412  1.00  0.00    -0.272 OA
HETATM    2  C   LIG     1      19.414  38.843  20.161  1.00  0.00     0.232 A 
HETATM    3  C   LIG     1      18.767  39.598  21.272  1.00  0.00     0.184 A 
HETATM    4  S   LIG     1      17.630  38.442  22.133  1.00  0.00    -0.091 SA
HETATM    5  N   LIG     1      18.977  37.512  19.977  1.00  0.00    -0.312 N 
HETATM    6  C   LIG     1      17.998  37.163  20.937  1.00  0.00     0.141 A 
HETATM    7  S   LIG     1      16.977  35.912  20.689  1.00  0.00    -0.052 SA
HETATM    8  H   LIG     1      19.273  36.900  19.184  1.00  0.00     0.170 HD
ENDROOT
TORSDOF 0
ENDMDL
MODEL 7
REMARK VINA RESULT:      -3.8      3.035      3.628
REMARK  0 active torsions:
REMARK  status: ('A' for Active; 'I' for Inactive)
ROOT
HETATM    1  O   LIG     1      16.950  35.063  20.653  1.00  0.00    -0.272 OA
HETATM    2  C   LIG     1      17.444  36.217  20.754  1.00  0.00     0.232 A 
HETATM    3  C   LIG     1      17.110  37.131  21.884  1.00  0.00     0.184 A 
HETATM    4  S   LIG     1      17.994  38.713  21.593  1.00  0.00    -0.091 SA
HETATM    5  N   LIG     1      18.373  36.711  19.811  1.00  0.00    -0.312 N 
HETATM    6  C   LIG     1      18.784  38.024  20.143  1.00  0.00     0.141 A 
HETATM    7  S   LIG     1      20.171  38.653  19.551  1.00  0.00    -0.052 SA
HETATM    8  H   LIG     1      18.769  36.148  19.025  1.00  0.00     0.170 HD
ENDROOT
TORSDOF 0
ENDMDL
MODEL 8
REMARK VINA RESULT:      -3.8      4.243      4.781
REMARK  0 active torsions:
REMARK  status: ('A' for Active; 'I' for Inactive)
ROOT
HETATM    1  O   LIG     1      16.379  36.653  21.590  1.00  0.00    -0.272 OA
HETATM    2  C   LIG     1      16.730  36.774  22.794  1.00  0.00     0.232 A 
HETATM    3  C   LIG     1      16.711  38.087  23.500  1.00  0.00     0.184 A 
HETATM    4  S   LIG     1      17.360  37.810  25.195  1.00  0.00    -0.091 SA
HETATM    5  N   LIG     1      17.142  35.662  23.562  1.00  0.00    -0.312 N 
HETATM    6  C   LIG     1      17.481  36.053  24.879  1.00  0.00     0.141 A 
HETATM    7  S   LIG     1      17.513  34.970  26.102  1.00  0.00    -0.052 SA
HETATM    8  H   LIG     1      17.114  34.673  23.227  1.00  0.00     0.170 HD
ENDROOT
TORSDOF 0
ENDMDL
MODEL 9
REMARK VINA RESULT:      -3.7      5.805      6.162
REMARK  0 active torsions:
REMARK  status: ('A' for Active; 'I' for Inactive)
ROOT
HETATM    1  O   LIG     1      15.125  34.527  16.537  1.00  0.00    -0.272 OA
HETATM    2  C   LIG     1      15.215  34.047  17.699  1.00  0.00     0.232 A 
HETATM    3  C   LIG     1      15.110  32.585  17.968  1.00  0.00     0.184 A 
HETATM    4  S   LIG     1      15.228  32.349  19.784  1.00  0.00    -0.091 SA
HETATM    5  N   LIG     1      15.449  34.870  18.824  1.00  0.00    -0.312 N 
HETATM    6  C   LIG     1      15.513  34.101  20.010  1.00  0.00     0.141 A 
HETATM    7  S   LIG     1      16.240  34.677  21.355  1.00  0.00    -0.052 SA
HETATM    8  H   LIG     1      15.638  35.896  18.773  1.00  0.00     0.170 HD
ENDROOT
TORSDOF 0
ENDMDL
MODEL 10
REMARK VINA RESULT:      -3.6      4.541      5.106
REMARK  0 active torsions:
REMARK  status: ('A' for Active; 'I' for Inactive)
ROOT
HETATM    1  O   LIG     1      18.634  36.714  26.908  1.00  0.00    -0.272 OA
HETATM    2  C   LIG     1      18.133  36.748  25.752  1.00  0.00     0.232 A 
HETATM    3  C   LIG     1      17.455  35.570  25.142  1.00  0.00     0.184 A 
HETATM    4  S   LIG     1      16.947  36.045  23.444  1.00  0.00    -0.091 SA
HETATM    5  N   LIG     1      18.162  37.923  24.967  1.00  0.00    -0.312 N 
HETATM    6  C   LIG     1      17.537  37.712  23.716  1.00  0.00     0.141 A 
HETATM    7  S   LIG     1      16.987  38.964  22.822  1.00  0.00    -0.052 SA
HETATM    8  H   LIG     1      18.518  38.846  25.303  1.00  0.00     0.170 HD
ENDROOT
TORSDOF 0
ENDMDL
MODEL 11
REMARK VINA RESULT:      -3.6      4.445      5.026
REMARK  0 active torsions:
REMARK  status: ('A' for Active; 'I' for Inactive)
ROOT
HETATM    1  O   LIG     1      17.135  38.904  25.115  1.00  0.00    -0.272 OA
HETATM    2  C   LIG     1      17.147  37.707  24.723  1.00  0.00     0.232 A 
HETATM    3  C   LIG     1      17.392  36.567  25.652  1.00  0.00     0.184 A 
HETATM    4  S   LIG     1      17.389  35.030  24.649  1.00  0.00    -0.091 SA
HETATM    5  N   LIG     1      16.902  37.366  23.374  1.00  0.00    -0.312 N 
HETATM    6  C   LIG     1      16.966  35.966  23.184  1.00  0.00     0.141 A 
HETATM    7  S   LIG     1      16.263  35.253  21.894  1.00  0.00    -0.052 SA
HETATM    8  H   LIG     1      16.623  38.052  22.636  1.00  0.00     0.170 HD
ENDROOT
TORSDOF 0
ENDMDL
MODEL 12
REMARK VINA RESULT:      -3.6      4.527      4.996
REMARK  0 active torsions:
REMARK  status: ('A' for Active; 'I' for Inactive)
ROOT
HETATM    1  O   LIG     1      17.813  37.244  26.276  1.00  0.00    -0.272 OA
HETATM    2  C   LIG     1      17.496  37.268  25.057  1.00  0.00     0.232 A 
HETATM    3  C   LIG     1      17.483  38.529  24.262  1.00  0.00     0.184 A 
HETATM    4  S   LIG     1      16.899  38.109  22.573  1.00  0.00    -0.091 SA
HETATM    5  N   LIG     1      17.154  36.089  24.356  1.00  0.00    -0.312 N 
HETATM    6  C   LIG     1      16.841  36.374  23.007  1.00  0.00     0.141 A 
HETATM    7  S   LIG     1      16.892  35.210  21.861  1.00  0.00    -0.052 SA
HETATM    8  H   LIG     1      17.213  35.127  24.761  1.00  0.00     0.170 HD
ENDROOT
TORSDOF 0
ENDMDL
MODEL 13
REMARK VINA RESULT:      -3.6      3.060      3.796
REMARK  0 active torsions:
REMARK  status: ('A' for Active; 'I' for Inactive)
ROOT
HETATM    1  O   LIG     1      16.818  35.048  21.762  1.00  0.00    -0.272 OA
HETATM    2  C   LIG     1      17.115  36.271  21.818  1.00  0.00     0.232 A 
HETATM    3  C   LIG     1      16.706  37.138  22.960  1.00  0.00     0.184 A 
HETATM    4  S   LIG     1      17.287  38.840  22.594  1.00  0.00    -0.091 SA
HETATM    5  N   LIG     1      17.880  36.895  20.808  1.00  0.00    -0.312 N 
HETATM    6  C   LIG     1      18.083  38.265  21.098  1.00  0.00     0.141 A 
HETATM    7  S   LIG     1      19.300  39.106  20.406  1.00  0.00    -0.052 SA
HETATM    8  H   LIG     1      18.313  36.390  20.002  1.00  0.00     0.170 HD
ENDROOT
TORSDOF 0
ENDMDL
MODEL 14
REMARK VINA RESULT:      -3.5      3.800      4.503
REMARK  0 active torsions:
REMARK  status: ('A' for Active; 'I' for Inactive)
ROOT
HETATM    1  O   LIG     1      15.537  38.137  23.419  1.00  0.00    -0.272 OA
HETATM    2  C   LIG     1      16.021  37.405  22.516  1.00  0.00     0.232 A 
HETATM    3  C   LIG     1      17.392  37.614  21.970  1.00  0.00     0.184 A 
HETATM    4  S   LIG     1      17.650  36.376  20.640  1.00  0.00    -0.091 SA
HETATM    5  N   LIG     1      15.298  36.316  21.979  1.00  0.00    -0.312 N 
HETATM    6  C   LIG     1      16.052  35.648  20.985  1.00  0.00     0.141 A 
HETATM    7  S   LIG     1      15.707  34.112  20.549  1.00  0.00    -0.052 SA
HETATM    8  H   LIG     1      14.368  35.995  22.332  1.00  0.00     0.170 HD
ENDROOT
TORSDOF 0
ENDMDL
MODEL 15
REMARK VINA RESULT:      -3.5      8.772      9.453
REMARK  0 active torsions:
REMARK  status: ('A' for Active; 'I' for Inactive)
ROOT
HETATM    1  O   LIG     1      15.383  33.861  17.340  1.00  0.00    -0.272 OA
HETATM    2  C   LIG     1      14.962  32.841  16.733  1.00  0.00     0.232 A 
HETATM    3  C   LIG     1      13.680  32.171  17.094  1.00  0.00     0.184 A 
HETATM    4  S   LIG     1      13.500  30.704  16.006  1.00  0.00    -0.091 SA
HETATM    5  N   LIG     1      15.670  32.280  15.646  1.00  0.00    -0.312 N 
HETATM    6  C   LIG     1      14.996  31.148  15.131  1.00  0.00     0.141 A 
HETATM    7  S   LIG     1      15.290  30.602  13.620  1.00  0.00    -0.052 SA
HETATM    8  H   LIG     1      16.529  32.700  15.225  1.00  0.00     0.170 HD
ENDROOT
TORSDOF 0
ENDMDL
MODEL 16
REMARK VINA RESULT:      -3.4      3.151      4.014
REMARK  0 active torsions:
REMARK  status: ('A' for Active; 'I' for Inactive)
ROOT
HETATM    1  O   LIG     1      15.851  37.763  23.692  1.00  0.00    -0.272 OA
HETATM    2  C   LIG     1      16.716  38.042  22.819  1.00  0.00     0.232 A 
HETATM    3  C   LIG     1      17.588  39.247  22.918  1.00  0.00     0.184 A 
HETATM    4  S   LIG     1      18.637  39.292  21.412  1.00  0.00    -0.091 SA
HETATM    5  N   LIG     1      16.933  37.209  21.698  1.00  0.00    -0.312 N 
HETATM    6  C   LIG     1      17.953  37.731  20.869  1.00  0.00     0.141 A 
HETATM    7  S   LIG     1      18.748  36.780  19.804  1.00  0.00    -0.052 SA
HETATM    8  H   LIG     1      16.463  36.288  21.551  1.00  0.00     0.170 HD
ENDROOT
TORSDOF 0
ENDMDL
MODEL 17
REMARK VINA RESULT:      -3.4      9.455     10.165
REMARK  0 active torsions:
REMARK  status: ('A' for Active; 'I' for Inactive)
ROOT
HETATM    1  O   LIG     1      12.865  31.234  17.099  1.00  0.00    -0.272 OA
HETATM    2  C   LIG     1      13.754  31.174  16.209  1.00  0.00     0.232 A 
HETATM    3  C   LIG     1      13.653  30.249  15.044  1.00  0.00     0.184 A 
HETATM    4  S   LIG     1      15.184  30.444  14.051  1.00  0.00    -0.091 SA
HETATM    5  N   LIG     1      14.898  32.002  16.246  1.00  0.00    -0.312 N 
HETATM    6  C   LIG     1      15.743  31.750  15.139  1.00  0.00     0.141 A 
HETATM    7  S   LIG     1      16.848  32.849  14.649  1.00  0.00    -0.052 SA
HETATM    8  H   LIG     1      15.053  32.760  16.948  1.00  0.00     0.170 HD
ENDROOT
TORSDOF 0
ENDMDL
MODEL 18
REMARK VINA RESULT:      -3.4      3.681      4.066
REMARK  0 active torsions:
REMARK  status: ('A' for Active; 'I' for Inactive)
ROOT
HETATM    1  O   LIG     1      16.580  34.779  21.829  1.00  0.00    -0.272 OA
HETATM    2  C   LIG     1      16.935  35.887  22.310  1.00  0.00     0.232 A 
HETATM    3  C   LIG     1      17.165  37.088  21.457  1.00  0.00     0.184 A 
HETATM    4  S   LIG     1      17.731  38.444  22.558  1.00  0.00    -0.091 SA
HETATM    5  N   LIG     1      17.115  36.069  23.700  1.00  0.00    -0.312 N 
HETATM    6  C   LIG     1      17.510  37.395  23.991  1.00  0.00     0.141 A 
HETATM    7  S   LIG     1      17.318  38.028  25.485  1.00  0.00    -0.052 SA
HETATM    8  H   LIG     1      16.897  35.344  24.420  1.00  0.00     0.170 HD
ENDROOT
TORSDOF 0
ENDMDL
MODEL 19
REMARK VINA RESULT:      -3.3      2.444      3.130
REMARK  0 active torsions:
REMARK  status: ('A' for Active; 'I' for Inactive)
ROOT
HETATM    1  O   LIG     1      18.363  39.628  22.121  1.00  0.00    -0.272 OA
HETATM    2  C   LIG     1      18.517  39.036  21.020  1.00  0.00     0.232 A 
HETATM    3  C   LIG     1      18.288  37.572  20.864  1.00  0.00     0.184 A 
HETATM    4  S   LIG     1      18.694  37.133  19.128  1.00  0.00    -0.091 SA
HETATM    5  N   LIG     1      18.895  39.734  19.851  1.00  0.00    -0.312 N 
HETATM    6  C   LIG     1      18.999  38.854  18.747  1.00  0.00     0.141 A 
HETATM    7  S   LIG     1      18.932  39.410  17.212  1.00  0.00    -0.052 SA
HETATM    8  H   LIG     1      18.996  40.772  19.792  1.00  0.00     0.170 HD
ENDROOT
TORSDOF 0
ENDMDL
