REMARK  0 active torsions:
REMARK  status: ('A' for Active; 'I' for Inactive)
ROOT
HETATM    1  S   LIG     1       2.701  -1.231  -0.073  1.00  0.00    -0.040 SA
HETATM    2  C   LIG     1       1.207  -0.557  -0.033  1.00  0.00     0.178 A 
HETATM    3  N   LIG     1       0.101  -1.353   0.002  1.00  0.00    -0.343 N 
HETATM    4  C   LIG     1      -1.145  -0.811   0.035  1.00  0.00     0.096 A 
HETATM    5  C   LIG     1      -1.304   0.573   0.035  1.00  0.00     0.091 A 
HETATM    6  N   LIG     1       1.070   0.799  -0.033  1.00  0.00    -0.300 N 
HETATM    7  C   LIG     1      -0.163   1.375   0.000  1.00  0.00     0.248 A 
HETATM    8  O   LIG     1      -0.276   2.630  -0.001  1.00  0.00    -0.268 OA
HETATM    9  H   LIG     1       0.199  -2.393   0.002  1.00  0.00     0.167 HD
HETATM   10  H   LIG     1       1.919   1.410  -0.059  1.00  0.00     0.171 HD
ENDROOT
TORSDOF 0
