MODEL 1
REMARK VINA RESULT:      -4.9      0.000      0.000
REMARK  0 active torsions:
REMARK  status: ('A' for Active; 'I' for Inactive)
ROOT
HETATM    1  S   LIG     1      17.050  38.954  22.885  1.00  0.00    -0.040 SA
HETATM    2  C   LIG     1      17.900  38.397  21.598  1.00  0.00     0.178 A 
HETATM    3  N   LIG     1      17.676  37.138  21.126  1.00  0.00    -0.343 N 
HETATM    4  C   LIG     1      18.371  36.661  20.061  1.00  0.00     0.096 A 
HETATM    5  C   LIG     1      19.326  37.461  19.436  1.00  0.00     0.091 A 
HETATM    6  N   LIG     1      18.830  39.194  20.999  1.00  0.00    -0.300 N 
HETATM    7  C   LIG     1      19.544  38.747  19.929  1.00  0.00     0.248 A 
HETATM    8  O   LIG     1      20.401  39.493  19.384  1.00  0.00    -0.268 OA
HETATM    9  H   LIG     1      16.965  36.523  21.581  1.00  0.00     0.167 HD
HETATM   10  H   LIG     1      19.001  40.160  21.360  1.00  0.00     0.171 HD
ENDROOT
TORSDOF 0
ENDMDL
MODEL 2
REMARK VINA RESULT:      -4.8      4.560      5.255
REMARK  0 active torsions:
REMARK  status: ('A' for Active; 'I' for Inactive)
ROOT
HETATM    1  S   LIG     1      16.536  35.229  22.036  1.00  0.00    -0.040 SA
HETATM    2  C   LIG     1      16.966  35.737  23.534  1.00  0.00     0.178 A 
HETATM    3  N   LIG     1      17.384  34.835  24.466  1.00  0.00    -0.343 N 
HETATM    4  C   LIG     1      17.744  35.239  25.713  1.00  0.00     0.096 A 
HETATM    5  C   LIG     1      17.691  36.590  26.051  1.00  0.00     0.091 A 
HETATM    6  N   LIG     1      16.908  37.063  23.847  1.00  0.00    -0.300 N 
HETATM    7  C   LIG     1      17.262  37.502  25.086  1.00  0.00     0.248 A 
HETATM    8  O   LIG     1      17.204  38.730  25.363  1.00  0.00    -0.268 OA
HETATM    9  H   LIG     1      17.430  33.818  24.232  1.00  0.00     0.167 HD
HETATM   10  H   LIG     1      16.589  37.755  23.131  1.00  0.00     0.171 HD
ENDROOT
TORSDOF 0
ENDMDL
MODEL 3
REMARK VINA RESULT:      -4.7      4.772      5.626
REMARK  0 active torsions:
REMARK  status: ('A' for Active; 'I' for Inactive)
ROOT
HETATM    1  S   LIG     1      16.372  36.059  22.014  1.00  0.00    -0.040 SA
HETATM    2  C   LIG     1      16.915  36.382  23.526  1.00  0.00     0.178 A 
HETATM    3  N   LIG     1      16.971  37.670  23.970  1.00  0.00    -0.343 N 
HETATM    4  C   LIG     1      17.419  37.955  25.221  1.00  0.00     0.096 A 
HETATM    5  C   LIG     1      17.826  36.927  26.068  1.00  0.00     0.091 A 
HETATM    6  N   LIG     1      17.309  35.363  24.342  1.00  0.00    -0.300 N 
HETATM    7  C   LIG     1      17.762  35.614  25.601  1.00  0.00     0.248 A 
HETATM    8  O   LIG     1      18.124  34.663  26.345  1.00  0.00    -0.268 OA
HETATM    9  H   LIG     1      16.671  38.455  23.350  1.00  0.00     0.167 HD
HETATM   10  H   LIG     1      17.265  34.375  24.002  1.00  0.00     0.171 HD
ENDROOT
TORSDOF 0
ENDMDL
MODEL 4
REMARK VINA RESULT:      -4.7      3.016      3.546
REMARK  0 active torsions:
REMARK  status: ('A' for Active; 'I' for Inactive)
ROOT
HETATM    1  S   LIG     1      19.023  39.300  20.518  1.00  0.00    -0.040 SA
HETATM    2  C   LIG     1      18.037  38.199  21.228  1.00  0.00     0.178 A 
HETATM    3  N   LIG     1      17.960  36.932  20.730  1.00  0.00    -0.343 N 
HETATM    4  C   LIG     1      17.148  36.007  21.306  1.00  0.00     0.096 A 
HETATM    5  C   LIG     1      16.382  36.347  22.419  1.00  0.00     0.091 A 
HETATM    6  N   LIG     1      17.296  38.549  22.316  1.00  0.00    -0.300 N 
HETATM    7  C   LIG     1      16.472  37.647  22.918  1.00  0.00     0.248 A 
HETATM    8  O   LIG     1      15.791  37.984  23.923  1.00  0.00    -0.268 OA
HETATM    9  H   LIG     1      18.526  36.658  19.896  1.00  0.00     0.167 HD
HETATM   10  H   LIG     1      17.355  39.521  22.699  1.00  0.00     0.171 HD
ENDROOT
TORSDOF 0
ENDMDL
MODEL 5
REMARK VINA RESULT:      -4.6      7.278      7.946
REMARK  0 active torsions:
REMARK  status: ('A' for Active; 'I' for Inactive)
ROOT
HETATM    1  S   LIG     1      15.322  32.811  19.989  1.00  0.00    -0.040 SA
HETATM    2  C   LIG     1      14.969  32.355  18.455  1.00  0.00     0.178 A 
HETATM    3  N   LIG     1      14.007  31.416  18.227  1.00  0.00    -0.343 N 
HETATM    4  C   LIG     1      13.702  31.026  16.961  1.00  0.00     0.096 A 
HETATM    5  C   LIG     1      14.374  31.588  15.877  1.00  0.00     0.091 A 
HETATM    6  N   LIG     1      15.635  32.915  17.406  1.00  0.00    -0.300 N 
HETATM    7  C   LIG     1      15.354  32.548  16.126  1.00  0.00     0.248 A 
HETATM    8  O   LIG     1      15.978  33.074  15.165  1.00  0.00    -0.268 OA
HETATM    9  H   LIG     1      13.493  30.982  19.026  1.00  0.00     0.167 HD
HETATM   10  H   LIG     1      16.372  33.637  17.581  1.00  0.00     0.171 HD
ENDROOT
TORSDOF 0
ENDMDL
MODEL 6
REMARK VINA RESULT:      -4.5      1.541      2.235
REMARK  0 active torsions:
REMARK  status: ('A' for Active; 'I' for Inactive)
ROOT
HETATM    1  S   LIG     1      16.695  37.730  23.421  1.00  0.00    -0.040 SA
HETATM    2  C   LIG     1      17.585  38.027  22.076  1.00  0.00     0.178 A 
HETATM    3  N   LIG     1      18.176  39.243  21.905  1.00  0.00    -0.343 N 
HETATM    4  C   LIG     1      18.917  39.507  20.796  1.00  0.00     0.096 A 
HETATM    5  C   LIG     1      19.080  38.528  19.818  1.00  0.00     0.091 A 
HETATM    6  N   LIG     1      17.734  37.058  21.129  1.00  0.00    -0.300 N 
HETATM    7  C   LIG     1      18.470  37.288  20.007  1.00  0.00     0.248 A 
HETATM    8  O   LIG     1      18.600  36.384  19.139  1.00  0.00    -0.268 OA
HETATM    9  H   LIG     1      18.065  39.991  22.626  1.00  0.00     0.167 HD
HETATM   10  H   LIG     1      17.281  36.125  21.261  1.00  0.00     0.171 HD
ENDROOT
TORSDOF 0
ENDMDL
MODEL 7
REMARK VINA RESULT:      -4.4      5.344      5.988
REMARK  0 active torsions:
REMARK  status: ('A' for Active; 'I' for Inactive)
ROOT
HETATM    1  S   LIG     1      15.900  35.270  21.125  1.00  0.00    -0.040 SA
HETATM    2  C   LIG     1      15.540  34.323  19.836  1.00  0.00     0.178 A 
HETATM    3  N   LIG     1      15.237  33.007  20.021  1.00  0.00    -0.343 N 
HETATM    4  C   LIG     1      14.937  32.207  18.964  1.00  0.00     0.096 A 
HETATM    5  C   LIG     1      14.933  32.729  17.673  1.00  0.00     0.091 A 
HETATM    6  N   LIG     1      15.541  34.851  18.580  1.00  0.00    -0.300 N 
HETATM    7  C   LIG     1      15.244  34.078  17.499  1.00  0.00     0.248 A 
HETATM    8  O   LIG     1      15.249  34.578  16.342  1.00  0.00    -0.268 OA
HETATM    9  H   LIG     1      15.235  32.596  20.982  1.00  0.00     0.167 HD
HETATM   10  H   LIG     1      15.772  35.861  18.438  1.00  0.00     0.171 HD
ENDROOT
TORSDOF 0
ENDMDL
MODEL 8
REMARK VINA RESULT:      -4.3      2.795      3.492
REMARK  0 active torsions:
REMARK  status: ('A' for Active; 'I' for Inactive)
ROOT
HETATM    1  S   LIG     1      19.920  38.807  19.644  1.00  0.00    -0.040 SA
HETATM    2  C   LIG     1      18.734  38.080  20.511  1.00  0.00     0.178 A 
HETATM    3  N   LIG     1      18.210  38.702  21.605  1.00  0.00    -0.343 N 
HETATM    4  C   LIG     1      17.227  38.114  22.336  1.00  0.00     0.096 A 
HETATM    5  C   LIG     1      16.741  36.860  21.970  1.00  0.00     0.091 A 
HETATM    6  N   LIG     1      18.270  36.854  20.138  1.00  0.00    -0.300 N 
HETATM    7  C   LIG     1      17.286  36.236  20.847  1.00  0.00     0.248 A 
HETATM    8  O   LIG     1      16.866  35.102  20.493  1.00  0.00    -0.268 OA
HETATM    9  H   LIG     1      18.562  39.642  21.896  1.00  0.00     0.167 HD
HETATM   10  H   LIG     1      18.671  36.376  19.298  1.00  0.00     0.171 HD
ENDROOT
TORSDOF 0
ENDMDL
MODEL 9
REMARK VINA RESULT:      -4.2      3.194      3.819
REMARK  0 active torsions:
REMARK  status: ('A' for Active; 'I' for Inactive)
ROOT
HETATM    1  S   LIG     1      17.478  37.747  25.635  1.00  0.00    -0.040 SA
HETATM    2  C   LIG     1      17.413  37.448  24.024  1.00  0.00     0.178 A 
HETATM    3  N   LIG     1      17.783  38.415  23.136  1.00  0.00    -0.343 N 
HETATM    4  C   LIG     1      17.734  38.184  21.798  1.00  0.00     0.096 A 
HETATM    5  C   LIG     1      17.306  36.949  21.318  1.00  0.00     0.091 A 
HETATM    6  N   LIG     1      16.992  36.234  23.572  1.00  0.00    -0.300 N 
HETATM    7  C   LIG     1      16.932  35.969  22.238  1.00  0.00     0.248 A 
HETATM    8  O   LIG     1      16.540  34.842  21.833  1.00  0.00    -0.268 OA
HETATM    9  H   LIG     1      18.106  39.348  23.476  1.00  0.00     0.167 HD
HETATM   10  H   LIG     1      16.709  35.492  24.253  1.00  0.00     0.171 HD
ENDROOT
TORSDOF 0
ENDMDL
MODEL 10
REMARK VINA RESULT:      -4.2      8.448      9.022
REMARK  0 active torsions:
REMARK  status: ('A' for Active; 'I' for Inactive)
ROOT
HETATM    1  S   LIG     1      15.243  30.183  13.809  1.00  0.00    -0.040 SA
HETATM    2  C   LIG     1      15.000  31.202  15.069  1.00  0.00     0.178 A 
HETATM    3  N   LIG     1      14.127  30.864  16.061  1.00  0.00    -0.343 N 
HETATM    4  C   LIG     1      13.913  31.698  17.113  1.00  0.00     0.096 A 
HETATM    5  C   LIG     1      14.589  32.913  17.188  1.00  0.00     0.091 A 
HETATM    6  N   LIG     1      15.670  32.387  15.128  1.00  0.00    -0.300 N 
HETATM    7  C   LIG     1      15.480  33.245  16.167  1.00  0.00     0.248 A 
HETATM    8  O   LIG     1      16.105  34.338  16.209  1.00  0.00    -0.268 OA
HETATM    9  H   LIG     1      13.610  29.957  16.022  1.00  0.00     0.167 HD
HETATM   10  H   LIG     1      16.340  32.647  14.367  1.00  0.00     0.171 HD
ENDROOT
TORSDOF 0
ENDMDL
MODEL 11
REMARK VINA RESULT:      -4.1      8.617      9.399
REMARK  0 active torsions:
REMARK  status: ('A' for Active; 'I' for Inactive)
ROOT
HETATM    1  S   LIG     1      17.313  33.020  14.835  1.00  0.00    -0.040 SA
HETATM    2  C   LIG     1      16.003  32.390  15.593  1.00  0.00     0.178 A 
HETATM    3  N   LIG     1      15.674  32.811  16.847  1.00  0.00    -0.343 N 
HETATM    4  C   LIG     1      14.591  32.299  17.491  1.00  0.00     0.096 A 
HETATM    5  C   LIG     1      13.802  31.334  16.869  1.00  0.00     0.091 A 
HETATM    6  N   LIG     1      15.242  31.447  14.970  1.00  0.00    -0.300 N 
HETATM    7  C   LIG     1      14.151  30.913  15.586  1.00  0.00     0.248 A 
HETATM    8  O   LIG     1      13.456  30.041  14.999  1.00  0.00    -0.268 OA
HETATM    9  H   LIG     1      16.253  33.533  17.331  1.00  0.00     0.167 HD
HETATM   10  H   LIG     1      15.494  31.124  14.007  1.00  0.00     0.171 HD
ENDROOT
TORSDOF 0
ENDMDL
MODEL 12
REMARK VINA RESULT:      -3.9      3.060      3.641
REMARK  0 active torsions:
REMARK  status: ('A' for Active; 'I' for Inactive)
ROOT
HETATM    1  S   LIG     1      19.082  39.526  16.872  1.00  0.00    -0.040 SA
HETATM    2  C   LIG     1      18.873  38.963  18.397  1.00  0.00     0.178 A 
HETATM    3  N   LIG     1      19.098  39.783  19.463  1.00  0.00    -0.343 N 
HETATM    4  C   LIG     1      18.930  39.333  20.734  1.00  0.00     0.096 A 
HETATM    5  C   LIG     1      18.521  38.021  20.962  1.00  0.00     0.091 A 
HETATM    6  N   LIG     1      18.471  37.677  18.601  1.00  0.00    -0.300 N 
HETATM    7  C   LIG     1      18.292  37.194  19.862  1.00  0.00     0.248 A 
HETATM    8  O   LIG     1      17.922  36.003  20.037  1.00  0.00    -0.268 OA
HETATM    9  H   LIG     1      19.406  40.770  19.313  1.00  0.00     0.167 HD
HETATM   10  H   LIG     1      18.297  37.048  17.784  1.00  0.00     0.171 HD
ENDROOT
TORSDOF 0
ENDMDL
MODEL 13
REMARK VINA RESULT:      -3.9      3.566      4.255
REMARK  0 active torsions:
REMARK  status: ('A' for Active; 'I' for Inactive)
ROOT
HETATM    1  S   LIG     1      17.272  39.265  22.455  1.00  0.00    -0.040 SA
HETATM    2  C   LIG     1      17.184  37.701  22.939  1.00  0.00     0.178 A 
HETATM    3  N   LIG     1      17.380  37.382  24.250  1.00  0.00    -0.343 N 
HETATM    4  C   LIG     1      17.311  36.091  24.669  1.00  0.00     0.096 A 
HETATM    5  C   LIG     1      17.036  35.075  23.756  1.00  0.00     0.091 A 
HETATM    6  N   LIG     1      16.913  36.720  22.033  1.00  0.00    -0.300 N 
HETATM    7  C   LIG     1      16.837  35.417  22.418  1.00  0.00     0.248 A 
HETATM    8  O   LIG     1      16.586  34.519  21.570  1.00  0.00    -0.268 OA
HETATM    9  H   LIG     1      17.588  38.129  24.950  1.00  0.00     0.167 HD
HETATM   10  H   LIG     1      16.762  36.965  21.027  1.00  0.00     0.171 HD
ENDROOT
TORSDOF 0
ENDMDL
MODEL 14
REMARK VINA RESULT:      -3.8      2.936      3.846
REMARK  0 active torsions:
REMARK  status: ('A' for Active; 'I' for Inactive)
ROOT
HETATM    1  S   LIG     1      19.037  36.943  19.354  1.00  0.00    -0.040 SA
HETATM    2  C   LIG     1      18.371  37.675  20.661  1.00  0.00     0.178 A 
HETATM    3  N   LIG     1      18.914  38.828  21.147  1.00  0.00    -0.343 N 
HETATM    4  C   LIG     1      18.375  39.448  22.230  1.00  0.00     0.096 A 
HETATM    5  C   LIG     1      17.253  38.908  22.856  1.00  0.00     0.091 A 
HETATM    6  N   LIG     1      17.274  37.134  21.261  1.00  0.00    -0.300 N 
HETATM    7  C   LIG     1      16.708  37.729  22.347  1.00  0.00     0.248 A 
HETATM    8  O   LIG     1      15.694  37.218  22.893  1.00  0.00    -0.268 OA
HETATM    9  H   LIG     1      19.755  39.248  20.692  1.00  0.00     0.167 HD
HETATM   10  H   LIG     1      16.857  36.250  20.887  1.00  0.00     0.171 HD
ENDROOT
TORSDOF 0
ENDMDL
MODEL 15
REMARK VINA RESULT:      -3.8      2.806      3.038
REMARK  0 active torsions:
REMARK  status: ('A' for Active; 'I' for Inactive)
ROOT
HETATM    1  S   LIG     1      19.246  39.594  17.114  1.00  0.00    -0.040 SA
HETATM    2  C   LIG     1      18.891  38.859  18.536  1.00  0.00     0.178 A 
HETATM    3  N   LIG     1      18.611  37.525  18.563  1.00  0.00    -0.343 N 
HETATM    4  C   LIG     1      18.314  36.900  19.733  1.00  0.00     0.096 A 
HETATM    5  C   LIG     1      18.296  37.622  20.924  1.00  0.00     0.091 A 
HETATM    6  N   LIG     1      18.878  39.580  19.693  1.00  0.00    -0.300 N 
HETATM    7  C   LIG     1      18.586  38.986  20.882  1.00  0.00     0.248 A 
HETATM    8  O   LIG     1      18.576  39.664  21.944  1.00  0.00    -0.268 OA
HETATM    9  H   LIG     1      18.619  36.966  17.680  1.00  0.00     0.167 HD
HETATM   10  H   LIG     1      19.094  40.604  19.672  1.00  0.00     0.171 HD
ENDROOT
TORSDOF 0
ENDMDL
MODEL 16
REMARK VINA RESULT:      -3.7      9.205      9.719
REMARK  0 active torsions:
REMARK  status: ('A' for Active; 'I' for Inactive)
ROOT
HETATM    1  S   LIG     1      17.384  33.266  13.311  1.00  0.00    -0.040 SA
HETATM    2  C   LIG     1      18.710  33.776  12.494  1.00  0.00     0.178 A 
HETATM    3  N   LIG     1      18.602  34.157  11.190  1.00  0.00    -0.343 N 
HETATM    4  C   LIG     1      19.691  34.583  10.497  1.00  0.00     0.096 A 
HETATM    5  C   LIG     1      20.937  34.635  11.119  1.00  0.00     0.091 A 
HETATM    6  N   LIG     1      19.921  33.822  13.118  1.00  0.00    -0.300 N 
HETATM    7  C   LIG     1      21.032  34.243  12.454  1.00  0.00     0.248 A 
HETATM    8  O   LIG     1      22.146  34.280  13.043  1.00  0.00    -0.268 OA
HETATM    9  H   LIG     1      17.677  34.125  10.705  1.00  0.00     0.167 HD
HETATM   10  H   LIG     1      20.004  33.530  14.120  1.00  0.00     0.171 HD
ENDROOT
TORSDOF 0
ENDMDL
MODEL 17
REMARK VINA RESULT:      -3.6     16.132     16.867
REMARK  0 active torsions:
REMARK  status: ('A' for Active; 'I' for Inactive)
ROOT
HETATM    1  S   LIG     1      15.725  26.488  10.904  1.00  0.00    -0.040 SA
HETATM    2  C   LIG     1      14.181  25.946  11.007  1.00  0.00     0.178 A 
HETATM    3  N   LIG     1      13.720  25.027  10.112  1.00  0.00    -0.343 N 
HETATM    4  C   LIG     1      12.443  24.568  10.182  1.00  0.00     0.096 A 
HETATM    5  C   LIG     1      11.588  25.034  11.178  1.00  0.00     0.091 A 
HETATM    6  N   LIG     1      13.358  26.413  11.988  1.00  0.00    -0.300 N 
HETATM    7  C   LIG     1      12.074  25.974  12.088  1.00  0.00     0.248 A 
HETATM    8  O   LIG     1      11.323  26.413  12.999  1.00  0.00    -0.268 OA
HETATM    9  H   LIG     1      14.346  24.666   9.357  1.00  0.00     0.167 HD
HETATM   10  H   LIG     1      13.712  27.117  12.676  1.00  0.00     0.171 HD
ENDROOT
TORSDOF 0
ENDMDL
MODEL 18
REMARK VINA RESULT:      -3.4      8.578      9.300
REMARK  0 active torsions:
REMARK  status: ('A' for Active; 'I' for Inactive)
ROOT
HETATM    1  S   LIG     1      12.951  30.346  15.961  1.00  0.00    -0.040 SA
HETATM    2  C   LIG     1      14.251  31.308  15.692  1.00  0.00     0.178 A 
HETATM    3  N   LIG     1      14.602  32.252  16.610  1.00  0.00    -0.343 N 
HETATM    4  C   LIG     1      15.677  33.058  16.403  1.00  0.00     0.096 A 
HETATM    5  C   LIG     1      16.435  32.925  15.242  1.00  0.00     0.091 A 
HETATM    6  N   LIG     1      14.982  31.164  14.550  1.00  0.00    -0.300 N 
HETATM    7  C   LIG     1      16.064  31.954  14.311  1.00  0.00     0.248 A 
HETATM    8  O   LIG     1      16.732  31.811  13.252  1.00  0.00    -0.268 OA
HETATM    9  H   LIG     1      14.046  32.368  17.487  1.00  0.00     0.167 HD
HETATM   10  H   LIG     1      14.713  30.438  13.846  1.00  0.00     0.171 HD
ENDROOT
TORSDOF 0
ENDMDL
MODEL 19
REMARK VINA RESULT:      -3.4      8.559      9.136
REMARK  0 active torsions:
REMARK  status: ('A' for Active; 'I' for Inactive)
ROOT
HETATM    1  S   LIG     1      15.247  30.637  13.618  1.00  0.00    -0.040 SA
HETATM    2  C   LIG     1      16.148  31.977  13.902  1.00  0.00     0.178 A 
HETATM    3  N   LIG     1      16.190  32.518  15.152  1.00  0.00    -0.343 N 
HETATM    4  C   LIG     1      16.932  33.629  15.404  1.00  0.00     0.096 A 
HETATM    5  C   LIG     1      17.663  34.227  14.380  1.00  0.00     0.091 A 
HETATM    6  N   LIG     1      16.858  32.548  12.888  1.00  0.00    -0.300 N 
HETATM    7  C   LIG     1      17.611  33.661  13.106  1.00  0.00     0.248 A 
HETATM    8  O   LIG     1      18.262  34.180  12.161  1.00  0.00    -0.268 OA
HETATM    9  H   LIG     1      15.648  32.085  15.933  1.00  0.00     0.167 HD
HETATM   10  H   LIG     1      16.827  32.132  11.929  1.00  0.00     0.171 HD
ENDROOT
TORSDOF 0
ENDMDL
MODEL 20
REMARK VINA RESULT:      -3.2     10.000     10.618
REMARK  0 active torsions:
REMARK  status: ('A' for Active; 'I' for Inactive)
ROOT
HETATM    1  S   LIG     1      30.501  38.148  21.745  1.00  0.00    -0.040 SA
HETATM    2  C   LIG     1      29.626  38.253  20.363  1.00  0.00     0.178 A 
HETATM    3  N   LIG     1      30.100  38.976  19.309  1.00  0.00    -0.343 N 
HETATM    4  C   LIG     1      29.388  39.074  18.156  1.00  0.00     0.096 A 
HETATM    5  C   LIG     1      28.158  38.430  18.039  1.00  0.00     0.091 A 
HETATM    6  N   LIG     1      28.425  37.615  20.265  1.00  0.00    -0.300 N 
HETATM    7  C   LIG     1      27.686  37.692  19.125  1.00  0.00     0.248 A 
HETATM    8  O   LIG     1      26.577  37.099  19.048  1.00  0.00    -0.268 OA
HETATM    9  H   LIG     1      31.020  39.467  19.378  1.00  0.00     0.167 HD
HETATM   10  H   LIG     1      28.062  37.059  21.073  1.00  0.00     0.171 HD
ENDROOT
TORSDOF 0
ENDMDL
