REMARK  4 active torsions:
REMARK  status: ('A' for Active; 'I' for Inactive)
REMARK    1  A    between atoms: C_2  and  C_3 
REMARK    2  A    between atoms: C_3  and  C_4 
REMARK    3  A    between atoms: C_4  and  C_5 
REMARK    4  A    between atoms: C_5  and  C_6 
ROOT
HETATM    1  C   LIG     1      -0.182   0.062   0.385  1.00  0.00     0.000 C 
ENDROOT
BRANCH   1   2
HETATM    2  C   LIG     1       1.215  -0.369  -0.078  1.00  0.00    -0.000 C 
BRANCH   2   3
HETATM    3  C   LIG     1       2.291   0.578   0.465  1.00  0.00    -0.005 C 
HETATM    4  C   LIG     1       3.683   0.152   0.007  1.00  0.00     0.005 C 
ENDBRANCH   2   3
ENDBRANCH   1   2
BRANCH   1   5
HETATM    5  C   LIG     1      -1.260  -0.882  -0.168  1.00  0.00    -0.000 C 
BRANCH   5   6
HETATM    6  C   LIG     1      -2.662  -0.559   0.371  1.00  0.00    -0.005 C 
HETATM    7  C   LIG     1      -3.226   0.745  -0.194  1.00  0.00     0.005 C 
ENDBRANCH   5   6
ENDBRANCH   1   5
TORSDOF 4
