MODEL 1
REMARK VINA RESULT:      -4.6      0.000      0.000
REMARK  0 active torsions:
REMARK  status: ('A' for Active; 'I' for Inactive)
ROOT
HETATM    1  C   LIG     1      18.330  36.268  26.844  1.00  0.00     0.004 C 
HETATM    2  C   LIG     1      18.276  34.880  26.202  1.00  0.00     0.026 C 
HETATM    3  C   LIG     1      17.132  34.818  25.182  1.00  0.00     0.167 C 
HETATM    4  O   LIG     1      17.283  35.819  24.191  1.00  0.00    -0.391 OA
HETATM    5  C   LIG     1      17.173  37.103  24.780  1.00  0.00     0.167 C 
HETATM    6  C   LIG     1      18.321  37.354  25.765  1.00  0.00     0.026 C 
ENDROOT
TORSDOF 0
ENDMDL
MODEL 2
REMARK VINA RESULT:      -4.5      0.826      2.046
REMARK  0 active torsions:
REMARK  status: ('A' for Active; 'I' for Inactive)
ROOT
HETATM    1  C   LIG     1      18.338  34.927  26.226  1.00  0.00     0.004 C 
HETATM    2  C   LIG     1      18.337  36.326  26.843  1.00  0.00     0.026 C 
HETATM    3  C   LIG     1      18.247  37.387  25.739  1.00  0.00     0.167 C 
HETATM    4  O   LIG     1      17.091  37.192  24.945  1.00  0.00    -0.391 OA
HETATM    5  C   LIG     1      17.179  35.959  24.254  1.00  0.00     0.167 C 
HETATM    6  C   LIG     1      17.180  34.781  25.236  1.00  0.00     0.026 C 
ENDROOT
TORSDOF 0
ENDMDL
MODEL 3
REMARK VINA RESULT:      -4.4      1.146      2.426
REMARK  0 active torsions:
REMARK  status: ('A' for Active; 'I' for Inactive)
ROOT
HETATM    1  C   LIG     1      17.182  34.772  25.325  1.00  0.00     0.004 C 
HETATM    2  C   LIG     1      17.195  35.830  24.220  1.00  0.00     0.026 C 
HETATM    3  C   LIG     1      17.332  37.229  24.835  1.00  0.00     0.167 C 
HETATM    4  O   LIG     1      18.504  37.320  25.626  1.00  0.00    -0.391 OA
HETATM    5  C   LIG     1      18.408  36.445  26.736  1.00  0.00     0.167 C 
HETATM    6  C   LIG     1      18.360  34.983  26.278  1.00  0.00     0.026 C 
ENDROOT
TORSDOF 0
ENDMDL
MODEL 4
REMARK VINA RESULT:      -4.3      0.843      2.052
REMARK  0 active torsions:
REMARK  status: ('A' for Active; 'I' for Inactive)
ROOT
HETATM    1  C   LIG     1      18.362  37.269  25.649  1.00  0.00     0.004 C 
HETATM    2  C   LIG     1      17.191  36.970  24.712  1.00  0.00     0.026 C 
HETATM    3  C   LIG     1      17.183  35.482  24.339  1.00  0.00     0.167 C 
HETATM    4  O   LIG     1      17.112  34.671  25.499  1.00  0.00    -0.391 OA
HETATM    5  C   LIG     1      18.280  34.842  26.281  1.00  0.00     0.167 C 
HETATM    6  C   LIG     1      18.378  36.276  26.814  1.00  0.00     0.026 C 
ENDROOT
TORSDOF 0
ENDMDL
MODEL 5
REMARK VINA RESULT:      -4.1      5.221      6.146
REMARK  0 active torsions:
REMARK  status: ('A' for Active; 'I' for Inactive)
ROOT
HETATM    1  C   LIG     1      18.336  36.957  20.506  1.00  0.00     0.004 C 
HETATM    2  C   LIG     1      17.768  38.119  21.323  1.00  0.00     0.026 C 
HETATM    3  C   LIG     1      18.827  39.218  21.479  1.00  0.00     0.167 C 
HETATM    4  O   LIG     1      19.276  39.670  20.214  1.00  0.00    -0.391 OA
HETATM    5  C   LIG     1      19.941  38.621  19.533  1.00  0.00     0.167 C 
HETATM    6  C   LIG     1      18.974  37.475  19.215  1.00  0.00     0.026 C 
ENDROOT
TORSDOF 0
ENDMDL
MODEL 6
REMARK VINA RESULT:      -4.0      2.022      3.041
REMARK  0 active torsions:
REMARK  status: ('A' for Active; 'I' for Inactive)
ROOT
HETATM    1  C   LIG     1      17.092  35.481  22.908  1.00  0.00     0.004 C 
HETATM    2  C   LIG     1      17.082  35.571  24.435  1.00  0.00     0.026 C 
HETATM    3  C   LIG     1      17.217  37.034  24.876  1.00  0.00     0.167 C 
HETATM    4  O   LIG     1      16.180  37.825  24.324  1.00  0.00    -0.391 OA
HETATM    5  C   LIG     1      16.297  37.861  22.913  1.00  0.00     0.167 C 
HETATM    6  C   LIG     1      16.086  36.467  22.310  1.00  0.00     0.026 C 
ENDROOT
TORSDOF 0
ENDMDL
MODEL 7
REMARK VINA RESULT:      -4.0      5.013      6.026
REMARK  0 active torsions:
REMARK  status: ('A' for Active; 'I' for Inactive)
ROOT
HETATM    1  C   LIG     1      19.342  38.397  19.225  1.00  0.00     0.004 C 
HETATM    2  C   LIG     1      19.225  39.262  20.481  1.00  0.00     0.026 C 
HETATM    3  C   LIG     1      17.960  38.885  21.262  1.00  0.00     0.167 C 
HETATM    4  O   LIG     1      17.967  37.510  21.603  1.00  0.00    -0.391 OA
HETATM    5  C   LIG     1      17.916  36.720  20.429  1.00  0.00     0.167 C 
HETATM    6  C   LIG     1      19.178  36.917  19.580  1.00  0.00     0.026 C 
ENDROOT
TORSDOF 0
ENDMDL
MODEL 8
REMARK VINA RESULT:      -3.9      2.354      3.679
REMARK  0 active torsions:
REMARK  status: ('A' for Active; 'I' for Inactive)
ROOT
HETATM    1  C   LIG     1      18.251  38.554  22.860  1.00  0.00     0.004 C 
HETATM    2  C   LIG     1      16.873  38.960  22.332  1.00  0.00     0.026 C 
HETATM    3  C   LIG     1      15.815  37.952  22.799  1.00  0.00     0.167 C 
HETATM    4  O   LIG     1      15.799  37.855  24.213  1.00  0.00    -0.391 OA
HETATM    5  C   LIG     1      17.029  37.328  24.676  1.00  0.00     0.167 C 
HETATM    6  C   LIG     1      18.187  38.284  24.364  1.00  0.00     0.026 C 
ENDROOT
TORSDOF 0
ENDMDL
MODEL 9
REMARK VINA RESULT:      -3.9      1.239      2.642
REMARK  0 active torsions:
REMARK  status: ('A' for Active; 'I' for Inactive)
ROOT
HETATM    1  C   LIG     1      17.177  36.851  24.596  1.00  0.00     0.004 C 
HETATM    2  C   LIG     1      18.355  37.337  25.442  1.00  0.00     0.026 C 
HETATM    3  C   LIG     1      18.411  36.557  26.761  1.00  0.00     0.167 C 
HETATM    4  O   LIG     1      18.511  35.165  26.521  1.00  0.00    -0.391 OA
HETATM    5  C   LIG     1      17.340  34.699  25.876  1.00  0.00     0.167 C 
HETATM    6  C   LIG     1      17.196  35.325  24.483  1.00  0.00     0.026 C 
ENDROOT
TORSDOF 0
ENDMDL
MODEL 10
REMARK VINA RESULT:      -3.9      4.846      5.734
REMARK  0 active torsions:
REMARK  status: ('A' for Active; 'I' for Inactive)
ROOT
HETATM    1  C   LIG     1      19.783  38.303  19.577  1.00  0.00     0.004 C 
HETATM    2  C   LIG     1      18.821  37.148  19.295  1.00  0.00     0.026 C 
HETATM    3  C   LIG     1      18.177  36.670  20.602  1.00  0.00     0.167 C 
HETATM    4  O   LIG     1      17.503  37.733  21.252  1.00  0.00    -0.391 OA
HETATM    5  C   LIG     1      18.432  38.725  21.648  1.00  0.00     0.167 C 
HETATM    6  C   LIG     1      19.096  39.373  20.428  1.00  0.00     0.026 C 
ENDROOT
TORSDOF 0
ENDMDL
MODEL 11
REMARK VINA RESULT:      -3.8      4.562      5.420
REMARK  0 active torsions:
REMARK  status: ('A' for Active; 'I' for Inactive)
ROOT
HETATM    1  C   LIG     1      18.314  38.457  21.583  1.00  0.00     0.004 C 
HETATM    2  C   LIG     1      18.819  38.513  20.140  1.00  0.00     0.026 C 
HETATM    3  C   LIG     1      19.063  37.093  19.614  1.00  0.00     0.167 C 
HETATM    4  O   LIG     1      17.884  36.313  19.699  1.00  0.00    -0.391 OA
HETATM    5  C   LIG     1      17.516  36.137  21.056  1.00  0.00     0.167 C 
HETATM    6  C   LIG     1      17.144  37.478  21.700  1.00  0.00     0.026 C 
ENDROOT
TORSDOF 0
ENDMDL
MODEL 12
REMARK VINA RESULT:      -3.7      4.958      5.766
REMARK  0 active torsions:
REMARK  status: ('A' for Active; 'I' for Inactive)
ROOT
HETATM    1  C   LIG     1      17.617  37.350  21.090  1.00  0.00     0.004 C 
HETATM    2  C   LIG     1      18.618  36.789  20.079  1.00  0.00     0.026 C 
HETATM    3  C   LIG     1      19.189  37.926  19.221  1.00  0.00     0.167 C 
HETATM    4  O   LIG     1      19.800  38.914  20.033  1.00  0.00    -0.391 OA
HETATM    5  C   LIG     1      18.828  39.534  20.854  1.00  0.00     0.167 C 
HETATM    6  C   LIG     1      18.228  38.531  21.847  1.00  0.00     0.026 C 
ENDROOT
TORSDOF 0
ENDMDL
MODEL 13
REMARK VINA RESULT:      -3.7     11.373     12.404
REMARK  0 active torsions:
REMARK  status: ('A' for Active; 'I' for Inactive)
ROOT
HETATM    1  C   LIG     1      13.446  30.404  15.229  1.00  0.00     0.004 C 
HETATM    2  C   LIG     1      14.252  29.532  14.264  1.00  0.00     0.026 C 
HETATM    3  C   LIG     1      15.316  30.380  13.555  1.00  0.00     0.167 C 
HETATM    4  O   LIG     1      16.171  31.006  14.495  1.00  0.00    -0.391 OA
HETATM    5  C   LIG     1      15.437  31.929  15.278  1.00  0.00     0.167 C 
HETATM    6  C   LIG     1      14.385  31.209  16.130  1.00  0.00     0.026 C 
ENDROOT
TORSDOF 0
ENDMDL
MODEL 14
REMARK VINA RESULT:      -3.6      3.523      4.294
REMARK  0 active torsions:
REMARK  status: ('A' for Active; 'I' for Inactive)
ROOT
HETATM    1  C   LIG     1      17.467  36.894  21.406  1.00  0.00     0.004 C 
HETATM    2  C   LIG     1      16.144  36.858  22.174  1.00  0.00     0.026 C 
HETATM    3  C   LIG     1      16.253  37.708  23.446  1.00  0.00     0.167 C 
HETATM    4  O   LIG     1      16.611  39.042  23.133  1.00  0.00    -0.391 OA
HETATM    5  C   LIG     1      17.908  39.075  22.565  1.00  0.00     0.167 C 
HETATM    6  C   LIG     1      17.935  38.339  21.220  1.00  0.00     0.026 C 
ENDROOT
TORSDOF 0
ENDMDL
MODEL 15
REMARK VINA RESULT:      -3.6      1.525      3.226
REMARK  0 active torsions:
REMARK  status: ('A' for Active; 'I' for Inactive)
ROOT
HETATM    1  C   LIG     1      16.537  36.525  22.699  1.00  0.00     0.004 C 
HETATM    2  C   LIG     1      17.198  37.693  23.433  1.00  0.00     0.026 C 
HETATM    3  C   LIG     1      17.186  37.436  24.946  1.00  0.00     0.167 C 
HETATM    4  O   LIG     1      17.840  36.218  25.256  1.00  0.00    -0.391 OA
HETATM    5  C   LIG     1      17.126  35.130  24.699  1.00  0.00     0.167 C 
HETATM    6  C   LIG     1      17.133  35.196  23.167  1.00  0.00     0.026 C 
ENDROOT
TORSDOF 0
ENDMDL
MODEL 16
REMARK VINA RESULT:      -3.6      2.720      3.960
REMARK  0 active torsions:
REMARK  status: ('A' for Active; 'I' for Inactive)
ROOT
HETATM    1  C   LIG     1      17.622  38.492  21.731  1.00  0.00     0.004 C 
HETATM    2  C   LIG     1      17.765  38.478  23.254  1.00  0.00     0.026 C 
HETATM    3  C   LIG     1      16.770  37.484  23.866  1.00  0.00     0.167 C 
HETATM    4  O   LIG     1      16.963  36.185  23.335  1.00  0.00    -0.391 OA
HETATM    5  C   LIG     1      16.673  36.180  21.949  1.00  0.00     0.167 C 
HETATM    6  C   LIG     1      17.660  37.066  21.179  1.00  0.00     0.026 C 
ENDROOT
TORSDOF 0
ENDMDL
MODEL 17
REMARK VINA RESULT:      -3.6      3.741      4.221
REMARK  0 active torsions:
REMARK  status: ('A' for Active; 'I' for Inactive)
ROOT
HETATM    1  C   LIG     1      18.096  38.605  21.965  1.00  0.00     0.004 C 
HETATM    2  C   LIG     1      17.945  37.473  20.947  1.00  0.00     0.026 C 
HETATM    3  C   LIG     1      17.140  36.320  21.560  1.00  0.00     0.167 C 
HETATM    4  O   LIG     1      15.870  36.768  21.998  1.00  0.00    -0.391 OA
HETATM    5  C   LIG     1      16.022  37.702  23.052  1.00  0.00     0.167 C 
HETATM    6  C   LIG     1      16.734  38.969  22.562  1.00  0.00     0.026 C 
ENDROOT
TORSDOF 0
ENDMDL
MODEL 18
REMARK VINA RESULT:      -3.5     10.223     11.342
REMARK  0 active torsions:
REMARK  status: ('A' for Active; 'I' for Inactive)
ROOT
HETATM    1  C   LIG     1      15.235  31.688  15.059  1.00  0.00     0.004 C 
HETATM    2  C   LIG     1      15.284  32.260  16.476  1.00  0.00     0.026 C 
HETATM    3  C   LIG     1      13.872  32.300  17.076  1.00  0.00     0.167 C 
HETATM    4  O   LIG     1      13.290  31.008  17.080  1.00  0.00    -0.391 OA
HETATM    5  C   LIG     1      13.105  30.556  15.751  1.00  0.00     0.167 C 
HETATM    6  C   LIG     1      14.453  30.372  15.043  1.00  0.00     0.026 C 
ENDROOT
TORSDOF 0
ENDMDL
MODEL 19
REMARK VINA RESULT:      -3.5     10.238     11.321
REMARK  0 active torsions:
REMARK  status: ('A' for Active; 'I' for Inactive)
ROOT
HETATM    1  C   LIG     1      13.549  30.660  15.613  1.00  0.00     0.004 C 
HETATM    2  C   LIG     1      14.834  30.469  14.806  1.00  0.00     0.026 C 
HETATM    3  C   LIG     1      15.604  31.793  14.725  1.00  0.00     0.167 C 
HETATM    4  O   LIG     1      15.898  32.287  16.021  1.00  0.00    -0.391 OA
HETATM    5  C   LIG     1      14.698  32.608  16.700  1.00  0.00     0.167 C 
HETATM    6  C   LIG     1      13.853  31.351  16.944  1.00  0.00     0.026 C 
ENDROOT
TORSDOF 0
ENDMDL
MODEL 20
REMARK VINA RESULT:      -3.5     10.519     11.513
REMARK  0 active torsions:
REMARK  status: ('A' for Active; 'I' for Inactive)
ROOT
HETATM    1  C   LIG     1      14.560  30.212  14.817  1.00  0.00     0.004 C 
HETATM    2  C   LIG     1      13.401  30.634  15.721  1.00  0.00     0.026 C 
HETATM    3  C   LIG     1      13.925  31.482  16.886  1.00  0.00     0.167 C 
HETATM    4  O   LIG     1      14.624  32.619  16.409  1.00  0.00    -0.391 OA
HETATM    5  C   LIG     1      15.784  32.214  15.706  1.00  0.00     0.167 C 
HETATM    6  C   LIG     1      15.413  31.427  14.443  1.00  0.00     0.026 C 
ENDROOT
TORSDOF 0
ENDMDL
