MODEL 1
REMARK VINA RESULT:      -4.4      0.000      0.000
REMARK  4 active torsions:
REMARK  status: ('A' for Active; 'I' for Inactive)
REMARK    1  A    between atoms: C_2  and  C_3 
REMARK    2  A    between atoms: C_3  and  N_4 
REMARK    3  A    between atoms: N_4  and  C_5 
REMARK    4  A    between atoms: C_5  and  C_6 
ROOT
HETATM    1  N   LIG     1      16.890  36.889  24.556  1.00  0.00     0.083 N 
HETATM    2  H   LIG     1      15.873  36.916  24.807  1.00  0.00     0.315 HD
ENDROOT
BRANCH   1   3
HETATM    3  C   LIG     1      17.638  37.479  25.678  1.00  0.00     0.269 C 
BRANCH   3   4
HETATM    4  C   LIG     1      18.413  36.399  26.441  1.00  0.00     0.025 C 
HETATM    5  C   LIG     1      17.910  34.988  26.137  1.00  0.00     0.007 C 
ENDBRANCH   3   4
ENDBRANCH   1   3
BRANCH   1   6
HETATM    6  C   LIG     1      17.057  37.676  23.326  1.00  0.00     0.269 C 
BRANCH   6   7
HETATM    7  C   LIG     1      17.020  36.758  22.099  1.00  0.00     0.025 C 
HETATM    8  C   LIG     1      16.895  35.292  22.508  1.00  0.00     0.007 C 
ENDBRANCH   6   7
ENDBRANCH   1   6
TORSDOF 4
ENDMDL
MODEL 2
REMARK VINA RESULT:      -4.4      0.206      3.399
REMARK  4 active torsions:
REMARK  status: ('A' for Active; 'I' for Inactive)
REMARK    1  A    between atoms: C_2  and  C_3 
REMARK    2  A    between atoms: C_3  and  N_4 
REMARK    3  A    between atoms: N_4  and  C_5 
REMARK    4  A    between atoms: C_5  and  C_6 
ROOT
HETATM    1  N   LIG     1      16.783  37.071  24.479  1.00  0.00     0.083 N 
HETATM    2  H   LIG     1      17.061  36.063  24.415  1.00  0.00     0.315 HD
ENDROOT
BRANCH   1   3
HETATM    3  C   LIG     1      17.170  37.719  23.217  1.00  0.00     0.269 C 
BRANCH   3   4
HETATM    4  C   LIG     1      17.019  36.749  22.039  1.00  0.00     0.025 C 
HETATM    5  C   LIG     1      16.913  35.292  22.488  1.00  0.00     0.007 C 
ENDBRANCH   3   4
ENDBRANCH   1   3
BRANCH   1   6
HETATM    6  C   LIG     1      17.500  37.650  25.624  1.00  0.00     0.269 C 
BRANCH   6   7
HETATM    7  C   LIG     1      18.485  36.630  26.205  1.00  0.00     0.025 C 
HETATM    8  C   LIG     1      17.925  35.212  26.125  1.00  0.00     0.007 C 
ENDBRANCH   6   7
ENDBRANCH   1   6
TORSDOF 4
ENDMDL
MODEL 3
REMARK VINA RESULT:      -4.3      1.083      1.568
REMARK  4 active torsions:
REMARK  status: ('A' for Active; 'I' for Inactive)
REMARK    1  A    between atoms: C_2  and  C_3 
REMARK    2  A    between atoms: C_3  and  N_4 
REMARK    3  A    between atoms: N_4  and  C_5 
REMARK    4  A    between atoms: C_5  and  C_6 
ROOT
HETATM    1  N   LIG     1      17.152  36.766  24.388  1.00  0.00     0.083 N 
HETATM    2  H   LIG     1      16.480  36.010  24.660  1.00  0.00     0.315 HD
ENDROOT
BRANCH   1   3
HETATM    3  C   LIG     1      17.580  37.444  25.622  1.00  0.00     0.269 C 
BRANCH   3   4
HETATM    4  C   LIG     1      18.422  36.505  26.494  1.00  0.00     0.025 C 
HETATM    5  C   LIG     1      18.114  35.031  26.236  1.00  0.00     0.007 C 
ENDBRANCH   3   4
ENDBRANCH   1   3
BRANCH   1   6
HETATM    6  C   LIG     1      16.436  37.683  23.490  1.00  0.00     0.269 C 
BRANCH   6   7
HETATM    7  C   LIG     1      17.174  37.800  22.152  1.00  0.00     0.025 C 
HETATM    8  C   LIG     1      18.089  39.023  22.129  1.00  0.00     0.007 C 
ENDBRANCH   6   7
ENDBRANCH   1   6
TORSDOF 4
ENDMDL
MODEL 4
REMARK VINA RESULT:      -4.2      1.730      4.118
REMARK  4 active torsions:
REMARK  status: ('A' for Active; 'I' for Inactive)
REMARK    1  A    between atoms: C_2  and  C_3 
REMARK    2  A    between atoms: C_3  and  N_4 
REMARK    3  A    between atoms: N_4  and  C_5 
REMARK    4  A    between atoms: C_5  and  C_6 
ROOT
HETATM    1  N   LIG     1      16.458  38.462  23.935  1.00  0.00     0.083 N 
HETATM    2  H   LIG     1      15.424  38.301  23.988  1.00  0.00     0.315 HD
ENDROOT
BRANCH   1   3
HETATM    3  C   LIG     1      16.795  38.721  22.526  1.00  0.00     0.269 C 
BRANCH   3   4
HETATM    4  C   LIG     1      18.311  38.859  22.347  1.00  0.00     0.025 C 
HETATM    5  C   LIG     1      18.697  39.317  20.941  1.00  0.00     0.007 C 
ENDBRANCH   3   4
ENDBRANCH   1   3
BRANCH   1   6
HETATM    6  C   LIG     1      17.116  37.244  24.430  1.00  0.00     0.269 C 
BRANCH   6   7
HETATM    7  C   LIG     1      17.672  37.475  25.839  1.00  0.00     0.025 C 
HETATM    8  C   LIG     1      18.386  36.232  26.363  1.00  0.00     0.007 C 
ENDBRANCH   6   7
ENDBRANCH   1   6
TORSDOF 4
ENDMDL
MODEL 5
REMARK VINA RESULT:      -4.0      7.399      9.684
REMARK  4 active torsions:
REMARK  status: ('A' for Active; 'I' for Inactive)
REMARK    1  A    between atoms: C_2  and  C_3 
REMARK    2  A    between atoms: C_3  and  N_4 
REMARK    3  A    between atoms: N_4  and  C_5 
REMARK    4  A    between atoms: C_5  and  C_6 
ROOT
HETATM    1  N   LIG     1      13.773  31.596  18.053  1.00  0.00     0.083 N 
HETATM    2  H   LIG     1      14.117  30.607  18.015  1.00  0.00     0.315 HD
ENDROOT
BRANCH   1   3
HETATM    3  C   LIG     1      13.117  31.887  16.769  1.00  0.00     0.269 C 
BRANCH   3   4
HETATM    4  C   LIG     1      13.001  30.617  15.918  1.00  0.00     0.025 C 
HETATM    5  C   LIG     1      14.214  30.403  15.014  1.00  0.00     0.007 C 
ENDBRANCH   3   4
ENDBRANCH   1   3
BRANCH   1   6
HETATM    6  C   LIG     1      14.944  32.458  18.267  1.00  0.00     0.269 C 
BRANCH   6   7
HETATM    7  C   LIG     1      15.539  32.211  19.657  1.00  0.00     0.025 C 
HETATM    8  C   LIG     1      14.928  30.973  20.309  1.00  0.00     0.007 C 
ENDBRANCH   6   7
ENDBRANCH   1   6
TORSDOF 4
ENDMDL
MODEL 6
REMARK VINA RESULT:      -3.9      6.936      8.565
REMARK  4 active torsions:
REMARK  status: ('A' for Active; 'I' for Inactive)
REMARK    1  A    between atoms: C_2  and  C_3 
REMARK    2  A    between atoms: C_3  and  N_4 
REMARK    3  A    between atoms: N_4  and  C_5 
REMARK    4  A    between atoms: C_5  and  C_6 
ROOT
HETATM    1  N   LIG     1      13.876  31.778  18.321  1.00  0.00     0.083 N 
HETATM    2  H   LIG     1      13.122  32.194  18.917  1.00  0.00     0.315 HD
ENDROOT
BRANCH   1   3
HETATM    3  C   LIG     1      15.141  32.437  18.684  1.00  0.00     0.269 C 
BRANCH   3   4
HETATM    4  C   LIG     1      15.199  32.707  20.192  1.00  0.00     0.025 C 
HETATM    5  C   LIG     1      15.755  34.092  20.520  1.00  0.00     0.007 C 
ENDBRANCH   3   4
ENDBRANCH   1   3
BRANCH   1   6
HETATM    6  C   LIG     1      13.518  32.037  16.920  1.00  0.00     0.269 C 
BRANCH   6   7
HETATM    7  C   LIG     1      13.112  30.733  16.225  1.00  0.00     0.025 C 
HETATM    8  C   LIG     1      14.046  30.411  15.061  1.00  0.00     0.007 C 
ENDBRANCH   6   7
ENDBRANCH   1   6
TORSDOF 4
ENDMDL
MODEL 7
REMARK VINA RESULT:      -3.8      2.846      3.737
REMARK  4 active torsions:
REMARK  status: ('A' for Active; 'I' for Inactive)
REMARK    1  A    between atoms: C_2  and  C_3 
REMARK    2  A    between atoms: C_3  and  N_4 
REMARK    3  A    between atoms: N_4  and  C_5 
REMARK    4  A    between atoms: C_5  and  C_6 
ROOT
HETATM    1  N   LIG     1      17.777  38.110  21.785  1.00  0.00     0.083 N 
HETATM    2  H   LIG     1      17.300  37.827  20.897  1.00  0.00     0.315 HD
ENDROOT
BRANCH   1   3
HETATM    3  C   LIG     1      16.735  38.548  22.727  1.00  0.00     0.269 C 
BRANCH   3   4
HETATM    4  C   LIG     1      16.630  37.580  23.911  1.00  0.00     0.025 C 
HETATM    5  C   LIG     1      17.388  38.073  25.142  1.00  0.00     0.007 C 
ENDBRANCH   3   4
ENDBRANCH   1   3
BRANCH   1   6
HETATM    6  C   LIG     1      18.699  39.206  21.456  1.00  0.00     0.269 C 
BRANCH   6   7
HETATM    7  C   LIG     1      18.904  39.291  19.939  1.00  0.00     0.025 C 
HETATM    8  C   LIG     1      20.274  38.749  19.535  1.00  0.00     0.007 C 
ENDBRANCH   6   7
ENDBRANCH   1   6
TORSDOF 4
ENDMDL
MODEL 8
REMARK VINA RESULT:      -3.8      2.805      3.873
REMARK  4 active torsions:
REMARK  status: ('A' for Active; 'I' for Inactive)
REMARK    1  A    between atoms: C_2  and  C_3 
REMARK    2  A    between atoms: C_3  and  N_4 
REMARK    3  A    between atoms: N_4  and  C_5 
REMARK    4  A    between atoms: C_5  and  C_6 
ROOT
HETATM    1  N   LIG     1      17.232  38.954  22.056  1.00  0.00     0.083 N 
HETATM    2  H   LIG     1      16.969  39.728  22.710  1.00  0.00     0.315 HD
ENDROOT
BRANCH   1   3
HETATM    3  C   LIG     1      16.866  37.684  22.701  1.00  0.00     0.269 C 
BRANCH   3   4
HETATM    4  C   LIG     1      16.718  36.569  21.660  1.00  0.00     0.025 C 
HETATM    5  C   LIG     1      17.039  35.187  22.229  1.00  0.00     0.007 C 
ENDBRANCH   3   4
ENDBRANCH   1   3
BRANCH   1   6
HETATM    6  C   LIG     1      18.682  39.046  21.832  1.00  0.00     0.269 C 
BRANCH   6   7
HETATM    7  C   LIG     1      18.974  39.356  20.359  1.00  0.00     0.025 C 
HETATM    8  C   LIG     1      19.418  38.103  19.608  1.00  0.00     0.007 C 
ENDBRANCH   6   7
ENDBRANCH   1   6
TORSDOF 4
ENDMDL
MODEL 9
REMARK VINA RESULT:      -3.8      2.372      3.633
REMARK  4 active torsions:
REMARK  status: ('A' for Active; 'I' for Inactive)
REMARK    1  A    between atoms: C_2  and  C_3 
REMARK    2  A    between atoms: C_3  and  N_4 
REMARK    3  A    between atoms: N_4  and  C_5 
REMARK    4  A    between atoms: C_5  and  C_6 
ROOT
HETATM    1  N   LIG     1      16.519  38.200  23.591  1.00  0.00     0.083 N 
HETATM    2  H   LIG     1      15.475  38.239  23.668  1.00  0.00     0.315 HD
ENDROOT
BRANCH   1   3
HETATM    3  C   LIG     1      16.921  39.152  22.543  1.00  0.00     0.269 C 
BRANCH   3   4
HETATM    4  C   LIG     1      18.426  39.053  22.268  1.00  0.00     0.025 C 
HETATM    5  C   LIG     1      18.772  39.291  20.799  1.00  0.00     0.007 C 
ENDBRANCH   3   4
ENDBRANCH   1   3
BRANCH   1   6
HETATM    6  C   LIG     1      16.880  36.822  23.231  1.00  0.00     0.269 C 
BRANCH   6   7
HETATM    7  C   LIG     1      16.059  36.354  22.025  1.00  0.00     0.025 C 
HETATM    8  C   LIG     1      16.938  35.644  20.998  1.00  0.00     0.007 C 
ENDBRANCH   6   7
ENDBRANCH   1   6
TORSDOF 4
ENDMDL
MODEL 10
REMARK VINA RESULT:      -3.7      3.030      4.636
REMARK  4 active torsions:
REMARK  status: ('A' for Active; 'I' for Inactive)
REMARK    1  A    between atoms: C_2  and  C_3 
REMARK    2  A    between atoms: C_3  and  N_4 
REMARK    3  A    between atoms: N_4  and  C_5 
REMARK    4  A    between atoms: C_5  and  C_6 
ROOT
HETATM    1  N   LIG     1      18.209  38.332  21.661  1.00  0.00     0.083 N 
HETATM    2  H   LIG     1      18.924  38.070  22.380  1.00  0.00     0.315 HD
ENDROOT
BRANCH   1   3
HETATM    3  C   LIG     1      18.843  39.281  20.732  1.00  0.00     0.269 C 
BRANCH   3   4
HETATM    4  C   LIG     1      19.601  38.536  19.627  1.00  0.00     0.025 C 
HETATM    5  C   LIG     1      19.173  37.074  19.504  1.00  0.00     0.007 C 
ENDBRANCH   3   4
ENDBRANCH   1   3
BRANCH   1   6
HETATM    6  C   LIG     1      17.080  38.948  22.371  1.00  0.00     0.269 C 
BRANCH   6   7
HETATM    7  C   LIG     1      16.069  37.877  22.794  1.00  0.00     0.025 C 
HETATM    8  C   LIG     1      16.545  36.481  22.399  1.00  0.00     0.007 C 
ENDBRANCH   6   7
ENDBRANCH   1   6
TORSDOF 4
ENDMDL
MODEL 11
REMARK VINA RESULT:      -3.6      4.812      6.378
REMARK  4 active torsions:
REMARK  status: ('A' for Active; 'I' for Inactive)
REMARK    1  A    between atoms: C_2  and  C_3 
REMARK    2  A    between atoms: C_3  and  N_4 
REMARK    3  A    between atoms: N_4  and  C_5 
REMARK    4  A    between atoms: C_5  and  C_6 
ROOT
HETATM    1  N   LIG     1      14.607  32.814  20.410  1.00  0.00     0.083 N 
HETATM    2  H   LIG     1      13.746  33.337  20.121  1.00  0.00     0.315 HD
ENDROOT
BRANCH   1   3
HETATM    3  C   LIG     1      15.728  33.767  20.402  1.00  0.00     0.269 C 
BRANCH   3   4
HETATM    4  C   LIG     1      15.611  34.753  21.571  1.00  0.00     0.025 C 
HETATM    5  C   LIG     1      16.973  35.208  22.094  1.00  0.00     0.007 C 
ENDBRANCH   3   4
ENDBRANCH   1   3
BRANCH   1   6
HETATM    6  C   LIG     1      14.812  31.735  19.433  1.00  0.00     0.269 C 
BRANCH   6   7
HETATM    7  C   LIG     1      14.847  32.305  18.011  1.00  0.00     0.025 C 
HETATM    8  C   LIG     1      13.848  31.592  17.103  1.00  0.00     0.007 C 
ENDBRANCH   6   7
ENDBRANCH   1   6
TORSDOF 4
ENDMDL
MODEL 12
REMARK VINA RESULT:      -3.6      1.885      4.062
REMARK  4 active torsions:
REMARK  status: ('A' for Active; 'I' for Inactive)
REMARK    1  A    between atoms: C_2  and  C_3 
REMARK    2  A    between atoms: C_3  and  N_4 
REMARK    3  A    between atoms: N_4  and  C_5 
REMARK    4  A    between atoms: C_5  and  C_6 
ROOT
HETATM    1  N   LIG     1      17.540  37.469  21.647  1.00  0.00     0.083 N 
HETATM    2  H   LIG     1      16.941  38.192  21.182  1.00  0.00     0.315 HD
ENDROOT
BRANCH   1   3
HETATM    3  C   LIG     1      17.471  36.246  20.831  1.00  0.00     0.269 C 
BRANCH   3   4
HETATM    4  C   LIG     1      16.884  35.085  21.642  1.00  0.00     0.025 C 
HETATM    5  C   LIG     1      15.788  34.334  20.886  1.00  0.00     0.007 C 
ENDBRANCH   3   4
ENDBRANCH   1   3
BRANCH   1   6
HETATM    6  C   LIG     1      16.994  37.249  22.993  1.00  0.00     0.269 C 
BRANCH   6   7
HETATM    7  C   LIG     1      17.557  38.286  23.971  1.00  0.00     0.025 C 
HETATM    8  C   LIG     1      17.359  37.846  25.420  1.00  0.00     0.007 C 
ENDBRANCH   6   7
ENDBRANCH   1   6
TORSDOF 4
ENDMDL
MODEL 13
REMARK VINA RESULT:      -3.6      1.356      1.927
REMARK  4 active torsions:
REMARK  status: ('A' for Active; 'I' for Inactive)
REMARK    1  A    between atoms: C_2  and  C_3 
REMARK    2  A    between atoms: C_3  and  N_4 
REMARK    3  A    between atoms: N_4  and  C_5 
REMARK    4  A    between atoms: C_5  and  C_6 
ROOT
HETATM    1  N   LIG     1      17.176  37.144  22.964  1.00  0.00     0.083 N 
HETATM    2  H   LIG     1      18.219  37.179  23.049  1.00  0.00     0.315 HD
ENDROOT
BRANCH   1   3
HETATM    3  C   LIG     1      16.612  37.497  24.276  1.00  0.00     0.269 C 
BRANCH   3   4
HETATM    4  C   LIG     1      17.717  37.938  25.242  1.00  0.00     0.025 C 
HETATM    5  C   LIG     1      18.334  36.765  26.003  1.00  0.00     0.007 C 
ENDBRANCH   3   4
ENDBRANCH   1   3
BRANCH   1   6
HETATM    6  C   LIG     1      16.815  35.774  22.574  1.00  0.00     0.269 C 
BRANCH   6   7
HETATM    7  C   LIG     1      15.701  35.797  21.521  1.00  0.00     0.025 C 
HETATM    8  C   LIG     1      15.845  34.637  20.538  1.00  0.00     0.007 C 
ENDBRANCH   6   7
ENDBRANCH   1   6
TORSDOF 4
ENDMDL
MODEL 14
REMARK VINA RESULT:      -3.6     12.285     14.138
REMARK  4 active torsions:
REMARK  status: ('A' for Active; 'I' for Inactive)
REMARK    1  A    between atoms: C_2  and  C_3 
REMARK    2  A    between atoms: C_3  and  N_4 
REMARK    3  A    between atoms: N_4  and  C_5 
REMARK    4  A    between atoms: C_5  and  C_6 
ROOT
HETATM    1  N   LIG     1      12.790  28.746  13.959  1.00  0.00     0.083 N 
HETATM    2  H   LIG     1      12.445  29.288  13.131  1.00  0.00     0.315 HD
ENDROOT
BRANCH   1   3
HETATM    3  C   LIG     1      14.170  29.180  14.229  1.00  0.00     0.269 C 
BRANCH   3   4
HETATM    4  C   LIG     1      14.182  30.518  14.977  1.00  0.00     0.025 C 
HETATM    5  C   LIG     1      13.026  30.647  15.969  1.00  0.00     0.007 C 
ENDBRANCH   3   4
ENDBRANCH   1   3
BRANCH   1   6
HETATM    6  C   LIG     1      12.734  27.322  13.602  1.00  0.00     0.269 C 
BRANCH   6   7
HETATM    7  C   LIG     1      11.459  27.022  12.807  1.00  0.00     0.025 C 
HETATM    8  C   LIG     1      11.546  25.665  12.112  1.00  0.00     0.007 C 
ENDBRANCH   6   7
ENDBRANCH   1   6
TORSDOF 4
ENDMDL
MODEL 15
REMARK VINA RESULT:      -3.5      8.627      9.750
REMARK  4 active torsions:
REMARK  status: ('A' for Active; 'I' for Inactive)
REMARK    1  A    between atoms: C_2  and  C_3 
REMARK    2  A    between atoms: C_3  and  N_4 
REMARK    3  A    between atoms: N_4  and  C_5 
REMARK    4  A    between atoms: C_5  and  C_6 
ROOT
HETATM    1  N   LIG     1      15.578  32.653  17.612  1.00  0.00     0.083 N 
HETATM    2  H   LIG     1      16.390  31.992  17.631  1.00  0.00     0.315 HD
ENDROOT
BRANCH   1   3
HETATM    3  C   LIG     1      14.376  31.888  17.983  1.00  0.00     0.269 C 
BRANCH   3   4
HETATM    4  C   LIG     1      13.293  32.023  16.906  1.00  0.00     0.025 C 
HETATM    5  C   LIG     1      12.972  30.693  16.226  1.00  0.00     0.007 C 
ENDBRANCH   3   4
ENDBRANCH   1   3
BRANCH   1   6
HETATM    6  C   LIG     1      15.477  33.183  16.245  1.00  0.00     0.269 C 
BRANCH   6   7
HETATM    7  C   LIG     1      16.543  32.545  15.347  1.00  0.00     0.025 C 
HETATM    8  C   LIG     1      15.909  31.843  14.149  1.00  0.00     0.007 C 
ENDBRANCH   6   7
ENDBRANCH   1   6
TORSDOF 4
ENDMDL
MODEL 16
REMARK VINA RESULT:      -3.5      4.877      6.047
REMARK  4 active torsions:
REMARK  status: ('A' for Active; 'I' for Inactive)
REMARK    1  A    between atoms: C_2  and  C_3 
REMARK    2  A    between atoms: C_3  and  N_4 
REMARK    3  A    between atoms: N_4  and  C_5 
REMARK    4  A    between atoms: C_5  and  C_6 
ROOT
HETATM    1  N   LIG     1      19.038  39.723  19.507  1.00  0.00     0.083 N 
HETATM    2  H   LIG     1      19.807  40.414  19.340  1.00  0.00     0.315 HD
ENDROOT
BRANCH   1   3
HETATM    3  C   LIG     1      19.365  38.984  20.736  1.00  0.00     0.269 C 
BRANCH   3   4
HETATM    4  C   LIG     1      18.313  39.241  21.821  1.00  0.00     0.025 C 
HETATM    5  C   LIG     1      17.361  38.061  22.007  1.00  0.00     0.007 C 
ENDBRANCH   3   4
ENDBRANCH   1   3
BRANCH   1   6
HETATM    6  C   LIG     1      18.991  38.831  18.339  1.00  0.00     0.269 C 
BRANCH   6   7
HETATM    7  C   LIG     1      19.440  39.580  17.080  1.00  0.00     0.025 C 
HETATM    8  C   LIG     1      18.277  39.785  16.113  1.00  0.00     0.007 C 
ENDBRANCH   6   7
ENDBRANCH   1   6
TORSDOF 4
ENDMDL
MODEL 17
REMARK VINA RESULT:      -3.4      8.781     10.804
REMARK  4 active torsions:
REMARK  status: ('A' for Active; 'I' for Inactive)
REMARK    1  A    between atoms: C_2  and  C_3 
REMARK    2  A    between atoms: C_3  and  N_4 
REMARK    3  A    between atoms: N_4  and  C_5 
REMARK    4  A    between atoms: C_5  and  C_6 
ROOT
HETATM    1  N   LIG     1      13.523  30.653  16.794  1.00  0.00     0.083 N 
HETATM    2  H   LIG     1      14.456  30.250  17.047  1.00  0.00     0.315 HD
ENDROOT
BRANCH   1   3
HETATM    3  C   LIG     1      13.331  30.453  15.349  1.00  0.00     0.269 C 
BRANCH   3   4
HETATM    4  C   LIG     1      14.606  29.899  14.703  1.00  0.00     0.025 C 
HETATM    5  C   LIG     1      15.329  30.937  13.845  1.00  0.00     0.007 C 
ENDBRANCH   3   4
ENDBRANCH   1   3
BRANCH   1   6
HETATM    6  C   LIG     1      13.556  32.081  17.140  1.00  0.00     0.269 C 
BRANCH   6   7
HETATM    7  C   LIG     1      15.004  32.572  17.235  1.00  0.00     0.025 C 
HETATM    8  C   LIG     1      15.109  34.056  16.888  1.00  0.00     0.007 C 
ENDBRANCH   6   7
ENDBRANCH   1   6
TORSDOF 4
ENDMDL
MODEL 18
REMARK VINA RESULT:      -3.4      3.282      4.620
REMARK  4 active torsions:
REMARK  status: ('A' for Active; 'I' for Inactive)
REMARK    1  A    between atoms: C_2  and  C_3 
REMARK    2  A    between atoms: C_3  and  N_4 
REMARK    3  A    between atoms: N_4  and  C_5 
REMARK    4  A    between atoms: C_5  and  C_6 
ROOT
HETATM    1  N   LIG     1      18.242  36.805  20.291  1.00  0.00     0.083 N 
HETATM    2  H   LIG     1      17.795  36.783  19.344  1.00  0.00     0.315 HD
ENDROOT
BRANCH   1   3
HETATM    3  C   LIG     1      17.219  36.415  21.273  1.00  0.00     0.269 C 
BRANCH   3   4
HETATM    4  C   LIG     1      17.116  37.457  22.393  1.00  0.00     0.025 C 
HETATM    5  C   LIG     1      15.671  37.747  22.795  1.00  0.00     0.007 C 
ENDBRANCH   3   4
ENDBRANCH   1   3
BRANCH   1   6
HETATM    6  C   LIG     1      18.712  38.178  20.520  1.00  0.00     0.269 C 
BRANCH   6   7
HETATM    7  C   LIG     1      19.708  38.589  19.430  1.00  0.00     0.025 C 
HETATM    8  C   LIG     1      18.987  39.003  18.149  1.00  0.00     0.007 C 
ENDBRANCH   6   7
ENDBRANCH   1   6
TORSDOF 4
ENDMDL
MODEL 19
REMARK VINA RESULT:      -3.4      9.972     11.603
REMARK  4 active torsions:
REMARK  status: ('A' for Active; 'I' for Inactive)
REMARK    1  A    between atoms: C_2  and  C_3 
REMARK    2  A    between atoms: C_3  and  N_4 
REMARK    3  A    between atoms: N_4  and  C_5 
REMARK    4  A    between atoms: C_5  and  C_6 
ROOT
HETATM    1  N   LIG     1      15.397  30.922  13.264  1.00  0.00     0.083 N 
HETATM    2  H   LIG     1      16.004  30.416  12.577  1.00  0.00     0.315 HD
ENDROOT
BRANCH   1   3
HETATM    3  C   LIG     1      16.114  32.139  13.676  1.00  0.00     0.269 C 
BRANCH   3   4
HETATM    4  C   LIG     1      16.478  32.078  15.164  1.00  0.00     0.025 C 
HETATM    5  C   LIG     1      15.750  33.137  15.991  1.00  0.00     0.007 C 
ENDBRANCH   3   4
ENDBRANCH   1   3
BRANCH   1   6
HETATM    6  C   LIG     1      15.176  30.018  14.401  1.00  0.00     0.269 C 
BRANCH   6   7
HETATM    7  C   LIG     1      13.680  29.738  14.576  1.00  0.00     0.025 C 
HETATM    8  C   LIG     1      13.100  30.534  15.743  1.00  0.00     0.007 C 
ENDBRANCH   6   7
ENDBRANCH   1   6
TORSDOF 4
ENDMDL
MODEL 20
REMARK VINA RESULT:      -3.3     11.016     13.129
REMARK  4 active torsions:
REMARK  status: ('A' for Active; 'I' for Inactive)
REMARK    1  A    between atoms: C_2  and  C_3 
REMARK    2  A    between atoms: C_3  and  N_4 
REMARK    3  A    between atoms: N_4  and  C_5 
REMARK    4  A    between atoms: C_5  and  C_6 
ROOT
HETATM    1  N   LIG     1      14.104  29.368  14.100  1.00  0.00     0.083 N 
HETATM    2  H   LIG     1      13.740  28.579  14.684  1.00  0.00     0.315 HD
ENDROOT
BRANCH   1   3
HETATM    3  C   LIG     1      15.394  28.941  13.534  1.00  0.00     0.269 C 
BRANCH   3   4
HETATM    4  C   LIG     1      15.413  27.424  13.310  1.00  0.00     0.025 C 
HETATM    5  C   LIG     1      15.941  27.041  11.929  1.00  0.00     0.007 C 
ENDBRANCH   3   4
ENDBRANCH   1   3
BRANCH   1   6
HETATM    6  C   LIG     1      14.264  30.530  14.985  1.00  0.00     0.269 C 
BRANCH   6   7
HETATM    7  C   LIG     1      13.028  30.694  15.876  1.00  0.00     0.025 C 
HETATM    8  C   LIG     1      13.244  31.778  16.929  1.00  0.00     0.007 C 
ENDBRANCH   6   7
ENDBRANCH   1   6
TORSDOF 4
ENDMDL
