MODEL 1
REMARK VINA RESULT:      -4.8      0.000      0.000
REMARK  0 active torsions:
REMARK  status: ('A' for Active; 'I' for Inactive)
ROOT
HETATM    1  C   LIG     1      17.991  37.134  25.954  1.00  0.00    -0.030 A 
HETATM    2  C   LIG     1      18.491  36.232  26.779  1.00  0.00    -0.030 A 
HETATM    3  C   LIG     1      18.211  34.842  26.336  1.00  0.00     0.027 A 
HETATM    4  C   LIG     1      17.417  35.007  25.036  1.00  0.00     0.007 A 
HETATM    5  C   LIG     1      17.284  36.516  24.803  1.00  0.00     0.027 A 
ENDROOT
TORSDOF 0
ENDMDL
MODEL 2
REMARK VINA RESULT:      -4.8      0.022      1.762
REMARK  0 active torsions:
REMARK  status: ('A' for Active; 'I' for Inactive)
ROOT
HETATM    1  C   LIG     1      18.464  36.237  26.779  1.00  0.00    -0.030 A 
HETATM    2  C   LIG     1      17.968  37.139  25.951  1.00  0.00    -0.030 A 
HETATM    3  C   LIG     1      17.281  36.522  24.788  1.00  0.00     0.027 A 
HETATM    4  C   LIG     1      17.424  35.013  25.014  1.00  0.00     0.007 A 
HETATM    5  C   LIG     1      18.201  34.847  26.324  1.00  0.00     0.027 A 
ENDROOT
TORSDOF 0
ENDMDL
MODEL 3
REMARK VINA RESULT:      -4.8      0.151      2.354
REMARK  0 active torsions:
REMARK  status: ('A' for Active; 'I' for Inactive)
ROOT
HETATM    1  C   LIG     1      18.096  34.886  26.291  1.00  0.00    -0.030 A 
HETATM    2  C   LIG     1      17.441  34.961  25.146  1.00  0.00    -0.030 A 
HETATM    3  C   LIG     1      17.268  36.362  24.684  1.00  0.00     0.027 A 
HETATM    4  C   LIG     1      17.948  37.208  25.766  1.00  0.00     0.007 A 
HETATM    5  C   LIG     1      18.484  36.223  26.809  1.00  0.00     0.027 A 
ENDROOT
TORSDOF 0
ENDMDL
MODEL 4
REMARK VINA RESULT:      -4.1      5.280      6.339
REMARK  0 active torsions:
REMARK  status: ('A' for Active; 'I' for Inactive)
ROOT
HETATM    1  C   LIG     1      19.243  37.127  19.496  1.00  0.00    -0.030 A 
HETATM    2  C   LIG     1      18.280  37.012  20.393  1.00  0.00    -0.030 A 
HETATM    3  C   LIG     1      18.109  38.246  21.202  1.00  0.00     0.027 A 
HETATM    4  C   LIG     1      19.163  39.213  20.653  1.00  0.00     0.007 A 
HETATM    5  C   LIG     1      19.895  38.462  19.536  1.00  0.00     0.027 A 
ENDROOT
TORSDOF 0
ENDMDL
MODEL 5
REMARK VINA RESULT:      -4.1      5.310      6.166
REMARK  0 active torsions:
REMARK  status: ('A' for Active; 'I' for Inactive)
ROOT
HETATM    1  C   LIG     1      19.248  39.203  20.475  1.00  0.00    -0.030 A 
HETATM    2  C   LIG     1      19.815  38.452  19.548  1.00  0.00    -0.030 A 
HETATM    3  C   LIG     1      19.233  37.087  19.491  1.00  0.00     0.027 A 
HETATM    4  C   LIG     1      18.153  37.086  20.578  1.00  0.00     0.007 A 
HETATM    5  C   LIG     1      18.178  38.481  21.210  1.00  0.00     0.027 A 
ENDROOT
TORSDOF 0
ENDMDL
MODEL 6
REMARK VINA RESULT:      -4.1     12.036     12.335
REMARK  0 active torsions:
REMARK  status: ('A' for Active; 'I' for Inactive)
ROOT
HETATM    1  C   LIG     1      16.558  44.018  34.650  1.00  0.00    -0.030 A 
HETATM    2  C   LIG     1      15.288  44.326  34.458  1.00  0.00    -0.030 A 
HETATM    3  C   LIG     1      15.113  45.397  33.444  1.00  0.00     0.027 A 
HETATM    4  C   LIG     1      16.539  45.740  32.999  1.00  0.00     0.007 A 
HETATM    5  C   LIG     1      17.471  44.826  33.800  1.00  0.00     0.027 A 
ENDROOT
TORSDOF 0
ENDMDL
MODEL 7
REMARK VINA RESULT:      -4.0      5.293      6.187
REMARK  0 active torsions:
REMARK  status: ('A' for Active; 'I' for Inactive)
ROOT
HETATM    1  C   LIG     1      18.133  38.407  21.182  1.00  0.00    -0.030 A 
HETATM    2  C   LIG     1      18.154  37.192  20.666  1.00  0.00    -0.030 A 
HETATM    3  C   LIG     1      19.174  37.048  19.596  1.00  0.00     0.027 A 
HETATM    4  C   LIG     1      19.832  38.429  19.507  1.00  0.00     0.007 A 
HETATM    5  C   LIG     1      19.137  39.304  20.555  1.00  0.00     0.027 A 
ENDROOT
TORSDOF 0
ENDMDL
MODEL 8
REMARK VINA RESULT:      -3.6     11.614     12.742
REMARK  0 active torsions:
REMARK  status: ('A' for Active; 'I' for Inactive)
ROOT
HETATM    1  C   LIG     1      14.203  31.293  15.875  1.00  0.00    -0.030 A 
HETATM    2  C   LIG     1      13.205  30.455  15.654  1.00  0.00    -0.030 A 
HETATM    3  C   LIG     1      13.448  29.584  14.476  1.00  0.00     0.027 A 
HETATM    4  C   LIG     1      14.822  30.019  13.955  1.00  0.00     0.007 A 
HETATM    5  C   LIG     1      15.299  31.138  14.885  1.00  0.00     0.027 A 
ENDROOT
TORSDOF 0
ENDMDL
MODEL 9
REMARK VINA RESULT:      -3.6     11.099     12.371
REMARK  0 active torsions:
REMARK  status: ('A' for Active; 'I' for Inactive)
ROOT
HETATM    1  C   LIG     1      14.630  30.350  14.385  1.00  0.00    -0.030 A 
HETATM    2  C   LIG     1      13.468  29.944  14.863  1.00  0.00    -0.030 A 
HETATM    3  C   LIG     1      13.083  30.665  16.103  1.00  0.00     0.027 A 
HETATM    4  C   LIG     1      14.237  31.642  16.352  1.00  0.00     0.007 A 
HETATM    5  C   LIG     1      15.240  31.420  15.216  1.00  0.00     0.027 A 
ENDROOT
TORSDOF 0
ENDMDL
MODEL 10
REMARK VINA RESULT:      -3.5     10.916     11.981
REMARK  0 active torsions:
REMARK  status: ('A' for Active; 'I' for Inactive)
ROOT
HETATM    1  C   LIG     1      13.968  30.245  14.856  1.00  0.00    -0.030 A 
HETATM    2  C   LIG     1      15.037  31.020  14.899  1.00  0.00    -0.030 A 
HETATM    3  C   LIG     1      14.999  31.975  16.035  1.00  0.00     0.027 A 
HETATM    4  C   LIG     1      13.674  31.674  16.744  1.00  0.00     0.007 A 
HETATM    5  C   LIG     1      13.014  30.538  15.957  1.00  0.00     0.027 A 
ENDROOT
TORSDOF 0
ENDMDL
MODEL 11
REMARK VINA RESULT:      -3.5     11.521     12.664
REMARK  0 active torsions:
REMARK  status: ('A' for Active; 'I' for Inactive)
ROOT
HETATM    1  C   LIG     1      13.580  30.585  15.660  1.00  0.00    -0.030 A 
HETATM    2  C   LIG     1      14.567  31.454  15.780  1.00  0.00    -0.030 A 
HETATM    3  C   LIG     1      15.586  31.305  14.710  1.00  0.00     0.027 A 
HETATM    4  C   LIG     1      15.068  30.150  13.847  1.00  0.00     0.007 A 
HETATM    5  C   LIG     1      13.753  29.692  14.485  1.00  0.00     0.027 A 
ENDROOT
TORSDOF 0
ENDMDL
MODEL 12
REMARK VINA RESULT:      -3.5      4.085      4.689
REMARK  0 active torsions:
REMARK  status: ('A' for Active; 'I' for Inactive)
ROOT
HETATM    1  C   LIG     1      17.575  37.098  21.285  1.00  0.00    -0.030 A 
HETATM    2  C   LIG     1      17.833  38.361  21.573  1.00  0.00    -0.030 A 
HETATM    3  C   LIG     1      16.871  38.925  22.554  1.00  0.00     0.027 A 
HETATM    4  C   LIG     1      15.914  37.769  22.861  1.00  0.00     0.007 A 
HETATM    5  C   LIG     1      16.392  36.580  22.021  1.00  0.00     0.027 A 
ENDROOT
TORSDOF 0
ENDMDL
MODEL 13
REMARK VINA RESULT:      -3.5      2.040      3.230
REMARK  0 active torsions:
REMARK  status: ('A' for Active; 'I' for Inactive)
ROOT
HETATM    1  C   LIG     1      16.866  36.636  22.016  1.00  0.00    -0.030 A 
HETATM    2  C   LIG     1      16.991  37.444  23.053  1.00  0.00    -0.030 A 
HETATM    3  C   LIG     1      17.167  36.703  24.329  1.00  0.00     0.027 A 
HETATM    4  C   LIG     1      17.133  35.226  23.922  1.00  0.00     0.007 A 
HETATM    5  C   LIG     1      16.936  35.203  22.403  1.00  0.00     0.027 A 
ENDROOT
TORSDOF 0
ENDMDL
MODEL 14
REMARK VINA RESULT:      -3.4     10.504     11.554
REMARK  0 active torsions:
REMARK  status: ('A' for Active; 'I' for Inactive)
ROOT
HETATM    1  C   LIG     1      13.937  32.231  16.870  1.00  0.00    -0.030 A 
HETATM    2  C   LIG     1      12.972  31.368  16.605  1.00  0.00    -0.030 A 
HETATM    3  C   LIG     1      13.323  30.452  15.489  1.00  0.00     0.027 A 
HETATM    4  C   LIG     1      14.729  30.888  15.064  1.00  0.00     0.007 A 
HETATM    5  C   LIG     1      15.113  32.053  15.981  1.00  0.00     0.027 A 
ENDROOT
TORSDOF 0
ENDMDL
MODEL 15
REMARK VINA RESULT:      -3.0     15.656     15.989
REMARK  0 active torsions:
REMARK  status: ('A' for Active; 'I' for Inactive)
ROOT
HETATM    1  C   LIG     1      21.526  23.853  35.917  1.00  0.00    -0.030 A 
HETATM    2  C   LIG     1      20.259  23.526  36.097  1.00  0.00    -0.030 A 
HETATM    3  C   LIG     1      19.653  22.920  34.884  1.00  0.00     0.027 A 
HETATM    4  C   LIG     1      20.787  22.911  33.854  1.00  0.00     0.007 A 
HETATM    5  C   LIG     1      22.005  23.525  34.550  1.00  0.00     0.027 A 
ENDROOT
TORSDOF 0
ENDMDL
MODEL 16
REMARK VINA RESULT:      -2.8     18.607     19.560
REMARK  0 active torsions:
REMARK  status: ('A' for Active; 'I' for Inactive)
ROOT
HETATM    1  C   LIG     1       2.573  43.165  15.665  1.00  0.00    -0.030 A 
HETATM    2  C   LIG     1       3.712  43.322  16.316  1.00  0.00    -0.030 A 
HETATM    3  C   LIG     1       4.674  44.177  15.574  1.00  0.00     0.027 A 
HETATM    4  C   LIG     1       3.934  44.558  14.288  1.00  0.00     0.007 A 
HETATM    5  C   LIG     1       2.560  43.887  14.367  1.00  0.00     0.027 A 
ENDROOT
TORSDOF 0
ENDMDL
MODEL 17
REMARK VINA RESULT:      -2.8     13.620     14.496
REMARK  0 active torsions:
REMARK  status: ('A' for Active; 'I' for Inactive)
ROOT
HETATM    1  C   LIG     1      19.832  33.908  12.802  1.00  0.00    -0.030 A 
HETATM    2  C   LIG     1      18.918  34.139  11.878  1.00  0.00    -0.030 A 
HETATM    3  C   LIG     1      19.504  34.673  10.622  1.00  0.00     0.027 A 
HETATM    4  C   LIG     1      21.008  34.749  10.904  1.00  0.00     0.007 A 
HETATM    5  C   LIG     1      21.203  34.244  12.337  1.00  0.00     0.027 A 
ENDROOT
TORSDOF 0
ENDMDL
MODEL 18
REMARK VINA RESULT:      -2.7      6.476      7.810
REMARK  0 active torsions:
REMARK  status: ('A' for Active; 'I' for Inactive)
ROOT
HETATM    1  C   LIG     1      15.397  32.428  19.777  1.00  0.00    -0.030 A 
HETATM    2  C   LIG     1      15.165  32.552  18.482  1.00  0.00    -0.030 A 
HETATM    3  C   LIG     1      15.235  33.964  18.028  1.00  0.00     0.027 A 
HETATM    4  C   LIG     1      15.563  34.759  19.296  1.00  0.00     0.007 A 
HETATM    5  C   LIG     1      15.665  33.735  20.431  1.00  0.00     0.027 A 
ENDROOT
TORSDOF 0
ENDMDL
MODEL 19
REMARK VINA RESULT:      -2.6     13.812     14.602
REMARK  0 active torsions:
REMARK  status: ('A' for Active; 'I' for Inactive)
ROOT
HETATM    1  C   LIG     1      21.581  35.191  11.232  1.00  0.00    -0.030 A 
HETATM    2  C   LIG     1      20.897  34.240  10.622  1.00  0.00    -0.030 A 
HETATM    3  C   LIG     1      20.551  33.118  11.532  1.00  0.00     0.027 A 
HETATM    4  C   LIG     1      21.150  33.522  12.883  1.00  0.00     0.007 A 
HETATM    5  C   LIG     1      21.820  34.883  12.666  1.00  0.00     0.027 A 
ENDROOT
TORSDOF 0
ENDMDL
