REMARK  6 active torsions:
REMARK  status: ('A' for Active; 'I' for Inactive)
REMARK    1  A    between atoms: C_2  and  C_3 
REMARK    2  A    between atoms: C_3  and  C_4 
REMARK    3  A    between atoms: C_4  and  O_5 
REMARK    4  A    between atoms: O_5  and  C_6 
REMARK    5  A    between atoms: C_6  and  C_7 
REMARK    6  A    between atoms: C_7  and  C_8 
ROOT
HETATM    1  O   LIG     1       0.204   0.142   0.187  1.00  0.00    -0.391 OA
ENDROOT
BRANCH   1   2
HETATM    2  C   LIG     1      -0.763  -0.652   0.852  1.00  0.00     0.167 C 
BRANCH   2   3
HETATM    3  C   LIG     1      -2.166  -0.393   0.288  1.00  0.00     0.026 C 
BRANCH   3   4
HETATM    4  C   LIG     1      -2.591   1.070   0.471  1.00  0.00    -0.002 C 
HETATM    5  C   LIG     1      -4.001   1.304  -0.062  1.00  0.00     0.005 C 
ENDBRANCH   3   4
ENDBRANCH   2   3
ENDBRANCH   1   2
BRANCH   1   6
HETATM    6  C   LIG     1       0.781  -0.551  -0.906  1.00  0.00     0.167 C 
BRANCH   6   7
HETATM    7  C   LIG     1       2.054  -1.298  -0.480  1.00  0.00     0.026 C 
BRANCH   7   8
HETATM    8  C   LIG     1       3.096  -0.398   0.207  1.00  0.00    -0.002 C 
HETATM    9  C   LIG     1       3.707   0.632  -0.743  1.00  0.00     0.005 C 
ENDBRANCH   7   8
ENDBRANCH   6   7
ENDBRANCH   1   6
TORSDOF 6
