REMARK  0 active torsions:
REMARK  status: ('A' for Active; 'I' for Inactive)
ROOT
HETATM    1  C   LIG     1      -0.928   0.726  -0.648  1.00  0.00    -0.030 A 
HETATM    2  C   LIG     1       0.299   1.200  -0.527  1.00  0.00    -0.030 A 
HETATM    3  C   LIG     1       1.193   0.274   0.214  1.00  0.00     0.027 A 
HETATM    4  C   LIG     1       0.301  -0.922   0.563  1.00  0.00     0.007 A 
HETATM    5  C   LIG     1      -1.084  -0.607  -0.011  1.00  0.00     0.027 A 
ENDROOT
TORSDOF 0
