REMARK  6 active torsions:
REMARK  status: ('A' for Active; 'I' for Inactive)
REMARK    1  A    between atoms: C_2  and  O_3 
REMARK    2  A    between atoms: O_3  and  C_4 
REMARK    3  A    between atoms: C_4  and  C_5 
REMARK    4  A    between atoms: C_5  and  C_6 
REMARK    5  A    between atoms: C_6  and  C_7 
REMARK    6  A    between atoms: C_7  and  C_8 
ROOT
HETATM    1  C   LIG     1       1.180  -0.769  -0.412  1.00  0.00     0.178 C 
ENDROOT
BRANCH   1   2
HETATM    2  O   LIG     1       2.574  -0.839  -0.118  1.00  0.00    -0.322 OA
BRANCH   2   3
HETATM    3  C   LIG     1       3.412   0.282  -0.089  1.00  0.00     0.254 C 
HETATM    4  C   LIG     1       4.846   0.110   0.280  1.00  0.00     0.126 C 
HETATM    5  O   LIG     1       2.970   1.428  -0.376  1.00  0.00    -0.266 OA
ENDBRANCH   2   3
ENDBRANCH   1   2
BRANCH   1   6
HETATM    6  C   LIG     1       0.406  -0.213   0.790  1.00  0.00     0.027 C 
BRANCH   6   7
HETATM    7  C   LIG     1      -1.117  -0.288   0.600  1.00  0.00     0.002 C 
BRANCH   7   8
HETATM    8  C   LIG     1      -1.625   0.688  -0.475  1.00  0.00    -0.000 C 
BRANCH   8   9
HETATM    9  C   LIG     1      -3.158   0.798  -0.492  1.00  0.00    -0.005 C 
HETATM   10  C   LIG     1      -3.835  -0.477  -0.994  1.00  0.00     0.005 C 
ENDBRANCH   8   9
ENDBRANCH   7   8
ENDBRANCH   6   7
ENDBRANCH   1   6
TORSDOF 6
