MODEL 1
REMARK VINA RESULT:      -5.7      0.000      0.000
REMARK  6 active torsions:
REMARK  status: ('A' for Active; 'I' for Inactive)
REMARK    1  A    between atoms: C_2  and  O_3 
REMARK    2  A    between atoms: O_3  and  C_4 
REMARK    3  A    between atoms: C_4  and  C_5 
REMARK    4  A    between atoms: C_5  and  C_6 
REMARK    5  A    between atoms: C_6  and  C_7 
REMARK    6  A    between atoms: C_7  and  C_8 
ROOT
HETATM    1  C   LIG     1      17.740  38.201  21.866  1.00  0.00     0.178 C 
ENDROOT
BRANCH   1   2
HETATM    2  O   LIG     1      18.712  39.039  21.242  1.00  0.00    -0.322 OA
BRANCH   2   3
HETATM    3  C   LIG     1      19.419  38.673  20.091  1.00  0.00     0.254 C 
HETATM    4  C   LIG     1      19.200  37.322  19.500  1.00  0.00     0.126 C 
HETATM    5  O   LIG     1      20.230  39.472  19.548  1.00  0.00    -0.266 OA
ENDBRANCH   2   3
ENDBRANCH   1   2
BRANCH   1   6
HETATM    6  C   LIG     1      17.618  38.539  23.357  1.00  0.00     0.027 C 
BRANCH   6   7
HETATM    7  C   LIG     1      17.251  37.318  24.214  1.00  0.00     0.002 C 
BRANCH   7   8
HETATM    8  C   LIG     1      17.564  37.529  25.705  1.00  0.00    -0.000 C 
BRANCH   8   9
HETATM    9  C   LIG     1      18.350  36.355  26.312  1.00  0.00    -0.005 C 
HETATM   10  C   LIG     1      17.746  34.996  25.959  1.00  0.00     0.005 C 
ENDBRANCH   8   9
ENDBRANCH   7   8
ENDBRANCH   6   7
ENDBRANCH   1   6
TORSDOF 6
ENDMDL
MODEL 2
REMARK VINA RESULT:      -5.7      2.133      2.442
REMARK  6 active torsions:
REMARK  status: ('A' for Active; 'I' for Inactive)
REMARK    1  A    between atoms: C_2  and  O_3 
REMARK    2  A    between atoms: O_3  and  C_4 
REMARK    3  A    between atoms: C_4  and  C_5 
REMARK    4  A    between atoms: C_5  and  C_6 
REMARK    5  A    between atoms: C_6  and  C_7 
REMARK    6  A    between atoms: C_7  and  C_8 
ROOT
HETATM    1  C   LIG     1      16.732  37.922  22.817  1.00  0.00     0.178 C 
ENDROOT
BRANCH   1   2
HETATM    2  O   LIG     1      17.518  37.396  21.750  1.00  0.00    -0.322 OA
BRANCH   2   3
HETATM    3  C   LIG     1      17.274  36.152  21.155  1.00  0.00     0.254 C 
HETATM    4  C   LIG     1      16.787  35.024  21.998  1.00  0.00     0.126 C 
HETATM    5  O   LIG     1      17.455  35.980  19.918  1.00  0.00    -0.266 OA
ENDBRANCH   2   3
ENDBRANCH   1   2
BRANCH   1   6
HETATM    6  C   LIG     1      17.635  38.399  23.962  1.00  0.00     0.027 C 
BRANCH   6   7
HETATM    7  C   LIG     1      17.335  37.686  25.290  1.00  0.00     0.002 C 
BRANCH   7   8
HETATM    8  C   LIG     1      18.587  37.042  25.908  1.00  0.00    -0.000 C 
BRANCH   8   9
HETATM    9  C   LIG     1      18.286  35.688  26.570  1.00  0.00    -0.005 C 
HETATM   10  C   LIG     1      17.352  34.817  25.731  1.00  0.00     0.005 C 
ENDBRANCH   8   9
ENDBRANCH   7   8
ENDBRANCH   6   7
ENDBRANCH   1   6
TORSDOF 6
ENDMDL
MODEL 3
REMARK VINA RESULT:      -5.7      2.536      5.296
REMARK  6 active torsions:
REMARK  status: ('A' for Active; 'I' for Inactive)
REMARK    1  A    between atoms: C_2  and  O_3 
REMARK    2  A    between atoms: O_3  and  C_4 
REMARK    3  A    between atoms: C_4  and  C_5 
REMARK    4  A    between atoms: C_5  and  C_6 
REMARK    5  A    between atoms: C_6  and  C_7 
REMARK    6  A    between atoms: C_7  and  C_8 
ROOT
HETATM    1  C   LIG     1      16.853  37.426  22.736  1.00  0.00     0.178 C 
ENDROOT
BRANCH   1   2
HETATM    2  O   LIG     1      16.414  37.441  24.093  1.00  0.00    -0.322 OA
BRANCH   2   3
HETATM    3  C   LIG     1      17.230  37.829  25.162  1.00  0.00     0.254 C 
HETATM    4  C   LIG     1      18.267  36.884  25.668  1.00  0.00     0.126 C 
HETATM    5  O   LIG     1      17.103  38.966  25.694  1.00  0.00    -0.266 OA
ENDBRANCH   2   3
ENDBRANCH   1   2
BRANCH   1   6
HETATM    6  C   LIG     1      17.222  38.843  22.277  1.00  0.00     0.027 C 
BRANCH   6   7
HETATM    7  C   LIG     1      18.699  38.970  21.875  1.00  0.00     0.002 C 
BRANCH   7   8
HETATM    8  C   LIG     1      18.876  39.424  20.416  1.00  0.00    -0.000 C 
BRANCH   8   9
HETATM    9  C   LIG     1      19.774  38.473  19.609  1.00  0.00    -0.005 C 
HETATM   10  C   LIG     1      19.208  37.056  19.526  1.00  0.00     0.005 C 
ENDBRANCH   8   9
ENDBRANCH   7   8
ENDBRANCH   6   7
ENDBRANCH   1   6
TORSDOF 6
ENDMDL
MODEL 4
REMARK VINA RESULT:      -5.5      2.461      5.561
REMARK  6 active torsions:
REMARK  status: ('A' for Active; 'I' for Inactive)
REMARK    1  A    between atoms: C_2  and  O_3 
REMARK    2  A    between atoms: O_3  and  C_4 
REMARK    3  A    between atoms: C_4  and  C_5 
REMARK    4  A    between atoms: C_5  and  C_6 
REMARK    5  A    between atoms: C_6  and  C_7 
REMARK    6  A    between atoms: C_7  and  C_8 
ROOT
HETATM    1  C   LIG     1      17.161  38.048  23.949  1.00  0.00     0.178 C 
ENDROOT
BRANCH   1   2
HETATM    2  O   LIG     1      17.150  36.629  24.094  1.00  0.00    -0.322 OA
BRANCH   2   3
HETATM    3  C   LIG     1      17.558  35.972  25.261  1.00  0.00     0.254 C 
HETATM    4  C   LIG     1      18.402  36.700  26.250  1.00  0.00     0.126 C 
HETATM    5  O   LIG     1      17.217  34.778  25.484  1.00  0.00    -0.266 OA
ENDBRANCH   2   3
ENDBRANCH   1   2
BRANCH   1   6
HETATM    6  C   LIG     1      17.222  38.434  22.465  1.00  0.00     0.027 C 
BRANCH   6   7
HETATM    7  C   LIG     1      18.588  39.009  22.059  1.00  0.00     0.002 C 
BRANCH   7   8
HETATM    8  C   LIG     1      18.660  39.353  20.561  1.00  0.00    -0.000 C 
BRANCH   8   9
HETATM    9  C   LIG     1      19.689  38.494  19.810  1.00  0.00    -0.005 C 
HETATM   10  C   LIG     1      19.181  37.081  19.522  1.00  0.00     0.005 C 
ENDBRANCH   8   9
ENDBRANCH   7   8
ENDBRANCH   6   7
ENDBRANCH   1   6
TORSDOF 6
ENDMDL
MODEL 5
REMARK VINA RESULT:      -5.4      1.917      2.650
REMARK  6 active torsions:
REMARK  status: ('A' for Active; 'I' for Inactive)
REMARK    1  A    between atoms: C_2  and  O_3 
REMARK    2  A    between atoms: O_3  and  C_4 
REMARK    3  A    between atoms: C_4  and  C_5 
REMARK    4  A    between atoms: C_5  and  C_6 
REMARK    5  A    between atoms: C_6  and  C_7 
REMARK    6  A    between atoms: C_7  and  C_8 
ROOT
HETATM    1  C   LIG     1      16.727  36.225  21.550  1.00  0.00     0.178 C 
ENDROOT
BRANCH   1   2
HETATM    2  O   LIG     1      17.810  37.153  21.513  1.00  0.00    -0.322 OA
BRANCH   2   3
HETATM    3  C   LIG     1      17.647  38.534  21.679  1.00  0.00     0.254 C 
HETATM    4  C   LIG     1      18.626  39.463  21.047  1.00  0.00     0.126 C 
HETATM    5  O   LIG     1      16.683  38.996  22.348  1.00  0.00    -0.266 OA
ENDBRANCH   2   3
ENDBRANCH   1   2
BRANCH   1   6
HETATM    6  C   LIG     1      16.945  35.191  22.661  1.00  0.00     0.027 C 
BRANCH   6   7
HETATM    7  C   LIG     1      17.180  35.838  24.035  1.00  0.00     0.002 C 
BRANCH   7   8
HETATM    8  C   LIG     1      17.184  34.809  25.178  1.00  0.00    -0.000 C 
BRANCH   8   9
HETATM    9  C   LIG     1      18.207  35.151  26.274  1.00  0.00    -0.005 C 
HETATM   10  C   LIG     1      18.497  36.649  26.362  1.00  0.00     0.005 C 
ENDBRANCH   8   9
ENDBRANCH   7   8
ENDBRANCH   6   7
ENDBRANCH   1   6
TORSDOF 6
ENDMDL
MODEL 6
REMARK VINA RESULT:      -5.3      2.009      2.619
REMARK  6 active torsions:
REMARK  status: ('A' for Active; 'I' for Inactive)
REMARK    1  A    between atoms: C_2  and  O_3 
REMARK    2  A    between atoms: O_3  and  C_4 
REMARK    3  A    between atoms: C_4  and  C_5 
REMARK    4  A    between atoms: C_5  and  C_6 
REMARK    5  A    between atoms: C_6  and  C_7 
REMARK    6  A    between atoms: C_7  and  C_8 
ROOT
HETATM    1  C   LIG     1      18.270  38.910  22.172  1.00  0.00     0.178 C 
ENDROOT
BRANCH   1   2
HETATM    2  O   LIG     1      18.445  39.341  20.824  1.00  0.00    -0.322 OA
BRANCH   2   3
HETATM    3  C   LIG     1      19.369  38.763  19.945  1.00  0.00     0.254 C 
HETATM    4  C   LIG     1      19.209  37.333  19.557  1.00  0.00     0.126 C 
HETATM    5  O   LIG     1      20.326  39.438  19.477  1.00  0.00    -0.266 OA
ENDBRANCH   2   3
ENDBRANCH   1   2
BRANCH   1   6
HETATM    6  C   LIG     1      16.787  38.957  22.562  1.00  0.00     0.027 C 
BRANCH   6   7
HETATM    7  C   LIG     1      16.118  37.575  22.514  1.00  0.00     0.002 C 
BRANCH   7   8
HETATM    8  C   LIG     1      17.091  36.437  22.868  1.00  0.00    -0.000 C 
BRANCH   8   9
HETATM    9  C   LIG     1      16.816  35.157  22.063  1.00  0.00    -0.005 C 
HETATM   10  C   LIG     1      16.190  35.441  20.698  1.00  0.00     0.005 C 
ENDBRANCH   8   9
ENDBRANCH   7   8
ENDBRANCH   6   7
ENDBRANCH   1   6
TORSDOF 6
ENDMDL
MODEL 7
REMARK VINA RESULT:      -5.2      2.778      5.104
REMARK  6 active torsions:
REMARK  status: ('A' for Active; 'I' for Inactive)
REMARK    1  A    between atoms: C_2  and  O_3 
REMARK    2  A    between atoms: O_3  and  C_4 
REMARK    3  A    between atoms: C_4  and  C_5 
REMARK    4  A    between atoms: C_5  and  C_6 
REMARK    5  A    between atoms: C_6  and  C_7 
REMARK    6  A    between atoms: C_7  and  C_8 
ROOT
HETATM    1  C   LIG     1      17.396  38.290  24.004  1.00  0.00     0.178 C 
ENDROOT
BRANCH   1   2
HETATM    2  O   LIG     1      16.782  37.204  24.696  1.00  0.00    -0.322 OA
BRANCH   2   3
HETATM    3  C   LIG     1      17.504  36.157  25.281  1.00  0.00     0.254 C 
HETATM    4  C   LIG     1      18.455  36.459  26.389  1.00  0.00     0.126 C 
HETATM    5  O   LIG     1      17.354  34.968  24.888  1.00  0.00    -0.266 OA
ENDBRANCH   2   3
ENDBRANCH   1   2
BRANCH   1   6
HETATM    6  C   LIG     1      16.903  38.349  22.553  1.00  0.00     0.027 C 
BRANCH   6   7
HETATM    7  C   LIG     1      18.046  38.229  21.533  1.00  0.00     0.002 C 
BRANCH   7   8
HETATM    8  C   LIG     1      17.943  36.953  20.681  1.00  0.00    -0.000 C 
BRANCH   8   9
HETATM    9  C   LIG     1      17.163  35.834  21.389  1.00  0.00    -0.005 C 
HETATM   10  C   LIG     1      16.080  35.218  20.503  1.00  0.00     0.005 C 
ENDBRANCH   8   9
ENDBRANCH   7   8
ENDBRANCH   6   7
ENDBRANCH   1   6
TORSDOF 6
ENDMDL
MODEL 8
REMARK VINA RESULT:      -5.0      4.886      6.055
REMARK  6 active torsions:
REMARK  status: ('A' for Active; 'I' for Inactive)
REMARK    1  A    between atoms: C_2  and  O_3 
REMARK    2  A    between atoms: O_3  and  C_4 
REMARK    3  A    between atoms: C_4  and  C_5 
REMARK    4  A    between atoms: C_5  and  C_6 
REMARK    5  A    between atoms: C_6  and  C_7 
REMARK    6  A    between atoms: C_7  and  C_8 
ROOT
HETATM    1  C   LIG     1      15.102  34.214  21.145  1.00  0.00     0.178 C 
ENDROOT
BRANCH   1   2
HETATM    2  O   LIG     1      15.906  33.583  20.149  1.00  0.00    -0.322 OA
BRANCH   2   3
HETATM    3  C   LIG     1      15.461  32.512  19.365  1.00  0.00     0.254 C 
HETATM    4  C   LIG     1      14.850  31.326  20.031  1.00  0.00     0.126 C 
HETATM    5  O   LIG     1      15.565  32.542  18.109  1.00  0.00    -0.266 OA
ENDBRANCH   2   3
ENDBRANCH   1   2
BRANCH   1   6
HETATM    6  C   LIG     1      15.590  35.645  21.400  1.00  0.00     0.027 C 
BRANCH   6   7
HETATM    7  C   LIG     1      17.104  35.718  21.656  1.00  0.00     0.002 C 
BRANCH   7   8
HETATM    8  C   LIG     1      17.804  36.751  20.757  1.00  0.00    -0.000 C 
BRANCH   8   9
HETATM    9  C   LIG     1      17.914  38.132  21.422  1.00  0.00    -0.005 C 
HETATM   10  C   LIG     1      18.894  39.058  20.701  1.00  0.00     0.005 C 
ENDBRANCH   8   9
ENDBRANCH   7   8
ENDBRANCH   6   7
ENDBRANCH   1   6
TORSDOF 6
ENDMDL
MODEL 9
REMARK VINA RESULT:      -4.9      3.084      4.922
REMARK  6 active torsions:
REMARK  status: ('A' for Active; 'I' for Inactive)
REMARK    1  A    between atoms: C_2  and  O_3 
REMARK    2  A    between atoms: O_3  and  C_4 
REMARK    3  A    between atoms: C_4  and  C_5 
REMARK    4  A    between atoms: C_5  and  C_6 
REMARK    5  A    between atoms: C_6  and  C_7 
REMARK    6  A    between atoms: C_7  and  C_8 
ROOT
HETATM    1  C   LIG     1      17.622  38.299  22.551  1.00  0.00     0.178 C 
ENDROOT
BRANCH   1   2
HETATM    2  O   LIG     1      18.359  38.268  23.772  1.00  0.00    -0.322 OA
BRANCH   2   3
HETATM    3  C   LIG     1      17.799  37.893  24.999  1.00  0.00     0.254 C 
HETATM    4  C   LIG     1      18.483  36.857  25.825  1.00  0.00     0.126 C 
HETATM    5  O   LIG     1      16.733  38.424  25.413  1.00  0.00    -0.266 OA
ENDBRANCH   2   3
ENDBRANCH   1   2
BRANCH   1   6
HETATM    6  C   LIG     1      17.049  36.911  22.235  1.00  0.00     0.027 C 
BRANCH   6   7
HETATM    7  C   LIG     1      15.514  36.877  22.293  1.00  0.00     0.002 C 
BRANCH   7   8
HETATM    8  C   LIG     1      14.911  35.842  21.327  1.00  0.00    -0.000 C 
BRANCH   8   9
HETATM    9  C   LIG     1      15.986  35.090  20.527  1.00  0.00    -0.005 C 
HETATM   10  C   LIG     1      15.646  33.613  20.326  1.00  0.00     0.005 C 
ENDBRANCH   8   9
ENDBRANCH   7   8
ENDBRANCH   6   7
ENDBRANCH   1   6
TORSDOF 6
ENDMDL
MODEL 10
REMARK VINA RESULT:      -4.9      1.927      5.415
REMARK  6 active torsions:
REMARK  status: ('A' for Active; 'I' for Inactive)
REMARK    1  A    between atoms: C_2  and  O_3 
REMARK    2  A    between atoms: O_3  and  C_4 
REMARK    3  A    between atoms: C_4  and  C_5 
REMARK    4  A    between atoms: C_5  and  C_6 
REMARK    5  A    between atoms: C_6  and  C_7 
REMARK    6  A    between atoms: C_7  and  C_8 
ROOT
HETATM    1  C   LIG     1      17.625  38.242  22.107  1.00  0.00     0.178 C 
ENDROOT
BRANCH   1   2
HETATM    2  O   LIG     1      18.076  38.366  23.455  1.00  0.00    -0.322 OA
BRANCH   2   3
HETATM    3  C   LIG     1      17.378  37.846  24.551  1.00  0.00     0.254 C 
HETATM    4  C   LIG     1      18.122  37.083  25.593  1.00  0.00     0.126 C 
HETATM    5  O   LIG     1      16.134  38.022  24.669  1.00  0.00    -0.266 OA
ENDBRANCH   2   3
ENDBRANCH   1   2
BRANCH   1   6
HETATM    6  C   LIG     1      17.081  36.830  21.852  1.00  0.00     0.027 C 
BRANCH   6   7
HETATM    7  C   LIG     1      17.511  36.267  20.489  1.00  0.00     0.002 C 
BRANCH   7   8
HETATM    8  C   LIG     1      18.900  36.766  20.057  1.00  0.00    -0.000 C 
BRANCH   8   9
HETATM    9  C   LIG     1      18.833  37.735  18.866  1.00  0.00    -0.005 C 
HETATM   10  C   LIG     1      19.652  39.005  19.092  1.00  0.00     0.005 C 
ENDBRANCH   8   9
ENDBRANCH   7   8
ENDBRANCH   6   7
ENDBRANCH   1   6
TORSDOF 6
ENDMDL
MODEL 11
REMARK VINA RESULT:      -4.8      9.438     10.583
REMARK  6 active torsions:
REMARK  status: ('A' for Active; 'I' for Inactive)
REMARK    1  A    between atoms: C_2  and  O_3 
REMARK    2  A    between atoms: O_3  and  C_4 
REMARK    3  A    between atoms: C_4  and  C_5 
REMARK    4  A    between atoms: C_5  and  C_6 
REMARK    5  A    between atoms: C_6  and  C_7 
REMARK    6  A    between atoms: C_7  and  C_8 
ROOT
HETATM    1  C   LIG     1      16.224  32.366  15.089  1.00  0.00     0.178 C 
ENDROOT
BRANCH   1   2
HETATM    2  O   LIG     1      17.440  33.099  15.229  1.00  0.00    -0.322 OA
BRANCH   2   3
HETATM    3  C   LIG     1      17.778  34.191  14.422  1.00  0.00     0.254 C 
HETATM    4  C   LIG     1      18.745  34.000  13.305  1.00  0.00     0.126 C 
HETATM    5  O   LIG     1      17.270  35.328  14.627  1.00  0.00    -0.266 OA
ENDBRANCH   2   3
ENDBRANCH   1   2
BRANCH   1   6
HETATM    6  C   LIG     1      16.005  31.965  13.625  1.00  0.00     0.027 C 
BRANCH   6   7
HETATM    7  C   LIG     1      15.245  30.638  13.481  1.00  0.00     0.002 C 
BRANCH   7   8
HETATM    8  C   LIG     1      14.819  30.053  14.839  1.00  0.00    -0.000 C 
BRANCH   8   9
HETATM    9  C   LIG     1      13.300  30.124  15.059  1.00  0.00    -0.005 C 
HETATM   10  C   LIG     1      12.920  30.935  16.297  1.00  0.00     0.005 C 
ENDBRANCH   8   9
ENDBRANCH   7   8
ENDBRANCH   6   7
ENDBRANCH   1   6
TORSDOF 6
ENDMDL
MODEL 12
REMARK VINA RESULT:      -4.8      4.376      4.760
REMARK  6 active torsions:
REMARK  status: ('A' for Active; 'I' for Inactive)
REMARK    1  A    between atoms: C_2  and  O_3 
REMARK    2  A    between atoms: O_3  and  C_4 
REMARK    3  A    between atoms: C_4  and  C_5 
REMARK    4  A    between atoms: C_5  and  C_6 
REMARK    5  A    between atoms: C_6  and  C_7 
REMARK    6  A    between atoms: C_7  and  C_8 
ROOT
HETATM    1  C   LIG     1      14.941  35.184  21.422  1.00  0.00     0.178 C 
ENDROOT
BRANCH   1   2
HETATM    2  O   LIG     1      15.459  33.884  21.146  1.00  0.00    -0.322 OA
BRANCH   2   3
HETATM    3  C   LIG     1      15.444  33.304  19.873  1.00  0.00     0.254 C 
HETATM    4  C   LIG     1      15.248  31.831  19.745  1.00  0.00     0.126 C 
HETATM    5  O   LIG     1      15.589  34.010  18.838  1.00  0.00    -0.266 OA
ENDBRANCH   2   3
ENDBRANCH   1   2
BRANCH   1   6
HETATM    6  C   LIG     1      16.080  36.154  21.762  1.00  0.00     0.027 C 
BRANCH   6   7
HETATM    7  C   LIG     1      17.242  35.468  22.496  1.00  0.00     0.002 C 
BRANCH   7   8
HETATM    8  C   LIG     1      16.853  34.999  23.908  1.00  0.00    -0.000 C 
BRANCH   8   9
HETATM    9  C   LIG     1      17.517  35.839  25.011  1.00  0.00    -0.005 C 
HETATM   10  C   LIG     1      18.028  34.988  26.173  1.00  0.00     0.005 C 
ENDBRANCH   8   9
ENDBRANCH   7   8
ENDBRANCH   6   7
ENDBRANCH   1   6
TORSDOF 6
ENDMDL
MODEL 13
REMARK VINA RESULT:      -4.7      5.116      5.891
REMARK  6 active torsions:
REMARK  status: ('A' for Active; 'I' for Inactive)
REMARK    1  A    between atoms: C_2  and  O_3 
REMARK    2  A    between atoms: O_3  and  C_4 
REMARK    3  A    between atoms: C_4  and  C_5 
REMARK    4  A    between atoms: C_5  and  C_6 
REMARK    5  A    between atoms: C_6  and  C_7 
REMARK    6  A    between atoms: C_7  and  C_8 
ROOT
HETATM    1  C   LIG     1      15.396  34.050  20.872  1.00  0.00     0.178 C 
ENDROOT
BRANCH   1   2
HETATM    2  O   LIG     1      15.862  33.113  19.903  1.00  0.00    -0.322 OA
BRANCH   2   3
HETATM    3  C   LIG     1      15.043  32.142  19.314  1.00  0.00     0.254 C 
HETATM    4  C   LIG     1      14.722  32.243  17.862  1.00  0.00     0.126 C 
HETATM    5  O   LIG     1      14.583  31.185  19.995  1.00  0.00    -0.266 OA
ENDBRANCH   2   3
ENDBRANCH   1   2
BRANCH   1   6
HETATM    6  C   LIG     1      16.548  34.939  21.356  1.00  0.00     0.027 C 
BRANCH   6   7
HETATM    7  C   LIG     1      16.083  36.352  21.744  1.00  0.00     0.002 C 
BRANCH   7   8
HETATM    8  C   LIG     1      17.254  37.341  21.878  1.00  0.00    -0.000 C 
BRANCH   8   9
HETATM    9  C   LIG     1      17.092  38.284  23.080  1.00  0.00    -0.005 C 
HETATM   10  C   LIG     1      16.923  37.534  24.401  1.00  0.00     0.005 C 
ENDBRANCH   8   9
ENDBRANCH   7   8
ENDBRANCH   6   7
ENDBRANCH   1   6
TORSDOF 6
ENDMDL
MODEL 14
REMARK VINA RESULT:      -4.4      8.785     10.672
REMARK  6 active torsions:
REMARK  status: ('A' for Active; 'I' for Inactive)
REMARK    1  A    between atoms: C_2  and  O_3 
REMARK    2  A    between atoms: O_3  and  C_4 
REMARK    3  A    between atoms: C_4  and  C_5 
REMARK    4  A    between atoms: C_5  and  C_6 
REMARK    5  A    between atoms: C_6  and  C_7 
REMARK    6  A    between atoms: C_7  and  C_8 
ROOT
HETATM    1  C   LIG     1      14.886  32.655  16.957  1.00  0.00     0.178 C 
ENDROOT
BRANCH   1   2
HETATM    2  O   LIG     1      16.209  32.612  16.425  1.00  0.00    -0.322 OA
BRANCH   2   3
HETATM    3  C   LIG     1      16.672  33.491  15.439  1.00  0.00     0.254 C 
HETATM    4  C   LIG     1      17.096  32.945  14.118  1.00  0.00     0.126 C 
HETATM    5  O   LIG     1      16.727  34.733  15.652  1.00  0.00    -0.266 OA
ENDBRANCH   2   3
ENDBRANCH   1   2
BRANCH   1   6
HETATM    6  C   LIG     1      14.277  31.248  16.992  1.00  0.00     0.027 C 
BRANCH   6   7
HETATM    7  C   LIG     1      13.615  30.855  15.662  1.00  0.00     0.002 C 
BRANCH   7   8
HETATM    8  C   LIG     1      14.605  30.205  14.681  1.00  0.00    -0.000 C 
BRANCH   8   9
HETATM    9  C   LIG     1      14.105  28.850  14.153  1.00  0.00    -0.005 C 
HETATM   10  C   LIG     1      15.238  27.965  13.634  1.00  0.00     0.005 C 
ENDBRANCH   8   9
ENDBRANCH   7   8
ENDBRANCH   6   7
ENDBRANCH   1   6
TORSDOF 6
ENDMDL
MODEL 15
REMARK VINA RESULT:      -4.3      2.900      3.705
REMARK  6 active torsions:
REMARK  status: ('A' for Active; 'I' for Inactive)
REMARK    1  A    between atoms: C_2  and  O_3 
REMARK    2  A    between atoms: O_3  and  C_4 
REMARK    3  A    between atoms: C_4  and  C_5 
REMARK    4  A    between atoms: C_5  and  C_6 
REMARK    5  A    between atoms: C_6  and  C_7 
REMARK    6  A    between atoms: C_7  and  C_8 
ROOT
HETATM    1  C   LIG     1      16.883  36.969  22.645  1.00  0.00     0.178 C 
ENDROOT
BRANCH   1   2
HETATM    2  O   LIG     1      16.863  35.914  21.685  1.00  0.00    -0.322 OA
BRANCH   2   3
HETATM    3  C   LIG     1      15.683  35.343  21.192  1.00  0.00     0.254 C 
HETATM    4  C   LIG     1      15.737  33.999  20.551  1.00  0.00     0.126 C 
HETATM    5  O   LIG     1      14.581  35.949  21.290  1.00  0.00    -0.266 OA
ENDBRANCH   2   3
ENDBRANCH   1   2
BRANCH   1   6
HETATM    6  C   LIG     1      16.585  36.423  24.047  1.00  0.00     0.027 C 
BRANCH   6   7
HETATM    7  C   LIG     1      17.460  35.213  24.410  1.00  0.00     0.002 C 
BRANCH   7   8
HETATM    8  C   LIG     1      17.405  34.876  25.910  1.00  0.00    -0.000 C 
BRANCH   8   9
HETATM    9  C   LIG     1      17.971  36.003  26.788  1.00  0.00    -0.005 C 
HETATM   10  C   LIG     1      18.856  36.972  26.004  1.00  0.00     0.005 C 
ENDBRANCH   8   9
ENDBRANCH   7   8
ENDBRANCH   6   7
ENDBRANCH   1   6
TORSDOF 6
ENDMDL
MODEL 16
REMARK VINA RESULT:      -4.2      2.260      3.551
REMARK  6 active torsions:
REMARK  status: ('A' for Active; 'I' for Inactive)
REMARK    1  A    between atoms: C_2  and  O_3 
REMARK    2  A    between atoms: O_3  and  C_4 
REMARK    3  A    between atoms: C_4  and  C_5 
REMARK    4  A    between atoms: C_5  and  C_6 
REMARK    5  A    between atoms: C_6  and  C_7 
REMARK    6  A    between atoms: C_7  and  C_8 
ROOT
HETATM    1  C   LIG     1      19.095  38.956  18.599  1.00  0.00     0.178 C 
ENDROOT
BRANCH   1   2
HETATM    2  O   LIG     1      18.494  37.666  18.497  1.00  0.00    -0.322 OA
BRANCH   2   3
HETATM    3  C   LIG     1      18.729  36.633  19.412  1.00  0.00     0.254 C 
HETATM    4  C   LIG     1      17.622  36.188  20.306  1.00  0.00     0.126 C 
HETATM    5  O   LIG     1      19.858  36.075  19.484  1.00  0.00    -0.266 OA
ENDBRANCH   2   3
ENDBRANCH   1   2
BRANCH   1   6
HETATM    6  C   LIG     1      19.649  39.179  20.012  1.00  0.00     0.027 C 
BRANCH   6   7
HETATM    7  C   LIG     1      18.605  39.769  20.972  1.00  0.00     0.002 C 
BRANCH   7   8
HETATM    8  C   LIG     1      18.561  39.031  22.320  1.00  0.00    -0.000 C 
BRANCH   8   9
HETATM    9  C   LIG     1      17.152  39.010  22.934  1.00  0.00    -0.005 C 
HETATM   10  C   LIG     1      16.811  37.668  23.581  1.00  0.00     0.005 C 
ENDBRANCH   8   9
ENDBRANCH   7   8
ENDBRANCH   6   7
ENDBRANCH   1   6
TORSDOF 6
ENDMDL
MODEL 17
REMARK VINA RESULT:      -4.0      2.098      2.810
REMARK  6 active torsions:
REMARK  status: ('A' for Active; 'I' for Inactive)
REMARK    1  A    between atoms: C_2  and  O_3 
REMARK    2  A    between atoms: O_3  and  C_4 
REMARK    3  A    between atoms: C_4  and  C_5 
REMARK    4  A    between atoms: C_5  and  C_6 
REMARK    5  A    between atoms: C_6  and  C_7 
REMARK    6  A    between atoms: C_7  and  C_8 
ROOT
HETATM    1  C   LIG     1      16.975  35.415  20.700  1.00  0.00     0.178 C 
ENDROOT
BRANCH   1   2
HETATM    2  O   LIG     1      17.408  36.430  19.796  1.00  0.00    -0.322 OA
BRANCH   2   3
HETATM    3  C   LIG     1      18.712  36.940  19.779  1.00  0.00     0.254 C 
HETATM    4  C   LIG     1      18.936  38.376  20.109  1.00  0.00     0.126 C 
HETATM    5  O   LIG     1      19.693  36.200  19.495  1.00  0.00    -0.266 OA
ENDBRANCH   2   3
ENDBRANCH   1   2
BRANCH   1   6
HETATM    6  C   LIG     1      17.053  35.917  22.147  1.00  0.00     0.027 C 
BRANCH   6   7
HETATM    7  C   LIG     1      16.246  37.206  22.371  1.00  0.00     0.002 C 
BRANCH   7   8
HETATM    8  C   LIG     1      16.203  37.624  23.851  1.00  0.00    -0.000 C 
BRANCH   8   9
HETATM    9  C   LIG     1      17.598  37.654  24.494  1.00  0.00    -0.005 C 
HETATM   10  C   LIG     1      18.539  38.649  23.815  1.00  0.00     0.005 C 
ENDBRANCH   8   9
ENDBRANCH   7   8
ENDBRANCH   6   7
ENDBRANCH   1   6
TORSDOF 6
ENDMDL
MODEL 18
REMARK VINA RESULT:      -3.9     11.218     13.053
REMARK  6 active torsions:
REMARK  status: ('A' for Active; 'I' for Inactive)
REMARK    1  A    between atoms: C_2  and  O_3 
REMARK    2  A    between atoms: O_3  and  C_4 
REMARK    3  A    between atoms: C_4  and  C_5 
REMARK    4  A    between atoms: C_5  and  C_6 
REMARK    5  A    between atoms: C_6  and  C_7 
REMARK    6  A    between atoms: C_7  and  C_8 
ROOT
HETATM    1  C   LIG     1      14.746  30.708  14.364  1.00  0.00     0.178 C 
ENDROOT
BRANCH   1   2
HETATM    2  O   LIG     1      16.125  31.073  14.389  1.00  0.00    -0.322 OA
BRANCH   2   3
HETATM    3  C   LIG     1      16.643  32.069  15.225  1.00  0.00     0.254 C 
HETATM    4  C   LIG     1      15.711  32.864  16.075  1.00  0.00     0.126 C 
HETATM    5  O   LIG     1      17.883  32.296  15.270  1.00  0.00    -0.266 OA
ENDBRANCH   2   3
ENDBRANCH   1   2
BRANCH   1   6
HETATM    6  C   LIG     1      14.596  29.195  14.157  1.00  0.00     0.027 C 
BRANCH   6   7
HETATM    7  C   LIG     1      13.127  28.749  14.094  1.00  0.00     0.002 C 
BRANCH   7   8
HETATM    8  C   LIG     1      12.964  27.341  13.496  1.00  0.00    -0.000 C 
BRANCH   8   9
HETATM    9  C   LIG     1      11.606  27.151  12.800  1.00  0.00    -0.005 C 
HETATM   10  C   LIG     1      11.327  25.692  12.441  1.00  0.00     0.005 C 
ENDBRANCH   8   9
ENDBRANCH   7   8
ENDBRANCH   6   7
ENDBRANCH   1   6
TORSDOF 6
ENDMDL
MODEL 19
REMARK VINA RESULT:      -3.9      1.873      3.501
REMARK  6 active torsions:
REMARK  status: ('A' for Active; 'I' for Inactive)
REMARK    1  A    between atoms: C_2  and  O_3 
REMARK    2  A    between atoms: O_3  and  C_4 
REMARK    3  A    between atoms: C_4  and  C_5 
REMARK    4  A    between atoms: C_5  and  C_6 
REMARK    5  A    between atoms: C_6  and  C_7 
REMARK    6  A    between atoms: C_7  and  C_8 
ROOT
HETATM    1  C   LIG     1      18.611  38.123  19.765  1.00  0.00     0.178 C 
ENDROOT
BRANCH   1   2
HETATM    2  O   LIG     1      18.655  39.173  20.730  1.00  0.00    -0.322 OA
BRANCH   2   3
HETATM    3  C   LIG     1      18.061  39.082  21.994  1.00  0.00     0.254 C 
HETATM    4  C   LIG     1      18.929  38.956  23.200  1.00  0.00     0.126 C 
HETATM    5  O   LIG     1      16.807  39.111  22.123  1.00  0.00    -0.266 OA
ENDBRANCH   2   3
ENDBRANCH   1   2
BRANCH   1   6
HETATM    6  C   LIG     1      18.485  36.762  20.459  1.00  0.00     0.027 C 
BRANCH   6   7
HETATM    7  C   LIG     1      17.152  36.062  20.153  1.00  0.00     0.002 C 
BRANCH   7   8
HETATM    8  C   LIG     1      16.310  35.819  21.418  1.00  0.00    -0.000 C 
BRANCH   8   9
HETATM    9  C   LIG     1      17.084  35.050  22.501  1.00  0.00    -0.005 C 
HETATM   10  C   LIG     1      17.088  35.773  23.848  1.00  0.00     0.005 C 
ENDBRANCH   8   9
ENDBRANCH   7   8
ENDBRANCH   6   7
ENDBRANCH   1   6
TORSDOF 6
ENDMDL
MODEL 20
REMARK VINA RESULT:      -3.7     10.576     12.783
REMARK  6 active torsions:
REMARK  status: ('A' for Active; 'I' for Inactive)
REMARK    1  A    between atoms: C_2  and  O_3 
REMARK    2  A    between atoms: O_3  and  C_4 
REMARK    3  A    between atoms: C_4  and  C_5 
REMARK    4  A    between atoms: C_5  and  C_6 
REMARK    5  A    between atoms: C_6  and  C_7 
REMARK    6  A    between atoms: C_7  and  C_8 
ROOT
HETATM    1  C   LIG     1      15.136  30.916  14.154  1.00  0.00     0.178 C 
ENDROOT
BRANCH   1   2
HETATM    2  O   LIG     1      16.276  31.764  14.028  1.00  0.00    -0.322 OA
BRANCH   2   3
HETATM    3  C   LIG     1      16.794  32.520  15.087  1.00  0.00     0.254 C 
HETATM    4  C   LIG     1      15.856  33.150  16.059  1.00  0.00     0.126 C 
HETATM    5  O   LIG     1      18.039  32.667  15.228  1.00  0.00    -0.266 OA
ENDBRANCH   2   3
ENDBRANCH   1   2
BRANCH   1   6
HETATM    6  C   LIG     1      15.515  29.461  13.850  1.00  0.00     0.027 C 
BRANCH   6   7
HETATM    7  C   LIG     1      14.317  28.503  13.951  1.00  0.00     0.002 C 
BRANCH   7   8
HETATM    8  C   LIG     1      14.532  27.206  13.152  1.00  0.00    -0.000 C 
BRANCH   8   9
HETATM    9  C   LIG     1      15.879  27.187  12.412  1.00  0.00    -0.005 C 
HETATM   10  C   LIG     1      15.796  26.490  11.055  1.00  0.00     0.005 C 
ENDBRANCH   8   9
ENDBRANCH   7   8
ENDBRANCH   6   7
ENDBRANCH   1   6
TORSDOF 6
ENDMDL
