REMARK  0 active torsions:
REMARK  status: ('A' for Active; 'I' for Inactive)
ROOT
HETATM    1  C   LIG     1      -0.410  -1.045   0.543  1.00  0.00     0.004 C 
HETATM    2  C   LIG     1      -1.361  -0.088  -0.178  1.00  0.00     0.026 C 
HETATM    3  C   LIG     1      -0.744   1.315  -0.243  1.00  0.00     0.167 C 
HETATM    4  O   LIG     1       0.516   1.283  -0.890  1.00  0.00    -0.391 OA
HETATM    5  C   LIG     1       1.433   0.520  -0.127  1.00  0.00     0.167 C 
HETATM    6  C   LIG     1       0.996  -0.948  -0.053  1.00  0.00     0.026 C 
ENDROOT
TORSDOF 0
