MODEL 1
REMARK VINA RESULT:      -3.6      0.000      0.000
REMARK  2 active torsions:
REMARK  status: ('A' for Active; 'I' for Inactive)
REMARK    1  A    between atoms: C_2  and  C_3 
REMARK    2  A    between atoms: C_3  and  C_4 
ROOT
HETATM    1  C   LIG     1      18.527  36.758  26.291  1.00  0.00     0.030 C 
ENDROOT
BRANCH   1   2
HETATM    2  C   LIG     1      17.437  37.610  25.635  1.00  0.00     0.115 C 
HETATM    3 CL   LIG     1      17.979  38.259  24.063  1.00  0.00    -0.130 Cl
ENDBRANCH   1   2
BRANCH   1   4
HETATM    4  C   LIG     1      18.156  35.275  26.321  1.00  0.00     0.115 C 
HETATM    5 CL   LIG     1      17.318  34.825  24.815  1.00  0.00    -0.130 Cl
ENDBRANCH   1   4
TORSDOF 2
ENDMDL
MODEL 2
REMARK VINA RESULT:      -3.4      1.033      2.921
REMARK  2 active torsions:
REMARK  status: ('A' for Active; 'I' for Inactive)
REMARK    1  A    between atoms: C_2  and  C_3 
REMARK    2  A    between atoms: C_3  and  C_4 
ROOT
HETATM    1  C   LIG     1      17.579  37.546  25.739  1.00  0.00     0.030 C 
ENDROOT
BRANCH   1   2
HETATM    2  C   LIG     1      18.379  36.509  26.532  1.00  0.00     0.115 C 
HETATM    3 CL   LIG     1      17.896  34.846  26.098  1.00  0.00    -0.130 Cl
ENDBRANCH   1   2
BRANCH   1   4
HETATM    4  C   LIG     1      17.136  37.010  24.377  1.00  0.00     0.115 C 
HETATM    5 CL   LIG     1      17.519  38.193  23.102  1.00  0.00    -0.130 Cl
ENDBRANCH   1   4
TORSDOF 2
ENDMDL
MODEL 3
REMARK VINA RESULT:      -3.1      2.916      3.686
REMARK  2 active torsions:
REMARK  status: ('A' for Active; 'I' for Inactive)
REMARK    1  A    between atoms: C_2  and  C_3 
REMARK    2  A    between atoms: C_3  and  C_4 
ROOT
HETATM    1  C   LIG     1      17.057  35.286  23.441  1.00  0.00     0.030 C 
ENDROOT
BRANCH   1   2
HETATM    2  C   LIG     1      17.338  35.978  24.778  1.00  0.00     0.115 C 
HETATM    3 CL   LIG     1      17.768  34.795  26.043  1.00  0.00    -0.130 Cl
ENDBRANCH   1   2
BRANCH   1   4
HETATM    4  C   LIG     1      16.559  36.268  22.380  1.00  0.00     0.115 C 
HETATM    5 CL   LIG     1      17.545  36.124  20.903  1.00  0.00    -0.130 Cl
ENDBRANCH   1   4
TORSDOF 2
ENDMDL
MODEL 4
REMARK VINA RESULT:      -3.1      4.374      4.676
REMARK  2 active torsions:
REMARK  status: ('A' for Active; 'I' for Inactive)
REMARK    1  A    between atoms: C_2  and  C_3 
REMARK    2  A    between atoms: C_3  and  C_4 
ROOT
HETATM    1  C   LIG     1      17.538  37.550  21.548  1.00  0.00     0.030 C 
ENDROOT
BRANCH   1   2
HETATM    2  C   LIG     1      18.584  38.125  20.589  1.00  0.00     0.115 C 
HETATM    3 CL   LIG     1      19.252  36.859  19.522  1.00  0.00    -0.130 Cl
ENDBRANCH   1   2
BRANCH   1   4
HETATM    4  C   LIG     1      17.092  36.147  21.136  1.00  0.00     0.115 C 
HETATM    5 CL   LIG     1      17.034  35.081  22.562  1.00  0.00    -0.130 Cl
ENDBRANCH   1   4
TORSDOF 2
ENDMDL
MODEL 5
REMARK VINA RESULT:      -3.0      2.868      3.867
REMARK  2 active torsions:
REMARK  status: ('A' for Active; 'I' for Inactive)
REMARK    1  A    between atoms: C_2  and  C_3 
REMARK    2  A    between atoms: C_3  and  C_4 
ROOT
HETATM    1  C   LIG     1      16.269  37.779  22.765  1.00  0.00     0.030 C 
ENDROOT
BRANCH   1   2
HETATM    2  C   LIG     1      16.802  36.611  21.929  1.00  0.00     0.115 C 
HETATM    3 CL   LIG     1      17.018  35.146  22.925  1.00  0.00    -0.130 Cl
ENDBRANCH   1   2
BRANCH   1   4
HETATM    4  C   LIG     1      17.381  38.474  23.554  1.00  0.00     0.115 C 
HETATM    5 CL   LIG     1      17.254  38.059  25.281  1.00  0.00    -0.130 Cl
ENDBRANCH   1   4
TORSDOF 2
ENDMDL
MODEL 6
REMARK VINA RESULT:      -2.9      4.501      5.259
REMARK  2 active torsions:
REMARK  status: ('A' for Active; 'I' for Inactive)
REMARK    1  A    between atoms: C_2  and  C_3 
REMARK    2  A    between atoms: C_3  and  C_4 
ROOT
HETATM    1  C   LIG     1      18.307  37.540  20.655  1.00  0.00     0.030 C 
ENDROOT
BRANCH   1   2
HETATM    2  C   LIG     1      18.966  38.921  20.595  1.00  0.00     0.115 C 
HETATM    3 CL   LIG     1      20.355  38.929  19.473  1.00  0.00    -0.130 Cl
ENDBRANCH   1   2
BRANCH   1   4
HETATM    4  C   LIG     1      17.329  37.422  21.825  1.00  0.00     0.115 C 
HETATM    5 CL   LIG     1      16.880  39.043  22.411  1.00  0.00    -0.130 Cl
ENDBRANCH   1   4
TORSDOF 2
ENDMDL
MODEL 7
REMARK VINA RESULT:      -2.9      3.303      3.420
REMARK  2 active torsions:
REMARK  status: ('A' for Active; 'I' for Inactive)
REMARK    1  A    between atoms: C_2  and  C_3 
REMARK    2  A    between atoms: C_3  and  C_4 
ROOT
HETATM    1  C   LIG     1      17.327  37.713  21.932  1.00  0.00     0.030 C 
ENDROOT
BRANCH   1   2
HETATM    2  C   LIG     1      17.124  38.836  22.953  1.00  0.00     0.115 C 
HETATM    3 CL   LIG     1      17.408  38.258  24.618  1.00  0.00    -0.130 Cl
ENDBRANCH   1   2
BRANCH   1   4
HETATM    4  C   LIG     1      16.269  36.617  22.067  1.00  0.00     0.115 C 
HETATM    5 CL   LIG     1      16.986  35.166  22.810  1.00  0.00    -0.130 Cl
ENDBRANCH   1   4
TORSDOF 2
ENDMDL
MODEL 8
REMARK VINA RESULT:      -2.9      3.886      4.977
REMARK  2 active torsions:
REMARK  status: ('A' for Active; 'I' for Inactive)
REMARK    1  A    between atoms: C_2  and  C_3 
REMARK    2  A    between atoms: C_3  and  C_4 
ROOT
HETATM    1  C   LIG     1      17.542  36.957  21.129  1.00  0.00     0.030 C 
ENDROOT
BRANCH   1   2
HETATM    2  C   LIG     1      16.461  36.037  21.703  1.00  0.00     0.115 C 
HETATM    3 CL   LIG     1      17.060  35.140  23.125  1.00  0.00    -0.130 Cl
ENDBRANCH   1   2
BRANCH   1   4
HETATM    4  C   LIG     1      17.644  38.274  21.901  1.00  0.00     0.115 C 
HETATM    5 CL   LIG     1      18.735  39.397  21.051  1.00  0.00    -0.130 Cl
ENDBRANCH   1   4
TORSDOF 2
ENDMDL
MODEL 9
REMARK VINA RESULT:      -2.9      2.852      4.000
REMARK  2 active torsions:
REMARK  status: ('A' for Active; 'I' for Inactive)
REMARK    1  A    between atoms: C_2  and  C_3 
REMARK    2  A    between atoms: C_3  and  C_4 
ROOT
HETATM    1  C   LIG     1      16.863  37.439  22.969  1.00  0.00     0.030 C 
ENDROOT
BRANCH   1   2
HETATM    2  C   LIG     1      17.476  38.405  23.987  1.00  0.00     0.115 C 
HETATM    3 CL   LIG     1      17.349  37.763  25.648  1.00  0.00    -0.130 Cl
ENDBRANCH   1   2
BRANCH   1   4
HETATM    4  C   LIG     1      17.528  37.556  21.596  1.00  0.00     0.115 C 
HETATM    5 CL   LIG     1      18.275  39.162  21.414  1.00  0.00    -0.130 Cl
ENDBRANCH   1   4
TORSDOF 2
ENDMDL
MODEL 10
REMARK VINA RESULT:      -2.8      9.030      9.538
REMARK  2 active torsions:
REMARK  status: ('A' for Active; 'I' for Inactive)
REMARK    1  A    between atoms: C_2  and  C_3 
REMARK    2  A    between atoms: C_3  and  C_4 
ROOT
HETATM    1  C   LIG     1      15.097  32.574  17.882  1.00  0.00     0.030 C 
ENDROOT
BRANCH   1   2
HETATM    2  C   LIG     1      13.943  31.651  17.483  1.00  0.00     0.115 C 
HETATM    3 CL   LIG     1      14.177  30.991  15.841  1.00  0.00    -0.130 Cl
ENDBRANCH   1   2
BRANCH   1   4
HETATM    4  C   LIG     1      15.312  32.603  19.396  1.00  0.00     0.115 C 
HETATM    5 CL   LIG     1      14.840  31.040  20.109  1.00  0.00    -0.130 Cl
ENDBRANCH   1   4
TORSDOF 2
ENDMDL
MODEL 11
REMARK VINA RESULT:      -2.8     12.977     13.223
REMARK  2 active torsions:
REMARK  status: ('A' for Active; 'I' for Inactive)
REMARK    1  A    between atoms: C_2  and  C_3 
REMARK    2  A    between atoms: C_3  and  C_4 
ROOT
HETATM    1  C   LIG     1      14.961  29.565  14.231  1.00  0.00     0.030 C 
ENDROOT
BRANCH   1   2
HETATM    2  C   LIG     1      13.446  29.539  14.451  1.00  0.00     0.115 C 
HETATM    3 CL   LIG     1      12.970  30.579  15.821  1.00  0.00    -0.130 Cl
ENDBRANCH   1   2
BRANCH   1   4
HETATM    4  C   LIG     1      15.409  30.814  13.469  1.00  0.00     0.115 C 
HETATM    5 CL   LIG     1      15.954  32.064  14.614  1.00  0.00    -0.130 Cl
ENDBRANCH   1   4
TORSDOF 2
ENDMDL
MODEL 12
REMARK VINA RESULT:      -2.8      9.623     10.178
REMARK  2 active torsions:
REMARK  status: ('A' for Active; 'I' for Inactive)
REMARK    1  A    between atoms: C_2  and  C_3 
REMARK    2  A    between atoms: C_3  and  C_4 
ROOT
HETATM    1  C   LIG     1      14.110  31.839  17.608  1.00  0.00     0.030 C 
ENDROOT
BRANCH   1   2
HETATM    2  C   LIG     1      15.001  32.263  18.778  1.00  0.00     0.115 C 
HETATM    3 CL   LIG     1      14.844  31.138  20.154  1.00  0.00    -0.130 Cl
ENDBRANCH   1   2
BRANCH   1   4
HETATM    4  C   LIG     1      14.798  32.046  16.257  1.00  0.00     0.115 C 
HETATM    5 CL   LIG     1      14.427  30.687  15.169  1.00  0.00    -0.130 Cl
ENDBRANCH   1   4
TORSDOF 2
ENDMDL
MODEL 13
REMARK VINA RESULT:      -2.8     12.367     12.710
REMARK  2 active torsions:
REMARK  status: ('A' for Active; 'I' for Inactive)
REMARK    1  A    between atoms: C_2  and  C_3 
REMARK    2  A    between atoms: C_3  and  C_4 
ROOT
HETATM    1  C   LIG     1      14.538  29.971  14.516  1.00  0.00     0.030 C 
ENDROOT
BRANCH   1   2
HETATM    2  C   LIG     1      15.390  30.536  13.376  1.00  0.00     0.115 C 
HETATM    3 CL   LIG     1      16.016  32.159  13.776  1.00  0.00    -0.130 Cl
ENDBRANCH   1   2
BRANCH   1   4
HETATM    4  C   LIG     1      14.361  30.978  15.653  1.00  0.00     0.115 C 
HETATM    5 CL   LIG     1      12.713  30.862  16.320  1.00  0.00    -0.130 Cl
ENDBRANCH   1   4
TORSDOF 2
ENDMDL
MODEL 14
REMARK VINA RESULT:      -2.8     11.524     11.941
REMARK  2 active torsions:
REMARK  status: ('A' for Active; 'I' for Inactive)
REMARK    1  A    between atoms: C_2  and  C_3 
REMARK    2  A    between atoms: C_3  and  C_4 
ROOT
HETATM    1  C   LIG     1      13.182  30.622  15.796  1.00  0.00     0.030 C 
ENDROOT
BRANCH   1   2
HETATM    2  C   LIG     1      12.983  31.758  16.803  1.00  0.00     0.115 C 
HETATM    3 CL   LIG     1      14.298  31.796  18.008  1.00  0.00    -0.130 Cl
ENDBRANCH   1   2
BRANCH   1   4
HETATM    4  C   LIG     1      14.537  30.710  15.093  1.00  0.00     0.115 C 
HETATM    5 CL   LIG     1      14.796  29.264  14.084  1.00  0.00    -0.130 Cl
ENDBRANCH   1   4
TORSDOF 2
ENDMDL
MODEL 15
REMARK VINA RESULT:      -2.8     10.957     11.419
REMARK  2 active torsions:
REMARK  status: ('A' for Active; 'I' for Inactive)
REMARK    1  A    between atoms: C_2  and  C_3 
REMARK    2  A    between atoms: C_3  and  C_4 
ROOT
HETATM    1  C   LIG     1      13.224  30.843  16.411  1.00  0.00     0.030 C 
ENDROOT
BRANCH   1   2
HETATM    2  C   LIG     1      13.834  30.360  15.092  1.00  0.00     0.115 C 
HETATM    3 CL   LIG     1      15.394  31.164  14.765  1.00  0.00    -0.130 Cl
ENDBRANCH   1   2
BRANCH   1   4
HETATM    4  C   LIG     1      13.961  32.061  16.971  1.00  0.00     0.115 C 
HETATM    5 CL   LIG     1      14.529  31.723  18.625  1.00  0.00    -0.130 Cl
ENDBRANCH   1   4
TORSDOF 2
ENDMDL
MODEL 16
REMARK VINA RESULT:      -2.7     12.385     12.975
REMARK  2 active torsions:
REMARK  status: ('A' for Active; 'I' for Inactive)
REMARK    1  A    between atoms: C_2  and  C_3 
REMARK    2  A    between atoms: C_3  and  C_4 
ROOT
HETATM    1  C   LIG     1      13.855  30.200  14.933  1.00  0.00     0.030 C 
ENDROOT
BRANCH   1   2
HETATM    2  C   LIG     1      15.061  29.905  14.037  1.00  0.00     0.115 C 
HETATM    3 CL   LIG     1      15.244  28.153  13.752  1.00  0.00    -0.130 Cl
ENDBRANCH   1   2
BRANCH   1   4
HETATM    4  C   LIG     1      14.204  31.170  16.064  1.00  0.00     0.115 C 
HETATM    5 CL   LIG     1      12.714  31.847  16.768  1.00  0.00    -0.130 Cl
ENDBRANCH   1   4
TORSDOF 2
ENDMDL
MODEL 17
REMARK VINA RESULT:      -2.7     13.900     14.540
REMARK  2 active torsions:
REMARK  status: ('A' for Active; 'I' for Inactive)
REMARK    1  A    between atoms: C_2  and  C_3 
REMARK    2  A    between atoms: C_3  and  C_4 
ROOT
HETATM    1  C   LIG     1      15.281  29.087  13.748  1.00  0.00     0.030 C 
ENDROOT
BRANCH   1   2
HETATM    2  C   LIG     1      15.284  27.567  13.558  1.00  0.00     0.115 C 
HETATM    3 CL   LIG     1      15.961  27.112  11.971  1.00  0.00    -0.130 Cl
ENDBRANCH   1   2
BRANCH   1   4
HETATM    4  C   LIG     1      13.960  29.590  14.332  1.00  0.00     0.115 C 
HETATM    5 CL   LIG     1      14.273  30.847  15.555  1.00  0.00    -0.130 Cl
ENDBRANCH   1   4
TORSDOF 2
ENDMDL
MODEL 18
REMARK VINA RESULT:      -2.6     13.193     13.657
REMARK  2 active torsions:
REMARK  status: ('A' for Active; 'I' for Inactive)
REMARK    1  A    between atoms: C_2  and  C_3 
REMARK    2  A    between atoms: C_3  and  C_4 
ROOT
HETATM    1  C   LIG     1      14.806  30.017  14.504  1.00  0.00     0.030 C 
ENDROOT
BRANCH   1   2
HETATM    2  C   LIG     1      13.301  29.884  14.754  1.00  0.00     0.115 C 
HETATM    3 CL   LIG     1      12.808  30.757  16.230  1.00  0.00    -0.130 Cl
ENDBRANCH   1   2
BRANCH   1   4
HETATM    4  C   LIG     1      15.374  28.806  13.761  1.00  0.00     0.115 C 
HETATM    5 CL   LIG     1      14.154  27.510  13.686  1.00  0.00    -0.130 Cl
ENDBRANCH   1   4
TORSDOF 2
ENDMDL
MODEL 19
REMARK VINA RESULT:      -2.6     12.742     13.290
REMARK  2 active torsions:
REMARK  status: ('A' for Active; 'I' for Inactive)
REMARK    1  A    between atoms: C_2  and  C_3 
REMARK    2  A    between atoms: C_3  and  C_4 
ROOT
HETATM    1  C   LIG     1      14.939  30.727  14.844  1.00  0.00     0.030 C 
ENDROOT
BRANCH   1   2
HETATM    2  C   LIG     1      15.297  29.985  13.553  1.00  0.00     0.115 C 
HETATM    3 CL   LIG     1      15.295  28.217  13.799  1.00  0.00    -0.130 Cl
ENDBRANCH   1   2
BRANCH   1   4
HETATM    4  C   LIG     1      15.718  32.036  14.988  1.00  0.00     0.115 C 
HETATM    5 CL   LIG     1      16.441  32.491  13.426  1.00  0.00    -0.130 Cl
ENDBRANCH   1   4
TORSDOF 2
ENDMDL
MODEL 20
REMARK VINA RESULT:      -2.5     13.129     13.429
REMARK  2 active torsions:
REMARK  status: ('A' for Active; 'I' for Inactive)
REMARK    1  A    between atoms: C_2  and  C_3 
REMARK    2  A    between atoms: C_3  and  C_4 
ROOT
HETATM    1  C   LIG     1      14.560  30.313  14.662  1.00  0.00     0.030 C 
ENDROOT
BRANCH   1   2
HETATM    2  C   LIG     1      15.473  30.949  13.610  1.00  0.00     0.115 C 
HETATM    3 CL   LIG     1      16.385  32.326  14.289  1.00  0.00    -0.130 Cl
ENDBRANCH   1   2
BRANCH   1   4
HETATM    4  C   LIG     1      13.901  29.031  14.150  1.00  0.00     0.115 C 
HETATM    5 CL   LIG     1      15.148  27.861  13.652  1.00  0.00    -0.130 Cl
ENDBRANCH   1   4
TORSDOF 2
ENDMDL
