MODEL 1
REMARK VINA RESULT:      -5.6      0.000      0.000
REMARK  6 active torsions:
REMARK  status: ('A' for Active; 'I' for Inactive)
REMARK    1  A    between atoms: C_2  and  C_3 
REMARK    2  A    between atoms: C_3  and  C_4 
REMARK    3  A    between atoms: C_4  and  O_5 
REMARK    4  A    between atoms: O_5  and  C_6 
REMARK    5  A    between atoms: C_6  and  C_7 
REMARK    6  A    between atoms: C_7  and  C_8 
ROOT
HETATM    1  O   LIG     1      16.370  38.040  24.540  1.00  0.00    -0.391 OA
ENDROOT
BRANCH   1   2
HETATM    2  C   LIG     1      17.281  38.186  25.615  1.00  0.00     0.167 C 
BRANCH   2   3
HETATM    3  C   LIG     1      18.422  37.166  25.507  1.00  0.00     0.026 C 
BRANCH   3   4
HETATM    4  C   LIG     1      18.396  36.160  26.665  1.00  0.00    -0.002 C 
HETATM    5  C   LIG     1      17.888  34.799  26.200  1.00  0.00     0.005 C 
ENDBRANCH   3   4
ENDBRANCH   2   3
ENDBRANCH   1   2
BRANCH   1   6
HETATM    6  C   LIG     1      17.016  37.562  23.373  1.00  0.00     0.167 C 
BRANCH   6   7
HETATM    7  C   LIG     1      17.140  38.668  22.314  1.00  0.00     0.026 C 
BRANCH   7   8
HETATM    8  C   LIG     1      18.594  39.073  22.013  1.00  0.00    -0.002 C 
HETATM    9  C   LIG     1      18.837  39.344  20.528  1.00  0.00     0.005 C 
ENDBRANCH   7   8
ENDBRANCH   6   7
ENDBRANCH   1   6
TORSDOF 6
ENDMDL
MODEL 2
REMARK VINA RESULT:      -5.5      0.440      4.674
REMARK  6 active torsions:
REMARK  status: ('A' for Active; 'I' for Inactive)
REMARK    1  A    between atoms: C_2  and  C_3 
REMARK    2  A    between atoms: C_3  and  C_4 
REMARK    3  A    between atoms: C_4  and  O_5 
REMARK    4  A    between atoms: O_5  and  C_6 
REMARK    5  A    between atoms: C_6  and  C_7 
REMARK    6  A    between atoms: C_7  and  C_8 
ROOT
HETATM    1  O   LIG     1      16.275  37.814  24.502  1.00  0.00    -0.391 OA
ENDROOT
BRANCH   1   2
HETATM    2  C   LIG     1      16.824  37.595  23.214  1.00  0.00     0.167 C 
BRANCH   2   3
HETATM    3  C   LIG     1      16.966  38.916  22.447  1.00  0.00     0.026 C 
BRANCH   3   4
HETATM    4  C   LIG     1      18.379  39.094  21.878  1.00  0.00    -0.002 C 
HETATM    5  C   LIG     1      18.596  38.205  20.657  1.00  0.00     0.005 C 
ENDBRANCH   3   4
ENDBRANCH   2   3
ENDBRANCH   1   2
BRANCH   1   6
HETATM    6  C   LIG     1      17.264  38.239  25.422  1.00  0.00     0.167 C 
BRANCH   6   7
HETATM    7  C   LIG     1      18.433  37.244  25.480  1.00  0.00     0.026 C 
BRANCH   7   8
HETATM    8  C   LIG     1      18.341  36.253  26.655  1.00  0.00    -0.002 C 
HETATM    9  C   LIG     1      17.978  34.837  26.208  1.00  0.00     0.005 C 
ENDBRANCH   7   8
ENDBRANCH   6   7
ENDBRANCH   1   6
TORSDOF 6
ENDMDL
MODEL 3
REMARK VINA RESULT:      -5.5      1.477      4.330
REMARK  6 active torsions:
REMARK  status: ('A' for Active; 'I' for Inactive)
REMARK    1  A    between atoms: C_2  and  C_3 
REMARK    2  A    between atoms: C_3  and  C_4 
REMARK    3  A    between atoms: C_4  and  O_5 
REMARK    4  A    between atoms: O_5  and  C_6 
REMARK    5  A    between atoms: C_6  and  C_7 
REMARK    6  A    between atoms: C_7  and  C_8 
ROOT
HETATM    1  O   LIG     1      16.018  38.008  24.256  1.00  0.00    -0.391 OA
ENDROOT
BRANCH   1   2
HETATM    2  C   LIG     1      15.852  37.753  22.873  1.00  0.00     0.167 C 
BRANCH   2   3
HETATM    3  C   LIG     1      17.208  37.702  22.158  1.00  0.00     0.026 C 
BRANCH   3   4
HETATM    4  C   LIG     1      17.313  36.491  21.222  1.00  0.00    -0.002 C 
HETATM    5  C   LIG     1      16.933  35.203  21.945  1.00  0.00     0.005 C 
ENDBRANCH   3   4
ENDBRANCH   2   3
ENDBRANCH   1   2
BRANCH   1   6
HETATM    6  C   LIG     1      17.387  38.135  24.599  1.00  0.00     0.167 C 
BRANCH   6   7
HETATM    7  C   LIG     1      17.750  37.223  25.781  1.00  0.00     0.026 C 
BRANCH   7   8
HETATM    8  C   LIG     1      17.542  35.726  25.491  1.00  0.00    -0.002 C 
HETATM    9  C   LIG     1      18.398  34.826  26.382  1.00  0.00     0.005 C 
ENDBRANCH   7   8
ENDBRANCH   6   7
ENDBRANCH   1   6
TORSDOF 6
ENDMDL
MODEL 4
REMARK VINA RESULT:      -5.4      1.446      2.049
REMARK  6 active torsions:
REMARK  status: ('A' for Active; 'I' for Inactive)
REMARK    1  A    between atoms: C_2  and  C_3 
REMARK    2  A    between atoms: C_3  and  C_4 
REMARK    3  A    between atoms: C_4  and  O_5 
REMARK    4  A    between atoms: O_5  and  C_6 
REMARK    5  A    between atoms: C_6  and  C_7 
REMARK    6  A    between atoms: C_7  and  C_8 
ROOT
HETATM    1  O   LIG     1      16.129  38.169  24.293  1.00  0.00    -0.391 OA
ENDROOT
BRANCH   1   2
HETATM    2  C   LIG     1      17.493  38.037  24.656  1.00  0.00     0.167 C 
BRANCH   2   3
HETATM    3  C   LIG     1      17.630  37.448  26.066  1.00  0.00     0.026 C 
BRANCH   3   4
HETATM    4  C   LIG     1      18.363  36.101  26.050  1.00  0.00    -0.002 C 
HETATM    5  C   LIG     1      17.410  34.960  25.710  1.00  0.00     0.005 C 
ENDBRANCH   3   4
ENDBRANCH   2   3
ENDBRANCH   1   2
BRANCH   1   6
HETATM    6  C   LIG     1      15.873  37.594  23.024  1.00  0.00     0.167 C 
BRANCH   6   7
HETATM    7  C   LIG     1      17.104  37.695  22.110  1.00  0.00     0.026 C 
BRANCH   7   8
HETATM    8  C   LIG     1      17.351  36.432  21.266  1.00  0.00    -0.002 C 
HETATM    9  C   LIG     1      16.976  35.146  22.002  1.00  0.00     0.005 C 
ENDBRANCH   7   8
ENDBRANCH   6   7
ENDBRANCH   1   6
TORSDOF 6
ENDMDL
MODEL 5
REMARK VINA RESULT:      -4.9      1.225      4.836
REMARK  6 active torsions:
REMARK  status: ('A' for Active; 'I' for Inactive)
REMARK    1  A    between atoms: C_2  and  C_3 
REMARK    2  A    between atoms: C_3  and  C_4 
REMARK    3  A    between atoms: C_4  and  O_5 
REMARK    4  A    between atoms: O_5  and  C_6 
REMARK    5  A    between atoms: C_6  and  C_7 
REMARK    6  A    between atoms: C_7  and  C_8 
ROOT
HETATM    1  O   LIG     1      16.762  38.313  23.139  1.00  0.00    -0.391 OA
ENDROOT
BRANCH   1   2
HETATM    2  C   LIG     1      17.417  37.810  21.988  1.00  0.00     0.167 C 
BRANCH   2   3
HETATM    3  C   LIG     1      18.197  38.921  21.272  1.00  0.00     0.026 C 
BRANCH   3   4
HETATM    4  C   LIG     1      18.925  38.394  20.029  1.00  0.00    -0.002 C 
HETATM    5  C   LIG     1      18.700  36.895  19.854  1.00  0.00     0.005 C 
ENDBRANCH   3   4
ENDBRANCH   2   3
ENDBRANCH   1   2
BRANCH   1   6
HETATM    6  C   LIG     1      16.720  37.348  24.175  1.00  0.00     0.167 C 
BRANCH   6   7
HETATM    7  C   LIG     1      17.437  37.854  25.436  1.00  0.00     0.026 C 
BRANCH   7   8
HETATM    8  C   LIG     1      18.205  36.755  26.192  1.00  0.00    -0.002 C 
HETATM    9  C   LIG     1      17.752  35.346  25.808  1.00  0.00     0.005 C 
ENDBRANCH   7   8
ENDBRANCH   6   7
ENDBRANCH   1   6
TORSDOF 6
ENDMDL
MODEL 6
REMARK VINA RESULT:      -4.8      2.136      2.796
REMARK  6 active torsions:
REMARK  status: ('A' for Active; 'I' for Inactive)
REMARK    1  A    between atoms: C_2  and  C_3 
REMARK    2  A    between atoms: C_3  and  C_4 
REMARK    3  A    between atoms: C_4  and  O_5 
REMARK    4  A    between atoms: O_5  and  C_6 
REMARK    5  A    between atoms: C_6  and  C_7 
REMARK    6  A    between atoms: C_7  and  C_8 
ROOT
HETATM    1  O   LIG     1      16.737  37.792  23.660  1.00  0.00    -0.391 OA
ENDROOT
BRANCH   1   2
HETATM    2  C   LIG     1      17.084  36.799  24.610  1.00  0.00     0.167 C 
BRANCH   2   3
HETATM    3  C   LIG     1      18.086  37.348  25.634  1.00  0.00     0.026 C 
BRANCH   3   4
HETATM    4  C   LIG     1      18.414  36.313  26.719  1.00  0.00    -0.002 C 
HETATM    5  C   LIG     1      18.104  34.898  26.241  1.00  0.00     0.005 C 
ENDBRANCH   3   4
ENDBRANCH   2   3
ENDBRANCH   1   2
BRANCH   1   6
HETATM    6  C   LIG     1      17.023  37.367  22.338  1.00  0.00     0.167 C 
BRANCH   6   7
HETATM    7  C   LIG     1      16.010  36.315  21.862  1.00  0.00     0.026 C 
BRANCH   7   8
HETATM    8  C   LIG     1      16.657  34.985  21.437  1.00  0.00    -0.002 C 
HETATM    9  C   LIG     1      15.712  34.100  20.625  1.00  0.00     0.005 C 
ENDBRANCH   7   8
ENDBRANCH   6   7
ENDBRANCH   1   6
TORSDOF 6
ENDMDL
MODEL 7
REMARK VINA RESULT:      -4.8      1.948      2.095
REMARK  6 active torsions:
REMARK  status: ('A' for Active; 'I' for Inactive)
REMARK    1  A    between atoms: C_2  and  C_3 
REMARK    2  A    between atoms: C_3  and  C_4 
REMARK    3  A    between atoms: C_4  and  O_5 
REMARK    4  A    between atoms: O_5  and  C_6 
REMARK    5  A    between atoms: C_6  and  C_7 
REMARK    6  A    between atoms: C_7  and  C_8 
ROOT
HETATM    1  O   LIG     1      17.162  35.762  22.833  1.00  0.00    -0.391 OA
ENDROOT
BRANCH   1   2
HETATM    2  C   LIG     1      17.044  35.469  24.214  1.00  0.00     0.167 C 
BRANCH   2   3
HETATM    3  C   LIG     1      17.375  36.701  25.066  1.00  0.00     0.026 C 
BRANCH   3   4
HETATM    4  C   LIG     1      18.300  36.350  26.239  1.00  0.00    -0.002 C 
HETATM    5  C   LIG     1      18.404  34.839  26.423  1.00  0.00     0.005 C 
ENDBRANCH   3   4
ENDBRANCH   2   3
ENDBRANCH   1   2
BRANCH   1   6
HETATM    6  C   LIG     1      16.825  37.111  22.559  1.00  0.00     0.167 C 
BRANCH   6   7
HETATM    7  C   LIG     1      17.642  37.658  21.378  1.00  0.00     0.026 C 
BRANCH   7   8
HETATM    8  C   LIG     1      17.995  36.592  20.326  1.00  0.00    -0.002 C 
HETATM    9  C   LIG     1      19.231  36.956  19.505  1.00  0.00     0.005 C 
ENDBRANCH   7   8
ENDBRANCH   6   7
ENDBRANCH   1   6
TORSDOF 6
ENDMDL
MODEL 8
REMARK VINA RESULT:      -4.6      2.368      4.703
REMARK  6 active torsions:
REMARK  status: ('A' for Active; 'I' for Inactive)
REMARK    1  A    between atoms: C_2  and  C_3 
REMARK    2  A    between atoms: C_3  and  C_4 
REMARK    3  A    between atoms: C_4  and  O_5 
REMARK    4  A    between atoms: O_5  and  C_6 
REMARK    5  A    between atoms: C_6  and  C_7 
REMARK    6  A    between atoms: C_7  and  C_8 
ROOT
HETATM    1  O   LIG     1      18.080  38.501  22.877  1.00  0.00    -0.391 OA
ENDROOT
BRANCH   1   2
HETATM    2  C   LIG     1      17.867  38.797  21.508  1.00  0.00     0.167 C 
BRANCH   2   3
HETATM    3  C   LIG     1      19.180  39.198  20.824  1.00  0.00     0.026 C 
BRANCH   3   4
HETATM    4  C   LIG     1      19.447  38.356  19.569  1.00  0.00    -0.002 C 
HETATM    5  C   LIG     1      18.891  36.944  19.726  1.00  0.00     0.005 C 
ENDBRANCH   3   4
ENDBRANCH   2   3
ENDBRANCH   1   2
BRANCH   1   6
HETATM    6  C   LIG     1      17.112  37.589  23.367  1.00  0.00     0.167 C 
BRANCH   6   7
HETATM    7  C   LIG     1      15.987  37.371  22.344  1.00  0.00     0.026 C 
BRANCH   7   8
HETATM    8  C   LIG     1      15.900  35.927  21.822  1.00  0.00    -0.002 C 
HETATM    9  C   LIG     1      17.046  35.046  22.321  1.00  0.00     0.005 C 
ENDBRANCH   7   8
ENDBRANCH   6   7
ENDBRANCH   1   6
TORSDOF 6
ENDMDL
MODEL 9
REMARK VINA RESULT:      -4.4      2.479      3.618
REMARK  6 active torsions:
REMARK  status: ('A' for Active; 'I' for Inactive)
REMARK    1  A    between atoms: C_2  and  C_3 
REMARK    2  A    between atoms: C_3  and  C_4 
REMARK    3  A    between atoms: C_4  and  O_5 
REMARK    4  A    between atoms: O_5  and  C_6 
REMARK    5  A    between atoms: C_6  and  C_7 
REMARK    6  A    between atoms: C_7  and  C_8 
ROOT
HETATM    1  O   LIG     1      17.239  37.362  23.523  1.00  0.00    -0.391 OA
ENDROOT
BRANCH   1   2
HETATM    2  C   LIG     1      16.526  36.774  22.449  1.00  0.00     0.167 C 
BRANCH   2   3
HETATM    3  C   LIG     1      16.808  35.268  22.365  1.00  0.00     0.026 C 
BRANCH   3   4
HETATM    4  C   LIG     1      15.844  34.563  21.401  1.00  0.00    -0.002 C 
HETATM    5  C   LIG     1      15.858  35.224  20.027  1.00  0.00     0.005 C 
ENDBRANCH   3   4
ENDBRANCH   2   3
ENDBRANCH   1   2
BRANCH   1   6
HETATM    6  C   LIG     1      17.951  38.514  23.103  1.00  0.00     0.167 C 
BRANCH   6   7
HETATM    7  C   LIG     1      17.681  38.824  21.623  1.00  0.00     0.026 C 
BRANCH   7   8
HETATM    8  C   LIG     1      18.954  38.856  20.759  1.00  0.00    -0.002 C 
HETATM    9  C   LIG     1      19.020  37.701  19.760  1.00  0.00     0.005 C 
ENDBRANCH   7   8
ENDBRANCH   6   7
ENDBRANCH   1   6
TORSDOF 6
ENDMDL
MODEL 10
REMARK VINA RESULT:      -4.3      4.235      5.229
REMARK  6 active torsions:
REMARK  status: ('A' for Active; 'I' for Inactive)
REMARK    1  A    between atoms: C_2  and  C_3 
REMARK    2  A    between atoms: C_3  and  C_4 
REMARK    3  A    between atoms: C_4  and  O_5 
REMARK    4  A    between atoms: O_5  and  C_6 
REMARK    5  A    between atoms: C_6  and  C_7 
REMARK    6  A    between atoms: C_7  and  C_8 
ROOT
HETATM    1  O   LIG     1      16.147  35.999  21.481  1.00  0.00    -0.391 OA
ENDROOT
BRANCH   1   2
HETATM    2  C   LIG     1      16.119  35.129  20.363  1.00  0.00     0.167 C 
BRANCH   2   3
HETATM    3  C   LIG     1      15.393  33.822  20.704  1.00  0.00     0.026 C 
BRANCH   3   4
HETATM    4  C   LIG     1      15.422  32.833  19.531  1.00  0.00    -0.002 C 
HETATM    5  C   LIG     1      14.880  31.469  19.948  1.00  0.00     0.005 C 
ENDBRANCH   3   4
ENDBRANCH   2   3
ENDBRANCH   1   2
BRANCH   1   6
HETATM    6  C   LIG     1      17.275  36.855  21.444  1.00  0.00     0.167 C 
BRANCH   6   7
HETATM    7  C   LIG     1      18.117  36.609  20.183  1.00  0.00     0.026 C 
BRANCH   7   8
HETATM    8  C   LIG     1      19.055  37.778  19.830  1.00  0.00    -0.002 C 
HETATM    9  C   LIG     1      18.688  39.072  20.557  1.00  0.00     0.005 C 
ENDBRANCH   7   8
ENDBRANCH   6   7
ENDBRANCH   1   6
TORSDOF 6
ENDMDL
MODEL 11
REMARK VINA RESULT:      -4.1      7.120      8.361
REMARK  6 active torsions:
REMARK  status: ('A' for Active; 'I' for Inactive)
REMARK    1  A    between atoms: C_2  and  C_3 
REMARK    2  A    between atoms: C_3  and  C_4 
REMARK    3  A    between atoms: C_4  and  O_5 
REMARK    4  A    between atoms: O_5  and  C_6 
REMARK    5  A    between atoms: C_6  and  C_7 
REMARK    6  A    between atoms: C_7  and  C_8 
ROOT
HETATM    1  O   LIG     1      15.485  33.549  18.862  1.00  0.00    -0.391 OA
ENDROOT
BRANCH   1   2
HETATM    2  C   LIG     1      15.024  32.431  18.123  1.00  0.00     0.167 C 
BRANCH   2   3
HETATM    3  C   LIG     1      15.041  32.726  16.617  1.00  0.00     0.026 C 
BRANCH   3   4
HETATM    4  C   LIG     1      14.636  31.496  15.794  1.00  0.00    -0.002 C 
HETATM    5  C   LIG     1      13.368  30.855  16.350  1.00  0.00     0.005 C 
ENDBRANCH   3   4
ENDBRANCH   2   3
ENDBRANCH   1   2
BRANCH   1   6
HETATM    6  C   LIG     1      15.535  33.268  20.250  1.00  0.00     0.167 C 
BRANCH   6   7
HETATM    7  C   LIG     1      15.396  34.552  21.082  1.00  0.00     0.026 C 
BRANCH   7   8
HETATM    8  C   LIG     1      16.725  35.047  21.679  1.00  0.00    -0.002 C 
HETATM    9  C   LIG     1      17.414  36.094  20.804  1.00  0.00     0.005 C 
ENDBRANCH   7   8
ENDBRANCH   6   7
ENDBRANCH   1   6
TORSDOF 6
ENDMDL
MODEL 12
REMARK VINA RESULT:      -4.0      3.832      5.512
REMARK  6 active torsions:
REMARK  status: ('A' for Active; 'I' for Inactive)
REMARK    1  A    between atoms: C_2  and  C_3 
REMARK    2  A    between atoms: C_3  and  C_4 
REMARK    3  A    between atoms: C_4  and  O_5 
REMARK    4  A    between atoms: O_5  and  C_6 
REMARK    5  A    between atoms: C_6  and  C_7 
REMARK    6  A    between atoms: C_7  and  C_8 
ROOT
HETATM    1  O   LIG     1      16.147  36.309  21.299  1.00  0.00    -0.391 OA
ENDROOT
BRANCH   1   2
HETATM    2  C   LIG     1      16.105  37.031  22.517  1.00  0.00     0.167 C 
BRANCH   2   3
HETATM    3  C   LIG     1      17.410  37.805  22.740  1.00  0.00     0.026 C 
BRANCH   3   4
HETATM    4  C   LIG     1      17.575  38.945  21.726  1.00  0.00    -0.002 C 
HETATM    5  C   LIG     1      18.790  38.717  20.834  1.00  0.00     0.005 C 
ENDBRANCH   3   4
ENDBRANCH   2   3
ENDBRANCH   1   2
BRANCH   1   6
HETATM    6  C   LIG     1      16.396  34.932  21.521  1.00  0.00     0.167 C 
BRANCH   6   7
HETATM    7  C   LIG     1      15.209  34.071  21.064  1.00  0.00     0.026 C 
BRANCH   7   8
HETATM    8  C   LIG     1      15.564  33.074  19.947  1.00  0.00    -0.002 C 
HETATM    9  C   LIG     1      14.806  31.752  20.071  1.00  0.00     0.005 C 
ENDBRANCH   7   8
ENDBRANCH   6   7
ENDBRANCH   1   6
TORSDOF 6
ENDMDL
MODEL 13
REMARK VINA RESULT:      -3.9     10.729     12.379
REMARK  6 active torsions:
REMARK  status: ('A' for Active; 'I' for Inactive)
REMARK    1  A    between atoms: C_2  and  C_3 
REMARK    2  A    between atoms: C_3  and  C_4 
REMARK    3  A    between atoms: C_4  and  O_5 
REMARK    4  A    between atoms: O_5  and  C_6 
REMARK    5  A    between atoms: C_6  and  C_7 
REMARK    6  A    between atoms: C_7  and  C_8 
ROOT
HETATM    1  O   LIG     1      19.010  34.449  13.011  1.00  0.00    -0.391 OA
ENDROOT
BRANCH   1   2
HETATM    2  C   LIG     1      19.392  34.349  11.650  1.00  0.00     0.167 C 
BRANCH   2   3
HETATM    3  C   LIG     1      20.914  34.219  11.517  1.00  0.00     0.026 C 
BRANCH   3   4
HETATM    4  C   LIG     1      21.592  34.051  12.883  1.00  0.00    -0.002 C 
HETATM    5  C   LIG     1      22.557  35.200  13.163  1.00  0.00     0.005 C 
ENDBRANCH   3   4
ENDBRANCH   2   3
ENDBRANCH   1   2
BRANCH   1   6
HETATM    6  C   LIG     1      17.830  33.708  13.274  1.00  0.00     0.167 C 
BRANCH   6   7
HETATM    7  C   LIG     1      17.845  33.127  14.695  1.00  0.00     0.026 C 
BRANCH   7   8
HETATM    8  C   LIG     1      16.455  32.711  15.206  1.00  0.00    -0.002 C 
HETATM    9  C   LIG     1      15.768  31.695  14.292  1.00  0.00     0.005 C 
ENDBRANCH   7   8
ENDBRANCH   6   7
ENDBRANCH   1   6
TORSDOF 6
ENDMDL
MODEL 14
REMARK VINA RESULT:      -3.9     10.597     12.129
REMARK  6 active torsions:
REMARK  status: ('A' for Active; 'I' for Inactive)
REMARK    1  A    between atoms: C_2  and  C_3 
REMARK    2  A    between atoms: C_3  and  C_4 
REMARK    3  A    between atoms: C_4  and  O_5 
REMARK    4  A    between atoms: O_5  and  C_6 
REMARK    5  A    between atoms: C_6  and  C_7 
REMARK    6  A    between atoms: C_7  and  C_8 
ROOT
HETATM    1  O   LIG     1      15.712  30.773  13.465  1.00  0.00    -0.391 OA
ENDROOT
BRANCH   1   2
HETATM    2  C   LIG     1      16.168  32.114  13.410  1.00  0.00     0.167 C 
BRANCH   2   3
HETATM    3  C   LIG     1      16.768  32.544  14.755  1.00  0.00     0.026 C 
BRANCH   3   4
HETATM    4  C   LIG     1      17.605  33.823  14.621  1.00  0.00    -0.002 C 
HETATM    5  C   LIG     1      18.525  33.754  13.407  1.00  0.00     0.005 C 
ENDBRANCH   3   4
ENDBRANCH   2   3
ENDBRANCH   1   2
BRANCH   1   6
HETATM    6  C   LIG     1      15.273  30.428  14.768  1.00  0.00     0.167 C 
BRANCH   6   7
HETATM    7  C   LIG     1      13.770  30.115  14.782  1.00  0.00     0.026 C 
BRANCH   7   8
HETATM    8  C   LIG     1      13.054  30.588  16.059  1.00  0.00    -0.002 C 
HETATM    9  C   LIG     1      13.792  31.724  16.766  1.00  0.00     0.005 C 
ENDBRANCH   7   8
ENDBRANCH   6   7
ENDBRANCH   1   6
TORSDOF 6
ENDMDL
MODEL 15
REMARK VINA RESULT:      -3.9      9.689     11.373
REMARK  6 active torsions:
REMARK  status: ('A' for Active; 'I' for Inactive)
REMARK    1  A    between atoms: C_2  and  C_3 
REMARK    2  A    between atoms: C_3  and  C_4 
REMARK    3  A    between atoms: C_4  and  O_5 
REMARK    4  A    between atoms: O_5  and  C_6 
REMARK    5  A    between atoms: C_6  and  C_7 
REMARK    6  A    between atoms: C_7  and  C_8 
ROOT
HETATM    1  O   LIG     1      17.867  32.648  12.868  1.00  0.00    -0.391 OA
ENDROOT
BRANCH   1   2
HETATM    2  C   LIG     1      16.620  32.592  13.539  1.00  0.00     0.167 C 
BRANCH   2   3
HETATM    3  C   LIG     1      16.789  32.890  15.034  1.00  0.00     0.026 C 
BRANCH   3   4
HETATM    4  C   LIG     1      15.541  32.500  15.836  1.00  0.00    -0.002 C 
HETATM    5  C   LIG     1      15.122  33.621  16.782  1.00  0.00     0.005 C 
ENDBRANCH   3   4
ENDBRANCH   2   3
ENDBRANCH   1   2
BRANCH   1   6
HETATM    6  C   LIG     1      18.678  33.697  13.368  1.00  0.00     0.167 C 
BRANCH   6   7
HETATM    7  C   LIG     1      19.781  34.071  12.366  1.00  0.00     0.026 C 
BRANCH   7   8
HETATM    8  C   LIG     1      21.198  33.710  12.846  1.00  0.00    -0.002 C 
HETATM    9  C   LIG     1      22.111  34.930  12.969  1.00  0.00     0.005 C 
ENDBRANCH   7   8
ENDBRANCH   6   7
ENDBRANCH   1   6
TORSDOF 6
ENDMDL
MODEL 16
REMARK VINA RESULT:      -3.8     11.323     11.954
REMARK  6 active torsions:
REMARK  status: ('A' for Active; 'I' for Inactive)
REMARK    1  A    between atoms: C_2  and  C_3 
REMARK    2  A    between atoms: C_3  and  C_4 
REMARK    3  A    between atoms: C_4  and  O_5 
REMARK    4  A    between atoms: O_5  and  C_6 
REMARK    5  A    between atoms: C_6  and  C_7 
REMARK    6  A    between atoms: C_7  and  C_8 
ROOT
HETATM    1  O   LIG     1      16.434  31.345  13.121  1.00  0.00    -0.391 OA
ENDROOT
BRANCH   1   2
HETATM    2  C   LIG     1      15.290  30.613  13.525  1.00  0.00     0.167 C 
BRANCH   2   3
HETATM    3  C   LIG     1      14.913  30.942  14.975  1.00  0.00     0.026 C 
BRANCH   3   4
HETATM    4  C   LIG     1      13.525  30.398  15.339  1.00  0.00    -0.002 C 
HETATM    5  C   LIG     1      12.913  31.182  16.495  1.00  0.00     0.005 C 
ENDBRANCH   3   4
ENDBRANCH   2   3
ENDBRANCH   1   2
BRANCH   1   6
HETATM    6  C   LIG     1      16.558  32.555  13.848  1.00  0.00     0.167 C 
BRANCH   6   7
HETATM    7  C   LIG     1      17.414  33.577  13.084  1.00  0.00     0.026 C 
BRANCH   7   8
HETATM    8  C   LIG     1      18.865  33.665  13.589  1.00  0.00    -0.002 C 
HETATM    9  C   LIG     1      19.878  33.819  12.454  1.00  0.00     0.005 C 
ENDBRANCH   7   8
ENDBRANCH   6   7
ENDBRANCH   1   6
TORSDOF 6
ENDMDL
MODEL 17
REMARK VINA RESULT:      -3.8     11.405     12.600
REMARK  6 active torsions:
REMARK  status: ('A' for Active; 'I' for Inactive)
REMARK    1  A    between atoms: C_2  and  C_3 
REMARK    2  A    between atoms: C_3  and  C_4 
REMARK    3  A    between atoms: C_4  and  O_5 
REMARK    4  A    between atoms: O_5  and  C_6 
REMARK    5  A    between atoms: C_6  and  C_7 
REMARK    6  A    between atoms: C_7  and  C_8 
ROOT
HETATM    1  O   LIG     1      17.108  32.066  13.464  1.00  0.00    -0.391 OA
ENDROOT
BRANCH   1   2
HETATM    2  C   LIG     1      17.428  33.400  13.107  1.00  0.00     0.167 C 
BRANCH   2   3
HETATM    3  C   LIG     1      18.876  33.735  13.485  1.00  0.00     0.026 C 
BRANCH   3   4
HETATM    4  C   LIG     1      19.716  34.097  12.253  1.00  0.00    -0.002 C 
HETATM    5  C   LIG     1      21.200  34.164  12.599  1.00  0.00     0.005 C 
ENDBRANCH   3   4
ENDBRANCH   2   3
ENDBRANCH   1   2
BRANCH   1   6
HETATM    6  C   LIG     1      15.711  31.837  13.412  1.00  0.00     0.167 C 
BRANCH   6   7
HETATM    7  C   LIG     1      15.307  30.666  14.322  1.00  0.00     0.026 C 
BRANCH   7   8
HETATM    8  C   LIG     1      14.479  31.095  15.546  1.00  0.00    -0.002 C 
HETATM    9  C   LIG     1      13.097  30.443  15.584  1.00  0.00     0.005 C 
ENDBRANCH   7   8
ENDBRANCH   6   7
ENDBRANCH   1   6
TORSDOF 6
ENDMDL
MODEL 18
REMARK VINA RESULT:      -3.7     10.698     11.904
REMARK  6 active torsions:
REMARK  status: ('A' for Active; 'I' for Inactive)
REMARK    1  A    between atoms: C_2  and  C_3 
REMARK    2  A    between atoms: C_3  and  C_4 
REMARK    3  A    between atoms: C_4  and  O_5 
REMARK    4  A    between atoms: O_5  and  C_6 
REMARK    5  A    between atoms: C_6  and  C_7 
REMARK    6  A    between atoms: C_7  and  C_8 
ROOT
HETATM    1  O   LIG     1      16.563  31.853  14.149  1.00  0.00    -0.391 OA
ENDROOT
BRANCH   1   2
HETATM    2  C   LIG     1      15.320  31.177  14.076  1.00  0.00     0.167 C 
BRANCH   2   3
HETATM    3  C   LIG     1      15.522  29.693  13.746  1.00  0.00     0.026 C 
BRANCH   3   4
HETATM    4  C   LIG     1      14.239  28.881  13.972  1.00  0.00    -0.002 C 
HETATM    5  C   LIG     1      13.184  29.709  14.698  1.00  0.00     0.005 C 
ENDBRANCH   3   4
ENDBRANCH   2   3
ENDBRANCH   1   2
BRANCH   1   6
HETATM    6  C   LIG     1      16.805  32.354  15.452  1.00  0.00     0.167 C 
BRANCH   6   7
HETATM    7  C   LIG     1      15.545  33.010  16.037  1.00  0.00     0.026 C 
BRANCH   7   8
HETATM    8  C   LIG     1      15.234  32.569  17.478  1.00  0.00    -0.002 C 
HETATM    9  C   LIG     1      13.971  31.714  17.576  1.00  0.00     0.005 C 
ENDBRANCH   7   8
ENDBRANCH   6   7
ENDBRANCH   1   6
TORSDOF 6
ENDMDL
MODEL 19
REMARK VINA RESULT:      -3.4     10.057     11.205
REMARK  6 active torsions:
REMARK  status: ('A' for Active; 'I' for Inactive)
REMARK    1  A    between atoms: C_2  and  C_3 
REMARK    2  A    between atoms: C_3  and  C_4 
REMARK    3  A    between atoms: C_4  and  O_5 
REMARK    4  A    between atoms: O_5  and  C_6 
REMARK    5  A    between atoms: C_6  and  C_7 
REMARK    6  A    between atoms: C_7  and  C_8 
ROOT
HETATM    1  O   LIG     1      15.309  31.474  13.787  1.00  0.00    -0.391 OA
ENDROOT
BRANCH   1   2
HETATM    2  C   LIG     1      15.079  30.348  14.616  1.00  0.00     0.167 C 
BRANCH   2   3
HETATM    3  C   LIG     1      13.598  30.247  15.004  1.00  0.00     0.026 C 
BRANCH   3   4
HETATM    4  C   LIG     1      13.378  30.545  16.493  1.00  0.00    -0.002 C 
HETATM    5  C   LIG     1      12.614  31.852  16.685  1.00  0.00     0.005 C 
ENDBRANCH   3   4
ENDBRANCH   2   3
ENDBRANCH   1   2
BRANCH   1   6
HETATM    6  C   LIG     1      16.434  32.217  14.222  1.00  0.00     0.167 C 
BRANCH   6   7
HETATM    7  C   LIG     1      16.334  32.549  15.719  1.00  0.00     0.026 C 
BRANCH   7   8
HETATM    8  C   LIG     1      15.812  33.968  16.003  1.00  0.00    -0.002 C 
HETATM    9  C   LIG     1      15.244  34.118  17.414  1.00  0.00     0.005 C 
ENDBRANCH   7   8
ENDBRANCH   6   7
ENDBRANCH   1   6
TORSDOF 6
ENDMDL
MODEL 20
REMARK VINA RESULT:      -3.3     11.521     12.576
REMARK  6 active torsions:
REMARK  status: ('A' for Active; 'I' for Inactive)
REMARK    1  A    between atoms: C_2  and  C_3 
REMARK    2  A    between atoms: C_3  and  C_4 
REMARK    3  A    between atoms: C_4  and  O_5 
REMARK    4  A    between atoms: O_5  and  C_6 
REMARK    5  A    between atoms: C_6  and  C_7 
REMARK    6  A    between atoms: C_7  and  C_8 
ROOT
HETATM    1  O   LIG     1      16.070  30.914  13.929  1.00  0.00    -0.391 OA
ENDROOT
BRANCH   1   2
HETATM    2  C   LIG     1      15.050  29.959  14.165  1.00  0.00     0.167 C 
BRANCH   2   3
HETATM    3  C   LIG     1      15.559  28.537  13.895  1.00  0.00     0.026 C 
BRANCH   3   4
HETATM    4  C   LIG     1      14.406  27.562  13.622  1.00  0.00    -0.002 C 
HETATM    5  C   LIG     1      13.059  28.200  13.945  1.00  0.00     0.005 C 
ENDBRANCH   3   4
ENDBRANCH   2   3
ENDBRANCH   1   2
BRANCH   1   6
HETATM    6  C   LIG     1      15.933  32.039  14.780  1.00  0.00     0.167 C 
BRANCH   6   7
HETATM    7  C   LIG     1      17.304  32.625  15.149  1.00  0.00     0.026 C 
BRANCH   7   8
HETATM    8  C   LIG     1      17.626  33.943  14.423  1.00  0.00    -0.002 C 
HETATM    9  C   LIG     1      18.640  33.764  13.293  1.00  0.00     0.005 C 
ENDBRANCH   7   8
ENDBRANCH   6   7
ENDBRANCH   1   6
TORSDOF 6
ENDMDL
