REMARK  4 active torsions:
REMARK  status: ('A' for Active; 'I' for Inactive)
REMARK    1  A    between atoms: C_2  and  C_3 
REMARK    2  A    between atoms: C_3  and  N_4 
REMARK    3  A    between atoms: N_4  and  C_5 
REMARK    4  A    between atoms: C_5  and  C_6 
ROOT
HETATM    1  N   LIG     1      -0.244  -0.261  -0.572  1.00  0.00     0.083 N 
HETATM    2  H   LIG     1      -0.742  -0.170  -1.489  1.00  0.00     0.315 HD
ENDROOT
BRANCH   1   3
HETATM    3  C   LIG     1      -1.018   0.490   0.429  1.00  0.00     0.269 C 
BRANCH   3   4
HETATM    4  C   LIG     1      -2.260  -0.299   0.859  1.00  0.00     0.025 C 
HETATM    5  C   LIG     1      -3.304  -0.403  -0.252  1.00  0.00     0.007 C 
ENDBRANCH   3   4
ENDBRANCH   1   3
BRANCH   1   6
HETATM    6  C   LIG     1       1.101   0.305  -0.747  1.00  0.00     0.269 C 
BRANCH   6   7
HETATM    7  C   LIG     1       2.087  -0.358   0.221  1.00  0.00     0.025 C 
HETATM    8  C   LIG     1       3.505   0.169   0.014  1.00  0.00     0.007 C 
ENDBRANCH   6   7
ENDBRANCH   1   6
TORSDOF 4
