MODEL 1
REMARK VINA RESULT:      -4.8      0.000      0.000
REMARK  4 active torsions:
REMARK  status: ('A' for Active; 'I' for Inactive)
REMARK    1  A    between atoms: C_2  and  C_3 
REMARK    2  A    between atoms: C_3  and  C_4 
REMARK    3  A    between atoms: C_4  and  C_5 
REMARK    4  A    between atoms: C_5  and  C_6 
ROOT
HETATM    1  C   LIG     1      17.328  37.812  25.334  1.00  0.00     0.000 C 
ENDROOT
BRANCH   1   2
HETATM    2  C   LIG     1      17.529  38.203  23.865  1.00  0.00    -0.000 C 
BRANCH   2   3
HETATM    3  C   LIG     1      16.422  37.615  22.983  1.00  0.00    -0.005 C 
HETATM    4  C   LIG     1      16.838  36.267  22.400  1.00  0.00     0.005 C 
ENDBRANCH   2   3
ENDBRANCH   1   2
BRANCH   1   5
HETATM    5  C   LIG     1      18.582  37.125  25.896  1.00  0.00    -0.000 C 
BRANCH   5   6
HETATM    6  C   LIG     1      18.258  35.826  26.648  1.00  0.00    -0.005 C 
HETATM    7  C   LIG     1      17.432  34.849  25.811  1.00  0.00     0.005 C 
ENDBRANCH   5   6
ENDBRANCH   1   5
TORSDOF 4
ENDMDL
MODEL 2
REMARK VINA RESULT:      -4.8      0.054      3.402
REMARK  4 active torsions:
REMARK  status: ('A' for Active; 'I' for Inactive)
REMARK    1  A    between atoms: C_2  and  C_3 
REMARK    2  A    between atoms: C_3  and  C_4 
REMARK    3  A    between atoms: C_4  and  C_5 
REMARK    4  A    between atoms: C_5  and  C_6 
ROOT
HETATM    1  C   LIG     1      17.322  37.767  25.332  1.00  0.00     0.000 C 
ENDROOT
BRANCH   1   2
HETATM    2  C   LIG     1      18.586  37.108  25.896  1.00  0.00    -0.000 C 
BRANCH   2   3
HETATM    3  C   LIG     1      18.245  35.811  26.639  1.00  0.00    -0.005 C 
HETATM    4  C   LIG     1      17.434  34.866  25.757  1.00  0.00     0.005 C 
ENDBRANCH   2   3
ENDBRANCH   1   2
BRANCH   1   5
HETATM    5  C   LIG     1      17.519  38.166  23.862  1.00  0.00    -0.000 C 
BRANCH   5   6
HETATM    6  C   LIG     1      16.441  37.577  22.939  1.00  0.00    -0.005 C 
HETATM    7  C   LIG     1      16.865  36.250  22.308  1.00  0.00     0.005 C 
ENDBRANCH   5   6
ENDBRANCH   1   5
TORSDOF 4
ENDMDL
MODEL 3
REMARK VINA RESULT:      -4.7      0.622      3.427
REMARK  4 active torsions:
REMARK  status: ('A' for Active; 'I' for Inactive)
REMARK    1  A    between atoms: C_2  and  C_3 
REMARK    2  A    between atoms: C_3  and  C_4 
REMARK    3  A    between atoms: C_4  and  C_5 
REMARK    4  A    between atoms: C_5  and  C_6 
ROOT
HETATM    1  C   LIG     1      17.685  38.098  24.255  1.00  0.00     0.000 C 
ENDROOT
BRANCH   1   2
HETATM    2  C   LIG     1      17.457  37.623  25.695  1.00  0.00    -0.000 C 
BRANCH   2   3
HETATM    3  C   LIG     1      18.544  36.632  26.126  1.00  0.00    -0.005 C 
HETATM    4  C   LIG     1      17.991  35.212  26.218  1.00  0.00     0.005 C 
ENDBRANCH   2   3
ENDBRANCH   1   2
BRANCH   1   5
HETATM    5  C   LIG     1      16.509  37.699  23.351  1.00  0.00    -0.000 C 
BRANCH   5   6
HETATM    6  C   LIG     1      16.939  36.796  22.185  1.00  0.00    -0.005 C 
HETATM    7  C   LIG     1      16.928  35.311  22.552  1.00  0.00     0.005 C 
ENDBRANCH   5   6
ENDBRANCH   1   5
TORSDOF 4
ENDMDL
MODEL 4
REMARK VINA RESULT:      -4.3      1.534      2.585
REMARK  4 active torsions:
REMARK  status: ('A' for Active; 'I' for Inactive)
REMARK    1  A    between atoms: C_2  and  C_3 
REMARK    2  A    between atoms: C_3  and  C_4 
REMARK    3  A    between atoms: C_4  and  C_5 
REMARK    4  A    between atoms: C_5  and  C_6 
ROOT
HETATM    1  C   LIG     1      16.913  35.313  23.024  1.00  0.00     0.000 C 
ENDROOT
BRANCH   1   2
HETATM    2  C   LIG     1      16.640  36.356  21.934  1.00  0.00    -0.000 C 
BRANCH   2   3
HETATM    3  C   LIG     1      17.188  35.892  20.579  1.00  0.00    -0.005 C 
HETATM    4  C   LIG     1      18.367  36.754  20.137  1.00  0.00     0.005 C 
ENDBRANCH   2   3
ENDBRANCH   1   2
BRANCH   1   5
HETATM    5  C   LIG     1      17.244  35.991  24.362  1.00  0.00    -0.000 C 
BRANCH   5   6
HETATM    6  C   LIG     1      17.548  34.979  25.478  1.00  0.00    -0.005 C 
HETATM    7  C   LIG     1      18.315  35.600  26.646  1.00  0.00     0.005 C 
ENDBRANCH   5   6
ENDBRANCH   1   5
TORSDOF 4
ENDMDL
MODEL 5
REMARK VINA RESULT:      -4.3      2.819      4.665
REMARK  4 active torsions:
REMARK  status: ('A' for Active; 'I' for Inactive)
REMARK    1  A    between atoms: C_2  and  C_3 
REMARK    2  A    between atoms: C_3  and  C_4 
REMARK    3  A    between atoms: C_4  and  C_5 
REMARK    4  A    between atoms: C_5  and  C_6 
ROOT
HETATM    1  C   LIG     1      17.231  38.881  22.210  1.00  0.00     0.000 C 
ENDROOT
BRANCH   1   2
HETATM    2  C   LIG     1      17.120  37.480  22.825  1.00  0.00    -0.000 C 
BRANCH   2   3
HETATM    3  C   LIG     1      16.339  36.536  21.904  1.00  0.00    -0.005 C 
HETATM    4  C   LIG     1      17.243  35.942  20.828  1.00  0.00     0.005 C 
ENDBRANCH   2   3
ENDBRANCH   1   2
BRANCH   1   5
HETATM    5  C   LIG     1      18.674  39.178  21.775  1.00  0.00    -0.000 C 
BRANCH   5   6
HETATM    6  C   LIG     1      18.808  39.359  20.256  1.00  0.00    -0.005 C 
HETATM    7  C   LIG     1      20.101  38.760  19.702  1.00  0.00     0.005 C 
ENDBRANCH   5   6
ENDBRANCH   1   5
TORSDOF 4
ENDMDL
MODEL 6
REMARK VINA RESULT:      -4.2      1.003      2.061
REMARK  4 active torsions:
REMARK  status: ('A' for Active; 'I' for Inactive)
REMARK    1  A    between atoms: C_2  and  C_3 
REMARK    2  A    between atoms: C_3  and  C_4 
REMARK    3  A    between atoms: C_4  and  C_5 
REMARK    4  A    between atoms: C_5  and  C_6 
ROOT
HETATM    1  C   LIG     1      17.253  38.722  22.910  1.00  0.00     0.000 C 
ENDROOT
BRANCH   1   2
HETATM    2  C   LIG     1      16.256  37.581  22.677  1.00  0.00    -0.000 C 
BRANCH   2   3
HETATM    3  C   LIG     1      16.831  36.537  21.714  1.00  0.00    -0.005 C 
HETATM    4  C   LIG     1      16.914  35.163  22.374  1.00  0.00     0.005 C 
ENDBRANCH   2   3
ENDBRANCH   1   2
BRANCH   1   5
HETATM    5  C   LIG     1      18.085  38.475  24.177  1.00  0.00    -0.000 C 
BRANCH   5   6
HETATM    6  C   LIG     1      17.352  37.598  25.204  1.00  0.00    -0.005 C 
HETATM    7  C   LIG     1      18.306  36.737  26.033  1.00  0.00     0.005 C 
ENDBRANCH   5   6
ENDBRANCH   1   5
TORSDOF 4
ENDMDL
MODEL 7
REMARK VINA RESULT:      -4.2      1.531      4.375
REMARK  4 active torsions:
REMARK  status: ('A' for Active; 'I' for Inactive)
REMARK    1  A    between atoms: C_2  and  C_3 
REMARK    2  A    between atoms: C_3  and  C_4 
REMARK    3  A    between atoms: C_4  and  C_5 
REMARK    4  A    between atoms: C_5  and  C_6 
ROOT
HETATM    1  C   LIG     1      16.752  35.065  23.108  1.00  0.00     0.000 C 
ENDROOT
BRANCH   1   2
HETATM    2  C   LIG     1      17.346  35.138  24.520  1.00  0.00    -0.000 C 
BRANCH   2   3
HETATM    3  C   LIG     1      17.415  36.588  25.013  1.00  0.00    -0.005 C 
HETATM    4  C   LIG     1      18.381  36.725  26.187  1.00  0.00     0.005 C 
ENDBRANCH   2   3
ENDBRANCH   1   2
BRANCH   1   5
HETATM    5  C   LIG     1      17.128  36.309  22.289  1.00  0.00    -0.000 C 
BRANCH   5   6
HETATM    6  C   LIG     1      17.243  36.014  20.785  1.00  0.00    -0.005 C 
HETATM    7  C   LIG     1      18.394  36.771  20.121  1.00  0.00     0.005 C 
ENDBRANCH   5   6
ENDBRANCH   1   5
TORSDOF 4
ENDMDL
MODEL 8
REMARK VINA RESULT:      -4.2      2.767      3.772
REMARK  4 active torsions:
REMARK  status: ('A' for Active; 'I' for Inactive)
REMARK    1  A    between atoms: C_2  and  C_3 
REMARK    2  A    between atoms: C_3  and  C_4 
REMARK    3  A    between atoms: C_4  and  C_5 
REMARK    4  A    between atoms: C_5  and  C_6 
ROOT
HETATM    1  C   LIG     1      17.742  38.009  21.530  1.00  0.00     0.000 C 
ENDROOT
BRANCH   1   2
HETATM    2  C   LIG     1      18.564  39.289  21.339  1.00  0.00    -0.000 C 
BRANCH   2   3
HETATM    3  C   LIG     1      19.669  39.082  20.297  1.00  0.00    -0.005 C 
HETATM    4  C   LIG     1      19.093  38.584  18.974  1.00  0.00     0.005 C 
ENDBRANCH   2   3
ENDBRANCH   1   2
BRANCH   1   5
HETATM    5  C   LIG     1      16.970  38.044  22.858  1.00  0.00    -0.000 C 
BRANCH   5   6
HETATM    6  C   LIG     1      17.882  38.316  24.064  1.00  0.00    -0.005 C 
HETATM    7  C   LIG     1      17.332  37.729  25.365  1.00  0.00     0.005 C 
ENDBRANCH   5   6
ENDBRANCH   1   5
TORSDOF 4
ENDMDL
MODEL 9
REMARK VINA RESULT:      -4.1      3.268      4.336
REMARK  4 active torsions:
REMARK  status: ('A' for Active; 'I' for Inactive)
REMARK    1  A    between atoms: C_2  and  C_3 
REMARK    2  A    between atoms: C_3  and  C_4 
REMARK    3  A    between atoms: C_4  and  C_5 
REMARK    4  A    between atoms: C_5  and  C_6 
ROOT
HETATM    1  C   LIG     1      17.906  37.341  21.060  1.00  0.00     0.000 C 
ENDROOT
BRANCH   1   2
HETATM    2  C   LIG     1      18.249  38.786  21.443  1.00  0.00    -0.000 C 
BRANCH   2   3
HETATM    3  C   LIG     1      19.005  39.490  20.311  1.00  0.00    -0.005 C 
HETATM    4  C   LIG     1      19.998  38.546  19.639  1.00  0.00     0.005 C 
ENDBRANCH   2   3
ENDBRANCH   1   2
BRANCH   1   5
HETATM    5  C   LIG     1      16.942  36.716  22.079  1.00  0.00    -0.000 C 
BRANCH   5   6
HETATM    6  C   LIG     1      16.978  35.180  22.062  1.00  0.00    -0.005 C 
HETATM    7  C   LIG     1      16.121  34.581  20.947  1.00  0.00     0.005 C 
ENDBRANCH   5   6
ENDBRANCH   1   5
TORSDOF 4
ENDMDL
MODEL 10
REMARK VINA RESULT:      -4.1     10.837     12.030
REMARK  4 active torsions:
REMARK  status: ('A' for Active; 'I' for Inactive)
REMARK    1  A    between atoms: C_2  and  C_3 
REMARK    2  A    between atoms: C_3  and  C_4 
REMARK    3  A    between atoms: C_4  and  C_5 
REMARK    4  A    between atoms: C_5  and  C_6 
ROOT
HETATM    1  C   LIG     1      18.040  45.279  33.486  1.00  0.00     0.000 C 
ENDROOT
BRANCH   1   2
HETATM    2  C   LIG     1      16.673  45.776  33.002  1.00  0.00    -0.000 C 
BRANCH   2   3
HETATM    3  C   LIG     1      15.535  45.062  33.739  1.00  0.00    -0.005 C 
HETATM    4  C   LIG     1      16.071  43.946  34.631  1.00  0.00     0.005 C 
ENDBRANCH   2   3
ENDBRANCH   1   2
BRANCH   1   5
HETATM    5  C   LIG     1      19.155  45.711  32.521  1.00  0.00    -0.000 C 
BRANCH   5   6
HETATM    6  C   LIG     1      20.228  44.627  32.334  1.00  0.00    -0.005 C 
HETATM    7  C   LIG     1      20.920  44.710  30.973  1.00  0.00     0.005 C 
ENDBRANCH   5   6
ENDBRANCH   1   5
TORSDOF 4
ENDMDL
MODEL 11
REMARK VINA RESULT:      -4.1      1.964      2.922
REMARK  4 active torsions:
REMARK  status: ('A' for Active; 'I' for Inactive)
REMARK    1  A    between atoms: C_2  and  C_3 
REMARK    2  A    between atoms: C_3  and  C_4 
REMARK    3  A    between atoms: C_4  and  C_5 
REMARK    4  A    between atoms: C_5  and  C_6 
ROOT
HETATM    1  C   LIG     1      17.280  36.979  21.755  1.00  0.00     0.000 C 
ENDROOT
BRANCH   1   2
HETATM    2  C   LIG     1      17.349  38.352  22.435  1.00  0.00    -0.000 C 
BRANCH   2   3
HETATM    3  C   LIG     1      18.305  39.288  21.689  1.00  0.00    -0.005 C 
HETATM    4  C   LIG     1      18.903  38.603  20.463  1.00  0.00     0.005 C 
ENDBRANCH   2   3
ENDBRANCH   1   2
BRANCH   1   5
HETATM    5  C   LIG     1      16.797  35.902  22.738  1.00  0.00    -0.000 C 
BRANCH   5   6
HETATM    6  C   LIG     1      17.150  36.231  24.197  1.00  0.00    -0.005 C 
HETATM    7  C   LIG     1      17.423  34.982  25.035  1.00  0.00     0.005 C 
ENDBRANCH   5   6
ENDBRANCH   1   5
TORSDOF 4
ENDMDL
MODEL 12
REMARK VINA RESULT:      -4.0      2.415      3.908
REMARK  4 active torsions:
REMARK  status: ('A' for Active; 'I' for Inactive)
REMARK    1  A    between atoms: C_2  and  C_3 
REMARK    2  A    between atoms: C_3  and  C_4 
REMARK    3  A    between atoms: C_4  and  C_5 
REMARK    4  A    between atoms: C_5  and  C_6 
ROOT
HETATM    1  C   LIG     1      16.986  36.685  23.372  1.00  0.00     0.000 C 
ENDROOT
BRANCH   1   2
HETATM    2  C   LIG     1      16.824  35.371  22.598  1.00  0.00    -0.000 C 
BRANCH   2   3
HETATM    3  C   LIG     1      16.972  35.600  21.089  1.00  0.00    -0.005 C 
HETATM    4  C   LIG     1      15.850  34.915  20.314  1.00  0.00     0.005 C 
ENDBRANCH   2   3
ENDBRANCH   1   2
BRANCH   1   5
HETATM    5  C   LIG     1      16.035  37.762  22.832  1.00  0.00    -0.000 C 
BRANCH   5   6
HETATM    6  C   LIG     1      16.755  39.082  22.515  1.00  0.00    -0.005 C 
HETATM    7  C   LIG     1      18.228  38.881  22.160  1.00  0.00     0.005 C 
ENDBRANCH   5   6
ENDBRANCH   1   5
TORSDOF 4
ENDMDL
MODEL 13
REMARK VINA RESULT:      -4.0      1.813      4.481
REMARK  4 active torsions:
REMARK  status: ('A' for Active; 'I' for Inactive)
REMARK    1  A    between atoms: C_2  and  C_3 
REMARK    2  A    between atoms: C_3  and  C_4 
REMARK    3  A    between atoms: C_4  and  C_5 
REMARK    4  A    between atoms: C_5  and  C_6 
ROOT
HETATM    1  C   LIG     1      16.629  36.819  22.004  1.00  0.00     0.000 C 
ENDROOT
BRANCH   1   2
HETATM    2  C   LIG     1      17.001  36.302  23.400  1.00  0.00    -0.000 C 
BRANCH   2   3
HETATM    3  C   LIG     1      17.288  37.464  24.358  1.00  0.00    -0.005 C 
HETATM    4  C   LIG     1      17.951  36.970  25.641  1.00  0.00     0.005 C 
ENDBRANCH   2   3
ENDBRANCH   1   2
BRANCH   1   5
HETATM    5  C   LIG     1      17.388  36.050  20.913  1.00  0.00    -0.000 C 
BRANCH   5   6
HETATM    6  C   LIG     1      18.441  36.915  20.203  1.00  0.00    -0.005 C 
HETATM    7  C   LIG     1      18.508  38.338  20.759  1.00  0.00     0.005 C 
ENDBRANCH   5   6
ENDBRANCH   1   5
TORSDOF 4
ENDMDL
MODEL 14
REMARK VINA RESULT:      -3.9      3.342      5.384
REMARK  4 active torsions:
REMARK  status: ('A' for Active; 'I' for Inactive)
REMARK    1  A    between atoms: C_2  and  C_3 
REMARK    2  A    between atoms: C_3  and  C_4 
REMARK    3  A    between atoms: C_4  and  C_5 
REMARK    4  A    between atoms: C_5  and  C_6 
ROOT
HETATM    1  C   LIG     1      18.937  36.582  19.991  1.00  0.00     0.000 C 
ENDROOT
BRANCH   1   2
HETATM    2  C   LIG     1      17.465  36.209  20.209  1.00  0.00    -0.000 C 
BRANCH   2   3
HETATM    3  C   LIG     1      17.189  35.900  21.684  1.00  0.00    -0.005 C 
HETATM    4  C   LIG     1      16.291  36.963  22.312  1.00  0.00     0.005 C 
ENDBRANCH   2   3
ENDBRANCH   1   2
BRANCH   1   5
HETATM    5  C   LIG     1      19.061  37.896  19.207  1.00  0.00    -0.000 C 
BRANCH   5   6
HETATM    6  C   LIG     1      19.679  39.028  20.042  1.00  0.00    -0.005 C 
HETATM    7  C   LIG     1      18.743  39.528  21.143  1.00  0.00     0.005 C 
ENDBRANCH   5   6
ENDBRANCH   1   5
TORSDOF 4
ENDMDL
MODEL 15
REMARK VINA RESULT:      -3.9      3.337      5.190
REMARK  4 active torsions:
REMARK  status: ('A' for Active; 'I' for Inactive)
REMARK    1  A    between atoms: C_2  and  C_3 
REMARK    2  A    between atoms: C_3  and  C_4 
REMARK    3  A    between atoms: C_4  and  C_5 
REMARK    4  A    between atoms: C_5  and  C_6 
ROOT
HETATM    1  C   LIG     1      15.922  35.144  20.308  1.00  0.00     0.000 C 
ENDROOT
BRANCH   1   2
HETATM    2  C   LIG     1      15.365  33.782  20.737  1.00  0.00    -0.000 C 
BRANCH   2   3
HETATM    3  C   LIG     1      15.406  32.780  19.578  1.00  0.00    -0.005 C 
HETATM    4  C   LIG     1      14.869  31.417  20.007  1.00  0.00     0.005 C 
ENDBRANCH   2   3
ENDBRANCH   1   2
BRANCH   1   5
HETATM    5  C   LIG     1      17.130  35.541  21.170  1.00  0.00    -0.000 C 
BRANCH   5   6
HETATM    6  C   LIG     1      16.718  36.125  22.531  1.00  0.00    -0.005 C 
HETATM    7  C   LIG     1      17.084  35.211  23.701  1.00  0.00     0.005 C 
ENDBRANCH   5   6
ENDBRANCH   1   5
TORSDOF 4
ENDMDL
MODEL 16
REMARK VINA RESULT:      -3.9      8.528     11.133
REMARK  4 active torsions:
REMARK  status: ('A' for Active; 'I' for Inactive)
REMARK    1  A    between atoms: C_2  and  C_3 
REMARK    2  A    between atoms: C_3  and  C_4 
REMARK    3  A    between atoms: C_4  and  C_5 
REMARK    4  A    between atoms: C_5  and  C_6 
ROOT
HETATM    1  C   LIG     1      14.336  31.470  16.082  1.00  0.00     0.000 C 
ENDROOT
BRANCH   1   2
HETATM    2  C   LIG     1      13.901  31.864  17.499  1.00  0.00    -0.000 C 
BRANCH   2   3
HETATM    3  C   LIG     1      15.085  32.410  18.306  1.00  0.00    -0.005 C 
HETATM    4  C   LIG     1      15.117  31.814  19.710  1.00  0.00     0.005 C 
ENDBRANCH   2   3
ENDBRANCH   1   2
BRANCH   1   5
HETATM    5  C   LIG     1      13.371  30.440  15.477  1.00  0.00    -0.000 C 
BRANCH   5   6
HETATM    6  C   LIG     1      14.001  29.645  14.324  1.00  0.00    -0.005 C 
HETATM    7  C   LIG     1      15.288  30.283  13.800  1.00  0.00     0.005 C 
ENDBRANCH   5   6
ENDBRANCH   1   5
TORSDOF 4
ENDMDL
MODEL 17
REMARK VINA RESULT:      -3.7      3.489      5.911
REMARK  4 active torsions:
REMARK  status: ('A' for Active; 'I' for Inactive)
REMARK    1  A    between atoms: C_2  and  C_3 
REMARK    2  A    between atoms: C_3  and  C_4 
REMARK    3  A    between atoms: C_4  and  C_5 
REMARK    4  A    between atoms: C_5  and  C_6 
ROOT
HETATM    1  C   LIG     1      15.788  34.940  19.887  1.00  0.00     0.000 C 
ENDROOT
BRANCH   1   2
HETATM    2  C   LIG     1      16.832  35.687  20.726  1.00  0.00    -0.000 C 
BRANCH   2   3
HETATM    3  C   LIG     1      16.866  35.154  22.163  1.00  0.00    -0.005 C 
HETATM    4  C   LIG     1      16.929  36.296  23.174  1.00  0.00     0.005 C 
ENDBRANCH   2   3
ENDBRANCH   1   2
BRANCH   1   5
HETATM    5  C   LIG     1      15.309  33.671  20.608  1.00  0.00    -0.000 C 
BRANCH   5   6
HETATM    6  C   LIG     1      15.700  32.385  19.863  1.00  0.00    -0.005 C 
HETATM    7  C   LIG     1      14.695  32.004  18.775  1.00  0.00     0.005 C 
ENDBRANCH   5   6
ENDBRANCH   1   5
TORSDOF 4
ENDMDL
MODEL 18
REMARK VINA RESULT:      -3.7     11.330     12.169
REMARK  4 active torsions:
REMARK  status: ('A' for Active; 'I' for Inactive)
REMARK    1  A    between atoms: C_2  and  C_3 
REMARK    2  A    between atoms: C_3  and  C_4 
REMARK    3  A    between atoms: C_4  and  C_5 
REMARK    4  A    between atoms: C_5  and  C_6 
ROOT
HETATM    1  C   LIG     1      19.353  45.279  32.154  1.00  0.00     0.000 C 
ENDROOT
BRANCH   1   2
HETATM    2  C   LIG     1      20.536  44.325  32.364  1.00  0.00    -0.000 C 
BRANCH   2   3
HETATM    3  C   LIG     1      21.788  44.835  31.642  1.00  0.00    -0.005 C 
HETATM    4  C   LIG     1      23.001  44.824  32.568  1.00  0.00     0.005 C 
ENDBRANCH   2   3
ENDBRANCH   1   2
BRANCH   1   5
HETATM    5  C   LIG     1      18.826  45.804  33.498  1.00  0.00    -0.000 C 
BRANCH   5   6
HETATM    6  C   LIG     1      17.299  45.691  33.618  1.00  0.00    -0.005 C 
HETATM    7  C   LIG     1      16.850  44.350  34.200  1.00  0.00     0.005 C 
ENDBRANCH   5   6
ENDBRANCH   1   5
TORSDOF 4
ENDMDL
MODEL 19
REMARK VINA RESULT:      -3.6      4.329      6.515
REMARK  4 active torsions:
REMARK  status: ('A' for Active; 'I' for Inactive)
REMARK    1  A    between atoms: C_2  and  C_3 
REMARK    2  A    between atoms: C_3  and  C_4 
REMARK    3  A    between atoms: C_4  and  C_5 
REMARK    4  A    between atoms: C_5  and  C_6 
ROOT
HETATM    1  C   LIG     1      15.633  33.639  19.999  1.00  0.00     0.000 C 
ENDROOT
BRANCH   1   2
HETATM    2  C   LIG     1      15.279  32.150  19.907  1.00  0.00    -0.000 C 
BRANCH   2   3
HETATM    3  C   LIG     1      14.574  31.833  18.583  1.00  0.00    -0.005 C 
HETATM    4  C   LIG     1      15.036  32.772  17.473  1.00  0.00     0.005 C 
ENDBRANCH   2   3
ENDBRANCH   1   2
BRANCH   1   5
HETATM    5  C   LIG     1      15.046  34.266  21.272  1.00  0.00    -0.000 C 
BRANCH   5   6
HETATM    6  C   LIG     1      15.591  35.677  21.542  1.00  0.00    -0.005 C 
HETATM    7  C   LIG     1      17.116  35.746  21.464  1.00  0.00     0.005 C 
ENDBRANCH   5   6
ENDBRANCH   1   5
TORSDOF 4
ENDMDL
MODEL 20
REMARK VINA RESULT:      -3.5      9.611     11.906
REMARK  4 active torsions:
REMARK  status: ('A' for Active; 'I' for Inactive)
REMARK    1  A    between atoms: C_2  and  C_3 
REMARK    2  A    between atoms: C_3  and  C_4 
REMARK    3  A    between atoms: C_4  and  C_5 
REMARK    4  A    between atoms: C_5  and  C_6 
ROOT
HETATM    1  C   LIG     1      15.610  30.652  14.738  1.00  0.00     0.000 C 
ENDROOT
BRANCH   1   2
HETATM    2  C   LIG     1      15.996  31.980  14.075  1.00  0.00    -0.000 C 
BRANCH   2   3
HETATM    3  C   LIG     1      16.580  32.958  15.101  1.00  0.00    -0.005 C 
HETATM    4  C   LIG     1      15.581  33.249  16.217  1.00  0.00     0.005 C 
ENDBRANCH   2   3
ENDBRANCH   1   2
BRANCH   1   5
HETATM    5  C   LIG     1      14.573  29.897  13.893  1.00  0.00    -0.000 C 
BRANCH   5   6
HETATM    6  C   LIG     1      13.268  29.631  14.658  1.00  0.00    -0.005 C 
HETATM    7  C   LIG     1      13.067  30.587  15.834  1.00  0.00     0.005 C 
ENDBRANCH   5   6
ENDBRANCH   1   5
TORSDOF 4
ENDMDL
