REMARK  5 active torsions:
REMARK  status: ('A' for Active; 'I' for Inactive)
REMARK    1  A    between atoms: C_2  and  C_3 
REMARK    2  A    between atoms: C_3  and  C_4 
REMARK    3  A    between atoms: C_4  and  C_5 
REMARK    4  A    between atoms: C_5  and  C_6 
REMARK    5  A    between atoms: C_6  and  O_7 
ROOT
HETATM    1  C   LIG     1       1.733  -0.264   0.862  1.00  0.00     0.110 C 
ENDROOT
BRANCH   1   2
HETATM    2  C   LIG     1       0.701  -0.165  -0.267  1.00  0.00     0.010 C 
BRANCH   2   3
HETATM    3  C   LIG     1      -0.718  -0.028   0.296  1.00  0.00     0.000 C 
BRANCH   3   4
HETATM    4  C   LIG     1      -1.751   0.073  -0.833  1.00  0.00    -0.005 C 
HETATM    5  C   LIG     1      -3.165   0.209  -0.276  1.00  0.00     0.005 C 
ENDBRANCH   3   4
ENDBRANCH   2   3
ENDBRANCH   1   2
BRANCH   1   6
HETATM    6  C   LIG     1       3.118  -0.420   0.308  1.00  0.00     0.139 C 
HETATM    7  O   LIG     1       3.752  -1.493   0.492  1.00  0.00    -0.650 OA
BRANCH   6   8
HETATM    8  O   LIG     1       3.721   0.616  -0.401  1.00  0.00    -0.776 OA
HETATM    9  H   LIG     1       3.248   1.500  -0.543  1.00  0.00     0.167 HD
ENDBRANCH   6   8
ENDBRANCH   1   6
TORSDOF 5
