REMARK  2 active torsions:
REMARK  status: ('A' for Active; 'I' for Inactive)
REMARK    1  A    between atoms: C_2  and  C_3 
REMARK    2  A    between atoms: C_3  and  C_4 
ROOT
HETATM    1  C   LIG     1       0.142  -0.404  -0.439  1.00  0.00     0.030 C 
ENDROOT
BRANCH   1   2
HETATM    2  C   LIG     1      -1.316   0.003  -0.208  1.00  0.00     0.115 C 
HETATM    3 CL   LIG     1      -1.887  -0.514   1.402  1.00  0.00    -0.130 Cl
ENDBRANCH   1   2
BRANCH   1   4
HETATM    4  C   LIG     1       1.107   0.398   0.436  1.00  0.00     0.115 C 
HETATM    5 CL   LIG     1       2.787  -0.081   0.089  1.00  0.00    -0.130 Cl
ENDBRANCH   1   4
TORSDOF 2
