REMARK  4 active torsions:
REMARK  status: ('A' for Active; 'I' for Inactive)
REMARK    1  A    between atoms: O_2  and  C_3 
REMARK    2  A    between atoms: C_6  and  O_7 
REMARK    3  A    between atoms: O_7  and  C_8 
REMARK    4  A    between atoms: C_11  and  N_14 
REMARK       I    between atoms: N_14  and  C_15 
REMARK       I    between atoms: C_15  and  N_16 
ROOT
HETATM    1  C   LIG     1       0.095   0.583   0.264  1.00  0.00     0.076 A 
HETATM    2  C   LIG     1       0.040  -0.672  -0.368  1.00  0.00     0.039 A 
HETATM    3  C   LIG     1      -1.170  -1.150  -0.880  1.00  0.00     0.032 A 
HETATM    4  C   LIG     1      -2.345  -0.398  -0.748  1.00  0.00     0.036 A 
HETATM    5  C   LIG     1      -2.288   0.856  -0.113  1.00  0.00     0.032 A 
HETATM    6  C   LIG     1      -1.078   1.333   0.400  1.00  0.00     0.039 A 
ENDROOT
BRANCH   1   7
HETATM    7  O   LIG     1       1.285   1.089   0.807  1.00  0.00    -0.311 OA
BRANCH   7   8
HETATM    8  C   LIG     1       2.575   0.841   0.313  1.00  0.00     0.076 A 
HETATM    9  C   LIG     1       3.649   0.844   1.208  1.00  0.00     0.040 A 
HETATM   10  C   LIG     1       4.952   0.615   0.755  1.00  0.00     0.039 A 
HETATM   11  C   LIG     1       5.197   0.393  -0.614  1.00  0.00     0.068 A 
HETATM   12  C   LIG     1       4.123   0.411  -1.511  1.00  0.00     0.039 A 
HETATM   13  C   LIG     1       2.821   0.639  -1.056  1.00  0.00     0.040 A 
BRANCH  11  14
HETATM   14  O   LIG     1       6.485   0.158  -1.119  1.00  0.00    -0.356 OA
HETATM   15  C   LIG     1       7.665   0.114  -0.324  1.00  0.00     0.210 C 
ENDBRANCH  11  14
ENDBRANCH   7   8
ENDBRANCH   1   7
BRANCH   4  16
HETATM   16  N   LIG     1      -3.573  -0.905  -1.298  1.00  0.00    -0.309 N 
HETATM   17  C   LIG     1      -4.873  -0.446  -0.903  1.00  0.00     0.322 C 
HETATM   18  N   LIG     1      -5.234  -0.323   0.487  1.00  0.00    -0.343 N 
HETATM   19  O   LIG     1      -5.725  -0.188  -1.796  1.00  0.00    -0.247 OA
HETATM   20  C   LIG     1      -4.585  -1.168   1.494  1.00  0.00     0.154 C 
HETATM   21  C   LIG     1      -6.344   0.556   0.862  1.00  0.00     0.154 C 
HETATM   22  H   LIG     1      -3.519  -1.567  -2.104  1.00  0.00     0.170 HD
ENDBRANCH   4  16
TORSDOF 4
