MODEL 1
REMARK VINA RESULT:      -6.5      0.000      0.000
REMARK  11 active torsions:
REMARK  status: ('A' for Active; 'I' for Inactive)
REMARK    1  A    between atoms: C_2  and  C_3 
REMARK    2  A    between atoms: C_3  and  C_4 
REMARK    3  A    between atoms: C_4  and  C_5 
REMARK    4  A    between atoms: C_5  and  C_6 
REMARK    5  A    between atoms: C_6  and  C_7 
REMARK    6  A    between atoms: C_7  and  C_8 
REMARK    7  A    between atoms: C_8  and  C_9 
REMARK    8  A    between atoms: C_9  and  C_10 
REMARK    9  A    between atoms: C_10  and  C_11 
REMARK   10  A    between atoms: C_11  and  C_12 
REMARK   11  A    between atoms: C_12  and  O_13 
ROOT
HETATM    1  C   LIG     1      17.065  36.048  21.824  1.00  0.00     0.000 C 
ENDROOT
BRANCH   1   2
HETATM    2  C   LIG     1      15.890  36.920  22.291  1.00  0.00     0.000 C 
BRANCH   2   3
HETATM    3  C   LIG     1      16.346  38.286  22.831  1.00  0.00     0.000 C 
BRANCH   3   4
HETATM    4  C   LIG     1      17.656  38.203  23.633  1.00  0.00     0.000 C 
BRANCH   4   5
HETATM    5  C   LIG     1      17.483  37.914  25.137  1.00  0.00     0.000 C 
BRANCH   5   6
HETATM    6  C   LIG     1      18.634  37.126  25.787  1.00  0.00    -0.000 C 
BRANCH   6   7
HETATM    7  C   LIG     1      18.142  35.990  26.695  1.00  0.00    -0.005 C 
HETATM    8  C   LIG     1      17.512  34.867  25.878  1.00  0.00     0.005 C 
ENDBRANCH   6   7
ENDBRANCH   5   6
ENDBRANCH   4   5
ENDBRANCH   3   4
ENDBRANCH   2   3
ENDBRANCH   1   2
BRANCH   1   9
HETATM    9  C   LIG     1      17.358  36.206  20.324  1.00  0.00     0.001 C 
BRANCH   9  10
HETATM   10  C   LIG     1      18.774  36.745  20.095  1.00  0.00     0.010 C 
BRANCH  10  11
HETATM   11  C   LIG     1      18.757  37.958  19.158  1.00  0.00     0.110 C 
BRANCH  11  12
HETATM   12  C   LIG     1      19.555  39.091  19.734  1.00  0.00     0.139 C 
HETATM   13  O   LIG     1      20.645  39.425  19.199  1.00  0.00    -0.650 OA
BRANCH  12  14
HETATM   14  O   LIG     1      19.110  39.776  20.861  1.00  0.00    -0.776 OA
HETATM   15  H   LIG     1      18.915  39.293  21.730  1.00  0.00     0.167 HD
ENDBRANCH  12  14
ENDBRANCH  11  12
ENDBRANCH  10  11
ENDBRANCH   9  10
ENDBRANCH   1   9
TORSDOF 11
ENDMDL
MODEL 2
REMARK VINA RESULT:      -6.4      3.996      4.676
REMARK  11 active torsions:
REMARK  status: ('A' for Active; 'I' for Inactive)
REMARK    1  A    between atoms: C_2  and  C_3 
REMARK    2  A    between atoms: C_3  and  C_4 
REMARK    3  A    between atoms: C_4  and  C_5 
REMARK    4  A    between atoms: C_5  and  C_6 
REMARK    5  A    between atoms: C_6  and  C_7 
REMARK    6  A    between atoms: C_7  and  C_8 
REMARK    7  A    between atoms: C_8  and  C_9 
REMARK    8  A    between atoms: C_9  and  C_10 
REMARK    9  A    between atoms: C_10  and  C_11 
REMARK   10  A    between atoms: C_11  and  C_12 
REMARK   11  A    between atoms: C_12  and  O_13 
ROOT
HETATM    1  C   LIG     1      16.929  35.403  22.169  1.00  0.00     0.000 C 
ENDROOT
BRANCH   1   2
HETATM    2  C   LIG     1      17.163  36.807  21.588  1.00  0.00     0.000 C 
BRANCH   2   3
HETATM    3  C   LIG     1      17.332  37.877  22.679  1.00  0.00     0.000 C 
BRANCH   3   4
HETATM    4  C   LIG     1      16.588  37.525  23.979  1.00  0.00     0.000 C 
BRANCH   4   5
HETATM    5  C   LIG     1      17.300  37.960  25.276  1.00  0.00     0.000 C 
BRANCH   5   6
HETATM    6  C   LIG     1      18.550  37.139  25.641  1.00  0.00    -0.000 C 
BRANCH   6   7
HETATM    7  C   LIG     1      18.266  36.057  26.693  1.00  0.00    -0.005 C 
HETATM    8  C   LIG     1      17.636  34.823  26.055  1.00  0.00     0.005 C 
ENDBRANCH   6   7
ENDBRANCH   5   6
ENDBRANCH   4   5
ENDBRANCH   3   4
ENDBRANCH   2   3
ENDBRANCH   1   2
BRANCH   1   9
HETATM    9  C   LIG     1      15.628  34.764  21.664  1.00  0.00     0.001 C 
BRANCH   9  10
HETATM   10  C   LIG     1      15.813  34.178  20.259  1.00  0.00     0.010 C 
BRANCH  10  11
HETATM   11  C   LIG     1      15.228  32.764  20.171  1.00  0.00     0.110 C 
BRANCH  11  12
HETATM   12  C   LIG     1      14.974  32.378  18.744  1.00  0.00     0.139 C 
HETATM   13  O   LIG     1      15.700  32.848  17.829  1.00  0.00    -0.650 OA
BRANCH  12  14
HETATM   14  O   LIG     1      13.937  31.510  18.413  1.00  0.00    -0.776 OA
HETATM   15  H   LIG     1      13.234  31.245  19.093  1.00  0.00     0.167 HD
ENDBRANCH  12  14
ENDBRANCH  11  12
ENDBRANCH  10  11
ENDBRANCH   9  10
ENDBRANCH   1   9
TORSDOF 11
ENDMDL
MODEL 3
REMARK VINA RESULT:      -6.3      1.180      2.396
REMARK  11 active torsions:
REMARK  status: ('A' for Active; 'I' for Inactive)
REMARK    1  A    between atoms: C_2  and  C_3 
REMARK    2  A    between atoms: C_3  and  C_4 
REMARK    3  A    between atoms: C_4  and  C_5 
REMARK    4  A    between atoms: C_5  and  C_6 
REMARK    5  A    between atoms: C_6  and  C_7 
REMARK    6  A    between atoms: C_7  and  C_8 
REMARK    7  A    between atoms: C_8  and  C_9 
REMARK    8  A    between atoms: C_9  and  C_10 
REMARK    9  A    between atoms: C_10  and  C_11 
REMARK   10  A    between atoms: C_11  and  C_12 
REMARK   11  A    between atoms: C_12  and  O_13 
ROOT
HETATM    1  C   LIG     1      17.247  36.820  21.520  1.00  0.00     0.000 C 
ENDROOT
BRANCH   1   2
HETATM    2  C   LIG     1      16.409  35.945  22.465  1.00  0.00     0.000 C 
BRANCH   2   3
HETATM    3  C   LIG     1      17.267  34.957  23.273  1.00  0.00     0.000 C 
BRANCH   3   4
HETATM    4  C   LIG     1      16.864  34.895  24.757  1.00  0.00     0.000 C 
BRANCH   4   5
HETATM    5  C   LIG     1      18.041  34.807  25.749  1.00  0.00     0.000 C 
BRANCH   5   6
HETATM    6  C   LIG     1      18.225  36.038  26.654  1.00  0.00    -0.000 C 
BRANCH   6   7
HETATM    7  C   LIG     1      18.579  37.309  25.867  1.00  0.00    -0.005 C 
HETATM    8  C   LIG     1      17.357  38.205  25.694  1.00  0.00     0.005 C 
ENDBRANCH   6   7
ENDBRANCH   5   6
ENDBRANCH   4   5
ENDBRANCH   3   4
ENDBRANCH   2   3
ENDBRANCH   1   2
BRANCH   1   9
HETATM    9  C   LIG     1      17.590  38.187  22.129  1.00  0.00     0.001 C 
BRANCH   9  10
HETATM   10  C   LIG     1      18.332  39.069  21.119  1.00  0.00     0.010 C 
BRANCH  10  11
HETATM   11  C   LIG     1      18.923  38.227  19.982  1.00  0.00     0.110 C 
BRANCH  11  12
HETATM   12  C   LIG     1      19.503  39.104  18.912  1.00  0.00     0.139 C 
HETATM   13  O   LIG     1      18.770  39.520  17.977  1.00  0.00    -0.650 OA
BRANCH  12  14
HETATM   14  O   LIG     1      20.849  39.461  18.934  1.00  0.00    -0.776 OA
HETATM   15  H   LIG     1      21.577  38.786  18.734  1.00  0.00     0.167 HD
ENDBRANCH  12  14
ENDBRANCH  11  12
ENDBRANCH  10  11
ENDBRANCH   9  10
ENDBRANCH   1   9
TORSDOF 11
ENDMDL
MODEL 4
REMARK VINA RESULT:      -6.1      3.583      4.291
REMARK  11 active torsions:
REMARK  status: ('A' for Active; 'I' for Inactive)
REMARK    1  A    between atoms: C_2  and  C_3 
REMARK    2  A    between atoms: C_3  and  C_4 
REMARK    3  A    between atoms: C_4  and  C_5 
REMARK    4  A    between atoms: C_5  and  C_6 
REMARK    5  A    between atoms: C_6  and  C_7 
REMARK    6  A    between atoms: C_7  and  C_8 
REMARK    7  A    between atoms: C_8  and  C_9 
REMARK    8  A    between atoms: C_9  and  C_10 
REMARK    9  A    between atoms: C_10  and  C_11 
REMARK   10  A    between atoms: C_11  and  C_12 
REMARK   11  A    between atoms: C_12  and  O_13 
ROOT
HETATM    1  C   LIG     1      17.500  36.466  20.993  1.00  0.00     0.000 C 
ENDROOT
BRANCH   1   2
HETATM    2  C   LIG     1      17.807  37.779  21.730  1.00  0.00     0.000 C 
BRANCH   2   3
HETATM    3  C   LIG     1      16.564  38.383  22.405  1.00  0.00     0.000 C 
BRANCH   3   4
HETATM    4  C   LIG     1      16.516  38.110  23.918  1.00  0.00     0.000 C 
BRANCH   4   5
HETATM    5  C   LIG     1      17.890  38.060  24.616  1.00  0.00     0.000 C 
BRANCH   5   6
HETATM    6  C   LIG     1      17.955  37.160  25.863  1.00  0.00    -0.000 C 
BRANCH   6   7
HETATM    7  C   LIG     1      17.550  35.708  25.574  1.00  0.00    -0.005 C 
HETATM    8  C   LIG     1      18.423  34.729  26.353  1.00  0.00     0.005 C 
ENDBRANCH   6   7
ENDBRANCH   5   6
ENDBRANCH   4   5
ENDBRANCH   3   4
ENDBRANCH   2   3
ENDBRANCH   1   2
BRANCH   1   9
HETATM    9  C   LIG     1      17.167  35.314  21.952  1.00  0.00     0.001 C 
BRANCH   9  10
HETATM   10  C   LIG     1      15.815  34.681  21.604  1.00  0.00     0.010 C 
BRANCH  10  11
HETATM   11  C   LIG     1      15.684  34.458  20.093  1.00  0.00     0.110 C 
BRANCH  11  12
HETATM   12  C   LIG     1      15.248  33.054  19.795  1.00  0.00     0.139 C 
HETATM   13  O   LIG     1      15.738  32.441  18.811  1.00  0.00    -0.650 OA
BRANCH  12  14
HETATM   14  O   LIG     1      14.298  32.418  20.590  1.00  0.00    -0.776 OA
HETATM   15  H   LIG     1      13.447  32.889  20.875  1.00  0.00     0.167 HD
ENDBRANCH  12  14
ENDBRANCH  11  12
ENDBRANCH  10  11
ENDBRANCH   9  10
ENDBRANCH   1   9
TORSDOF 11
ENDMDL
MODEL 5
REMARK VINA RESULT:      -6.1      4.059      5.695
REMARK  11 active torsions:
REMARK  status: ('A' for Active; 'I' for Inactive)
REMARK    1  A    between atoms: C_2  and  C_3 
REMARK    2  A    between atoms: C_3  and  C_4 
REMARK    3  A    between atoms: C_4  and  C_5 
REMARK    4  A    between atoms: C_5  and  C_6 
REMARK    5  A    between atoms: C_6  and  C_7 
REMARK    6  A    between atoms: C_7  and  C_8 
REMARK    7  A    between atoms: C_8  and  C_9 
REMARK    8  A    between atoms: C_9  and  C_10 
REMARK    9  A    between atoms: C_10  and  C_11 
REMARK   10  A    between atoms: C_11  and  C_12 
REMARK   11  A    between atoms: C_12  and  O_13 
ROOT
HETATM    1  C   LIG     1      16.580  35.352  21.910  1.00  0.00     0.000 C 
ENDROOT
BRANCH   1   2
HETATM    2  C   LIG     1      16.084  36.790  22.127  1.00  0.00     0.000 C 
BRANCH   2   3
HETATM    3  C   LIG     1      16.781  37.483  23.310  1.00  0.00     0.000 C 
BRANCH   3   4
HETATM    4  C   LIG     1      17.836  38.509  22.861  1.00  0.00     0.000 C 
BRANCH   4   5
HETATM    5  C   LIG     1      17.868  38.792  21.346  1.00  0.00     0.000 C 
BRANCH   5   6
HETATM    6  C   LIG     1      19.259  39.118  20.772  1.00  0.00    -0.000 C 
BRANCH   6   7
HETATM    7  C   LIG     1      19.561  38.358  19.472  1.00  0.00    -0.005 C 
HETATM    8  C   LIG     1      19.087  36.911  19.559  1.00  0.00     0.005 C 
ENDBRANCH   6   7
ENDBRANCH   5   6
ENDBRANCH   4   5
ENDBRANCH   3   4
ENDBRANCH   2   3
ENDBRANCH   1   2
BRANCH   1   9
HETATM    9  C   LIG     1      16.179  34.790  20.538  1.00  0.00     0.001 C 
BRANCH   9  10
HETATM   10  C   LIG     1      15.171  33.644  20.687  1.00  0.00     0.010 C 
BRANCH  10  11
HETATM   11  C   LIG     1      15.614  32.414  19.887  1.00  0.00     0.110 C 
BRANCH  11  12
HETATM   12  C   LIG     1      15.031  32.436  18.505  1.00  0.00     0.139 C 
HETATM   13  O   LIG     1      15.691  32.934  17.555  1.00  0.00    -0.650 OA
BRANCH  12  14
HETATM   14  O   LIG     1      13.763  31.919  18.257  1.00  0.00    -0.776 OA
HETATM   15  H   LIG     1      13.447  31.062  18.694  1.00  0.00     0.167 HD
ENDBRANCH  12  14
ENDBRANCH  11  12
ENDBRANCH  10  11
ENDBRANCH   9  10
ENDBRANCH   1   9
TORSDOF 11
ENDMDL
MODEL 6
REMARK VINA RESULT:      -6.0      3.349      5.305
REMARK  11 active torsions:
REMARK  status: ('A' for Active; 'I' for Inactive)
REMARK    1  A    between atoms: C_2  and  C_3 
REMARK    2  A    between atoms: C_3  and  C_4 
REMARK    3  A    between atoms: C_4  and  C_5 
REMARK    4  A    between atoms: C_5  and  C_6 
REMARK    5  A    between atoms: C_6  and  C_7 
REMARK    6  A    between atoms: C_7  and  C_8 
REMARK    7  A    between atoms: C_8  and  C_9 
REMARK    8  A    between atoms: C_9  and  C_10 
REMARK    9  A    between atoms: C_10  and  C_11 
REMARK   10  A    between atoms: C_11  and  C_12 
REMARK   11  A    between atoms: C_12  and  O_13 
ROOT
HETATM    1  C   LIG     1      17.307  36.082  24.422  1.00  0.00     0.000 C 
ENDROOT
BRANCH   1   2
HETATM    2  C   LIG     1      16.662  37.450  24.148  1.00  0.00     0.000 C 
BRANCH   2   3
HETATM    3  C   LIG     1      17.698  38.532  23.800  1.00  0.00     0.000 C 
BRANCH   3   4
HETATM    4  C   LIG     1      17.556  39.049  22.358  1.00  0.00     0.000 C 
BRANCH   4   5
HETATM    5  C   LIG     1      18.887  39.329  21.631  1.00  0.00     0.000 C 
BRANCH   5   6
HETATM    6  C   LIG     1      18.809  39.305  20.094  1.00  0.00    -0.000 C 
BRANCH   6   7
HETATM    7  C   LIG     1      19.750  38.269  19.465  1.00  0.00    -0.005 C 
HETATM    8  C   LIG     1      19.174  36.861  19.582  1.00  0.00     0.005 C 
ENDBRANCH   6   7
ENDBRANCH   5   6
ENDBRANCH   4   5
ENDBRANCH   3   4
ENDBRANCH   2   3
ENDBRANCH   1   2
BRANCH   1   9
HETATM    9  C   LIG     1      17.038  35.067  23.301  1.00  0.00     0.001 C 
BRANCH   9  10
HETATM   10  C   LIG     1      16.255  35.713  22.152  1.00  0.00     0.010 C 
BRANCH  10  11
HETATM   11  C   LIG     1      16.355  34.870  20.875  1.00  0.00     0.110 C 
BRANCH  11  12
HETATM   12  C   LIG     1      15.238  33.870  20.807  1.00  0.00     0.139 C 
HETATM   13  O   LIG     1      15.357  32.846  20.083  1.00  0.00    -0.650 OA
BRANCH  12  14
HETATM   14  O   LIG     1      14.063  34.061  21.528  1.00  0.00    -0.776 OA
HETATM   15  H   LIG     1      13.237  33.503  21.350  1.00  0.00     0.167 HD
ENDBRANCH  12  14
ENDBRANCH  11  12
ENDBRANCH  10  11
ENDBRANCH   9  10
ENDBRANCH   1   9
TORSDOF 11
ENDMDL
MODEL 7
REMARK VINA RESULT:      -5.6      2.586      5.287
REMARK  11 active torsions:
REMARK  status: ('A' for Active; 'I' for Inactive)
REMARK    1  A    between atoms: C_2  and  C_3 
REMARK    2  A    between atoms: C_3  and  C_4 
REMARK    3  A    between atoms: C_4  and  C_5 
REMARK    4  A    between atoms: C_5  and  C_6 
REMARK    5  A    between atoms: C_6  and  C_7 
REMARK    6  A    between atoms: C_7  and  C_8 
REMARK    7  A    between atoms: C_8  and  C_9 
REMARK    8  A    between atoms: C_9  and  C_10 
REMARK    9  A    between atoms: C_10  and  C_11 
REMARK   10  A    between atoms: C_11  and  C_12 
REMARK   11  A    between atoms: C_12  and  O_13 
ROOT
HETATM    1  C   LIG     1      17.893  35.612  26.414  1.00  0.00     0.000 C 
ENDROOT
BRANCH   1   2
HETATM    2  C   LIG     1      17.929  34.754  25.140  1.00  0.00     0.000 C 
BRANCH   2   3
HETATM    3  C   LIG     1      16.708  34.987  24.236  1.00  0.00     0.000 C 
BRANCH   3   4
HETATM    4  C   LIG     1      17.056  34.928  22.738  1.00  0.00     0.000 C 
BRANCH   4   5
HETATM    5  C   LIG     1      15.911  35.327  21.786  1.00  0.00     0.000 C 
BRANCH   5   6
HETATM    6  C   LIG     1      15.040  34.159  21.288  1.00  0.00    -0.000 C 
BRANCH   6   7
HETATM    7  C   LIG     1      15.718  33.338  20.183  1.00  0.00    -0.005 C 
HETATM    8  C   LIG     1      14.979  32.025  19.942  1.00  0.00     0.005 C 
ENDBRANCH   6   7
ENDBRANCH   5   6
ENDBRANCH   4   5
ENDBRANCH   3   4
ENDBRANCH   2   3
ENDBRANCH   1   2
BRANCH   1   9
HETATM    9  C   LIG     1      18.516  37.001  26.210  1.00  0.00     0.001 C 
BRANCH   9  10
HETATM   10  C   LIG     1      17.510  37.966  25.573  1.00  0.00     0.010 C 
BRANCH  10  11
HETATM   11  C   LIG     1      17.992  38.436  24.196  1.00  0.00     0.110 C 
BRANCH  11  12
HETATM   12  C   LIG     1      16.841  38.565  23.241  1.00  0.00     0.139 C 
HETATM   13  O   LIG     1      17.039  38.999  22.076  1.00  0.00    -0.650 OA
BRANCH  12  14
HETATM   14  O   LIG     1      15.550  38.217  23.630  1.00  0.00    -0.776 OA
HETATM   15  H   LIG     1      15.298  37.255  23.826  1.00  0.00     0.167 HD
ENDBRANCH  12  14
ENDBRANCH  11  12
ENDBRANCH  10  11
ENDBRANCH   9  10
ENDBRANCH   1   9
TORSDOF 11
ENDMDL
MODEL 8
REMARK VINA RESULT:      -5.4      3.783      6.209
REMARK  11 active torsions:
REMARK  status: ('A' for Active; 'I' for Inactive)
REMARK    1  A    between atoms: C_2  and  C_3 
REMARK    2  A    between atoms: C_3  and  C_4 
REMARK    3  A    between atoms: C_4  and  C_5 
REMARK    4  A    between atoms: C_5  and  C_6 
REMARK    5  A    between atoms: C_6  and  C_7 
REMARK    6  A    between atoms: C_7  and  C_8 
REMARK    7  A    between atoms: C_8  and  C_9 
REMARK    8  A    between atoms: C_9  and  C_10 
REMARK    9  A    between atoms: C_10  and  C_11 
REMARK   10  A    between atoms: C_11  and  C_12 
REMARK   11  A    between atoms: C_12  and  O_13 
ROOT
HETATM    1  C   LIG     1      16.476  36.287  21.688  1.00  0.00     0.000 C 
ENDROOT
BRANCH   1   2
HETATM    2  C   LIG     1      16.555  34.767  21.479  1.00  0.00     0.000 C 
BRANCH   2   3
HETATM    3  C   LIG     1      15.300  34.198  20.796  1.00  0.00     0.000 C 
BRANCH   3   4
HETATM    4  C   LIG     1      15.555  32.842  20.116  1.00  0.00     0.000 C 
BRANCH   4   5
HETATM    5  C   LIG     1      15.294  32.814  18.597  1.00  0.00     0.000 C 
BRANCH   5   6
HETATM    6  C   LIG     1      14.275  31.759  18.129  1.00  0.00    -0.000 C 
BRANCH   6   7
HETATM    7  C   LIG     1      14.035  31.793  16.613  1.00  0.00    -0.005 C 
HETATM    8  C   LIG     1      13.087  30.678  16.182  1.00  0.00     0.005 C 
ENDBRANCH   6   7
ENDBRANCH   5   6
ENDBRANCH   4   5
ENDBRANCH   3   4
ENDBRANCH   2   3
ENDBRANCH   1   2
BRANCH   1   9
HETATM    9  C   LIG     1      17.673  37.030  21.078  1.00  0.00     0.001 C 
BRANCH   9  10
HETATM   10  C   LIG     1      17.710  38.490  21.545  1.00  0.00     0.010 C 
BRANCH  10  11
HETATM   11  C   LIG     1      19.110  39.089  21.370  1.00  0.00     0.110 C 
BRANCH  11  12
HETATM   12  C   LIG     1      19.521  39.075  19.927  1.00  0.00     0.139 C 
HETATM   13  O   LIG     1      20.594  38.510  19.586  1.00  0.00    -0.650 OA
BRANCH  12  14
HETATM   14  O   LIG     1      18.735  39.687  18.955  1.00  0.00    -0.776 OA
HETATM   15  H   LIG     1      18.024  39.171  18.449  1.00  0.00     0.167 HD
ENDBRANCH  12  14
ENDBRANCH  11  12
ENDBRANCH  10  11
ENDBRANCH   9  10
ENDBRANCH   1   9
TORSDOF 11
ENDMDL
MODEL 9
REMARK VINA RESULT:      -5.4      4.584      7.385
REMARK  11 active torsions:
REMARK  status: ('A' for Active; 'I' for Inactive)
REMARK    1  A    between atoms: C_2  and  C_3 
REMARK    2  A    between atoms: C_3  and  C_4 
REMARK    3  A    between atoms: C_4  and  C_5 
REMARK    4  A    between atoms: C_5  and  C_6 
REMARK    5  A    between atoms: C_6  and  C_7 
REMARK    6  A    between atoms: C_7  and  C_8 
REMARK    7  A    between atoms: C_8  and  C_9 
REMARK    8  A    between atoms: C_9  and  C_10 
REMARK    9  A    between atoms: C_10  and  C_11 
REMARK   10  A    between atoms: C_11  and  C_12 
REMARK   11  A    between atoms: C_12  and  O_13 
ROOT
HETATM    1  C   LIG     1      15.915  35.405  20.473  1.00  0.00     0.000 C 
ENDROOT
BRANCH   1   2
HETATM    2  C   LIG     1      15.413  34.353  19.471  1.00  0.00     0.000 C 
BRANCH   2   3
HETATM    3  C   LIG     1      15.600  32.915  19.981  1.00  0.00     0.000 C 
BRANCH   3   4
HETATM    4  C   LIG     1      14.758  31.892  19.198  1.00  0.00     0.000 C 
BRANCH   4   5
HETATM    5  C   LIG     1      14.667  32.148  17.680  1.00  0.00     0.000 C 
BRANCH   5   6
HETATM    6  C   LIG     1      13.322  31.769  17.035  1.00  0.00    -0.000 C 
BRANCH   6   7
HETATM    7  C   LIG     1      13.476  30.777  15.873  1.00  0.00    -0.005 C 
HETATM    8  C   LIG     1      14.802  30.982  15.148  1.00  0.00     0.005 C 
ENDBRANCH   6   7
ENDBRANCH   5   6
ENDBRANCH   4   5
ENDBRANCH   3   4
ENDBRANCH   2   3
ENDBRANCH   1   2
BRANCH   1   9
HETATM    9  C   LIG     1      16.664  34.780  21.659  1.00  0.00     0.001 C 
BRANCH   9  10
HETATM   10  C   LIG     1      16.824  35.790  22.801  1.00  0.00     0.010 C 
BRANCH  10  11
HETATM   11  C   LIG     1      17.098  37.197  22.259  1.00  0.00     0.110 C 
BRANCH  11  12
HETATM   12  C   LIG     1      16.622  38.244  23.223  1.00  0.00     0.139 C 
HETATM   13  O   LIG     1      16.610  39.455  22.878  1.00  0.00    -0.650 OA
BRANCH  12  14
HETATM   14  O   LIG     1      16.199  37.895  24.503  1.00  0.00    -0.776 OA
HETATM   15  H   LIG     1      15.824  38.587  25.142  1.00  0.00     0.167 HD
ENDBRANCH  12  14
ENDBRANCH  11  12
ENDBRANCH  10  11
ENDBRANCH   9  10
ENDBRANCH   1   9
TORSDOF 11
ENDMDL
MODEL 10
REMARK VINA RESULT:      -5.3      5.346      8.230
REMARK  11 active torsions:
REMARK  status: ('A' for Active; 'I' for Inactive)
REMARK    1  A    between atoms: C_2  and  C_3 
REMARK    2  A    between atoms: C_3  and  C_4 
REMARK    3  A    between atoms: C_4  and  C_5 
REMARK    4  A    between atoms: C_5  and  C_6 
REMARK    5  A    between atoms: C_6  and  C_7 
REMARK    6  A    between atoms: C_7  and  C_8 
REMARK    7  A    between atoms: C_8  and  C_9 
REMARK    8  A    between atoms: C_9  and  C_10 
REMARK    9  A    between atoms: C_10  and  C_11 
REMARK   10  A    between atoms: C_11  and  C_12 
REMARK   11  A    between atoms: C_12  and  O_13 
ROOT
HETATM    1  C   LIG     1      15.721  34.448  20.217  1.00  0.00     0.000 C 
ENDROOT
BRANCH   1   2
HETATM    2  C   LIG     1      15.411  32.956  20.023  1.00  0.00     0.000 C 
BRANCH   2   3
HETATM    3  C   LIG     1      15.288  32.565  18.541  1.00  0.00     0.000 C 
BRANCH   3   4
HETATM    4  C   LIG     1      14.180  31.528  18.289  1.00  0.00     0.000 C 
BRANCH   4   5
HETATM    5  C   LIG     1      13.672  31.457  16.835  1.00  0.00     0.000 C 
BRANCH   5   6
HETATM    6  C   LIG     1      14.772  31.373  15.762  1.00  0.00    -0.000 C 
BRANCH   6   7
HETATM    7  C   LIG     1      14.549  30.225  14.768  1.00  0.00    -0.005 C 
HETATM    8  C   LIG     1      15.294  30.478  13.461  1.00  0.00     0.005 C 
ENDBRANCH   6   7
ENDBRANCH   5   6
ENDBRANCH   4   5
ENDBRANCH   3   4
ENDBRANCH   2   3
ENDBRANCH   1   2
BRANCH   1   9
HETATM    9  C   LIG     1      15.592  34.893  21.681  1.00  0.00     0.001 C 
BRANCH   9  10
HETATM   10  C   LIG     1      16.957  35.282  22.260  1.00  0.00     0.010 C 
BRANCH  10  11
HETATM   11  C   LIG     1      16.994  36.769  22.631  1.00  0.00     0.110 C 
BRANCH  11  12
HETATM   12  C   LIG     1      16.970  36.950  24.120  1.00  0.00     0.139 C 
HETATM   13  O   LIG     1      17.448  36.057  24.868  1.00  0.00    -0.650 OA
BRANCH  12  14
HETATM   14  O   LIG     1      16.416  38.092  24.691  1.00  0.00    -0.776 OA
HETATM   15  H   LIG     1      16.969  38.715  25.269  1.00  0.00     0.167 HD
ENDBRANCH  12  14
ENDBRANCH  11  12
ENDBRANCH  10  11
ENDBRANCH   9  10
ENDBRANCH   1   9
TORSDOF 11
ENDMDL
MODEL 11
REMARK VINA RESULT:      -5.3      7.431     10.237
REMARK  11 active torsions:
REMARK  status: ('A' for Active; 'I' for Inactive)
REMARK    1  A    between atoms: C_2  and  C_3 
REMARK    2  A    between atoms: C_3  and  C_4 
REMARK    3  A    between atoms: C_4  and  C_5 
REMARK    4  A    between atoms: C_5  and  C_6 
REMARK    5  A    between atoms: C_6  and  C_7 
REMARK    6  A    between atoms: C_7  and  C_8 
REMARK    7  A    between atoms: C_8  and  C_9 
REMARK    8  A    between atoms: C_9  and  C_10 
REMARK    9  A    between atoms: C_10  and  C_11 
REMARK   10  A    between atoms: C_11  and  C_12 
REMARK   11  A    between atoms: C_12  and  O_13 
ROOT
HETATM    1  C   LIG     1      13.750  30.697  16.503  1.00  0.00     0.000 C 
ENDROOT
BRANCH   1   2
HETATM    2  C   LIG     1      13.212  30.272  15.128  1.00  0.00     0.000 C 
BRANCH   2   3
HETATM    3  C   LIG     1      14.332  30.049  14.098  1.00  0.00     0.000 C 
BRANCH   3   4
HETATM    4  C   LIG     1      15.690  30.602  14.566  1.00  0.00     0.000 C 
BRANCH   4   5
HETATM    5  C   LIG     1      16.028  32.017  14.057  1.00  0.00     0.000 C 
BRANCH   5   6
HETATM    6  C   LIG     1      17.074  32.778  14.891  1.00  0.00    -0.000 C 
BRANCH   6   7
HETATM    7  C   LIG     1      17.653  33.996  14.156  1.00  0.00    -0.005 C 
HETATM    8  C   LIG     1      18.594  33.564  13.036  1.00  0.00     0.005 C 
ENDBRANCH   6   7
ENDBRANCH   5   6
ENDBRANCH   4   5
ENDBRANCH   3   4
ENDBRANCH   2   3
ENDBRANCH   1   2
BRANCH   1   9
HETATM    9  C   LIG     1      13.222  32.069  16.946  1.00  0.00     0.001 C 
BRANCH   9  10
HETATM   10  C   LIG     1      14.369  32.982  17.392  1.00  0.00     0.010 C 
BRANCH  10  11
HETATM   11  C   LIG     1      15.382  32.215  18.249  1.00  0.00     0.110 C 
BRANCH  11  12
HETATM   12  C   LIG     1      14.885  32.062  19.657  1.00  0.00     0.139 C 
HETATM   13  O   LIG     1      14.667  30.912  20.123  1.00  0.00    -0.650 OA
BRANCH  12  14
HETATM   14  O   LIG     1      14.651  33.177  20.456  1.00  0.00    -0.776 OA
HETATM   15  H   LIG     1      13.931  33.175  21.169  1.00  0.00     0.167 HD
ENDBRANCH  12  14
ENDBRANCH  11  12
ENDBRANCH  10  11
ENDBRANCH   9  10
ENDBRANCH   1   9
TORSDOF 11
ENDMDL
MODEL 12
REMARK VINA RESULT:      -5.2      3.900      6.715
REMARK  11 active torsions:
REMARK  status: ('A' for Active; 'I' for Inactive)
REMARK    1  A    between atoms: C_2  and  C_3 
REMARK    2  A    between atoms: C_3  and  C_4 
REMARK    3  A    between atoms: C_4  and  C_5 
REMARK    4  A    between atoms: C_5  and  C_6 
REMARK    5  A    between atoms: C_6  and  C_7 
REMARK    6  A    between atoms: C_7  and  C_8 
REMARK    7  A    between atoms: C_8  and  C_9 
REMARK    8  A    between atoms: C_9  and  C_10 
REMARK    9  A    between atoms: C_10  and  C_11 
REMARK   10  A    between atoms: C_11  and  C_12 
REMARK   11  A    between atoms: C_12  and  O_13 
ROOT
HETATM    1  C   LIG     1      17.007  36.145  21.556  1.00  0.00     0.000 C 
ENDROOT
BRANCH   1   2
HETATM    2  C   LIG     1      16.819  35.629  20.120  1.00  0.00     0.000 C 
BRANCH   2   3
HETATM    3  C   LIG     1      15.521  34.823  19.947  1.00  0.00     0.000 C 
BRANCH   3   4
HETATM    4  C   LIG     1      15.665  33.359  20.398  1.00  0.00     0.000 C 
BRANCH   4   5
HETATM    5  C   LIG     1      15.300  32.308  19.330  1.00  0.00     0.000 C 
BRANCH   5   6
HETATM    6  C   LIG     1      15.085  32.867  17.912  1.00  0.00    -0.000 C 
BRANCH   6   7
HETATM    7  C   LIG     1      13.898  32.217  17.187  1.00  0.00    -0.005 C 
HETATM    8  C   LIG     1      14.376  31.280  16.082  1.00  0.00     0.005 C 
ENDBRANCH   6   7
ENDBRANCH   5   6
ENDBRANCH   4   5
ENDBRANCH   3   4
ENDBRANCH   2   3
ENDBRANCH   1   2
BRANCH   1   9
HETATM    9  C   LIG     1      17.564  37.575  21.601  1.00  0.00     0.001 C 
BRANCH   9  10
HETATM   10  C   LIG     1      16.905  38.386  22.722  1.00  0.00     0.010 C 
BRANCH  10  11
HETATM   11  C   LIG     1      16.477  37.479  23.880  1.00  0.00     0.110 C 
BRANCH  11  12
HETATM   12  C   LIG     1      17.331  37.717  25.091  1.00  0.00     0.139 C 
HETATM   13  O   LIG     1      18.116  36.818  25.491  1.00  0.00    -0.650 OA
BRANCH  12  14
HETATM   14  O   LIG     1      17.262  38.921  25.786  1.00  0.00    -0.776 OA
HETATM   15  H   LIG     1      18.073  39.520  25.889  1.00  0.00     0.167 HD
ENDBRANCH  12  14
ENDBRANCH  11  12
ENDBRANCH  10  11
ENDBRANCH   9  10
ENDBRANCH   1   9
TORSDOF 11
ENDMDL
MODEL 13
REMARK VINA RESULT:      -5.2      6.549      9.495
REMARK  11 active torsions:
REMARK  status: ('A' for Active; 'I' for Inactive)
REMARK    1  A    between atoms: C_2  and  C_3 
REMARK    2  A    between atoms: C_3  and  C_4 
REMARK    3  A    between atoms: C_4  and  C_5 
REMARK    4  A    between atoms: C_5  and  C_6 
REMARK    5  A    between atoms: C_6  and  C_7 
REMARK    6  A    between atoms: C_7  and  C_8 
REMARK    7  A    between atoms: C_8  and  C_9 
REMARK    8  A    between atoms: C_9  and  C_10 
REMARK    9  A    between atoms: C_10  and  C_11 
REMARK   10  A    between atoms: C_11  and  C_12 
REMARK   11  A    between atoms: C_12  and  O_13 
ROOT
HETATM    1  C   LIG     1      14.261  31.365  17.786  1.00  0.00     0.000 C 
ENDROOT
BRANCH   1   2
HETATM    2  C   LIG     1      13.187  31.664  16.728  1.00  0.00     0.000 C 
BRANCH   2   3
HETATM    3  C   LIG     1      13.173  30.628  15.591  1.00  0.00     0.000 C 
BRANCH   3   4
HETATM    4  C   LIG     1      14.586  30.204  15.155  1.00  0.00     0.000 C 
BRANCH   4   5
HETATM    5  C   LIG     1      15.249  31.122  14.108  1.00  0.00     0.000 C 
BRANCH   5   6
HETATM    6  C   LIG     1      16.159  32.221  14.686  1.00  0.00    -0.000 C 
BRANCH   6   7
HETATM    7  C   LIG     1      17.062  32.867  13.626  1.00  0.00    -0.005 C 
HETATM    8  C   LIG     1      17.862  34.024  14.217  1.00  0.00     0.005 C 
ENDBRANCH   6   7
ENDBRANCH   5   6
ENDBRANCH   4   5
ENDBRANCH   3   4
ENDBRANCH   2   3
ENDBRANCH   1   2
BRANCH   1   9
HETATM    9  C   LIG     1      15.004  32.627  18.247  1.00  0.00     0.001 C 
BRANCH   9  10
HETATM   10  C   LIG     1      15.291  32.578  19.752  1.00  0.00     0.010 C 
BRANCH  10  11
HETATM   11  C   LIG     1      15.817  33.926  20.257  1.00  0.00     0.110 C 
BRANCH  11  12
HETATM   12  C   LIG     1      14.863  34.538  21.240  1.00  0.00     0.139 C 
HETATM   13  O   LIG     1      15.020  35.733  21.604  1.00  0.00    -0.650 OA
BRANCH  12  14
HETATM   14  O   LIG     1      13.807  33.799  21.764  1.00  0.00    -0.776 OA
HETATM   15  H   LIG     1      13.129  33.346  21.163  1.00  0.00     0.167 HD
ENDBRANCH  12  14
ENDBRANCH  11  12
ENDBRANCH  10  11
ENDBRANCH   9  10
ENDBRANCH   1   9
TORSDOF 11
ENDMDL
MODEL 14
REMARK VINA RESULT:      -5.2      6.315      7.412
REMARK  11 active torsions:
REMARK  status: ('A' for Active; 'I' for Inactive)
REMARK    1  A    between atoms: C_2  and  C_3 
REMARK    2  A    between atoms: C_3  and  C_4 
REMARK    3  A    between atoms: C_4  and  C_5 
REMARK    4  A    between atoms: C_5  and  C_6 
REMARK    5  A    between atoms: C_6  and  C_7 
REMARK    6  A    between atoms: C_7  and  C_8 
REMARK    7  A    between atoms: C_8  and  C_9 
REMARK    8  A    between atoms: C_9  and  C_10 
REMARK    9  A    between atoms: C_10  and  C_11 
REMARK   10  A    between atoms: C_11  and  C_12 
REMARK   11  A    between atoms: C_12  and  O_13 
ROOT
HETATM    1  C   LIG     1      15.200  32.153  18.907  1.00  0.00     0.000 C 
ENDROOT
BRANCH   1   2
HETATM    2  C   LIG     1      15.291  32.952  20.216  1.00  0.00     0.000 C 
BRANCH   2   3
HETATM    3  C   LIG     1      15.665  34.425  19.986  1.00  0.00     0.000 C 
BRANCH   3   4
HETATM    4  C   LIG     1      15.537  35.278  21.260  1.00  0.00     0.000 C 
BRANCH   4   5
HETATM    5  C   LIG     1      16.741  35.203  22.219  1.00  0.00     0.000 C 
BRANCH   5   6
HETATM    6  C   LIG     1      16.954  36.449  23.098  1.00  0.00    -0.000 C 
BRANCH   6   7
HETATM    7  C   LIG     1      16.611  37.757  22.372  1.00  0.00    -0.005 C 
HETATM    8  C   LIG     1      17.869  38.569  22.079  1.00  0.00     0.005 C 
ENDBRANCH   6   7
ENDBRANCH   5   6
ENDBRANCH   4   5
ENDBRANCH   3   4
ENDBRANCH   2   3
ENDBRANCH   1   2
BRANCH   1   9
HETATM    9  C   LIG     1      15.020  33.055  17.677  1.00  0.00     0.001 C 
BRANCH   9  10
HETATM   10  C   LIG     1      14.931  32.222  16.393  1.00  0.00     0.010 C 
BRANCH  10  11
HETATM   11  C   LIG     1      13.753  31.243  16.452  1.00  0.00     0.110 C 
BRANCH  11  12
HETATM   12  C   LIG     1      13.686  30.410  15.205  1.00  0.00     0.139 C 
HETATM   13  O   LIG     1      14.647  30.423  14.391  1.00  0.00    -0.650 OA
BRANCH  12  14
HETATM   14  O   LIG     1      12.569  29.627  14.930  1.00  0.00    -0.776 OA
HETATM   15  H   LIG     1      12.274  29.443  13.978  1.00  0.00     0.167 HD
ENDBRANCH  12  14
ENDBRANCH  11  12
ENDBRANCH  10  11
ENDBRANCH   9  10
ENDBRANCH   1   9
TORSDOF 11
ENDMDL
MODEL 15
REMARK VINA RESULT:      -5.1      4.983      6.138
REMARK  11 active torsions:
REMARK  status: ('A' for Active; 'I' for Inactive)
REMARK    1  A    between atoms: C_2  and  C_3 
REMARK    2  A    between atoms: C_3  and  C_4 
REMARK    3  A    between atoms: C_4  and  C_5 
REMARK    4  A    between atoms: C_5  and  C_6 
REMARK    5  A    between atoms: C_6  and  C_7 
REMARK    6  A    between atoms: C_7  and  C_8 
REMARK    7  A    between atoms: C_8  and  C_9 
REMARK    8  A    between atoms: C_9  and  C_10 
REMARK    9  A    between atoms: C_10  and  C_11 
REMARK   10  A    between atoms: C_11  and  C_12 
REMARK   11  A    between atoms: C_12  and  O_13 
ROOT
HETATM    1  C   LIG     1      15.596  32.265  19.645  1.00  0.00     0.000 C 
ENDROOT
BRANCH   1   2
HETATM    2  C   LIG     1      15.119  33.394  20.572  1.00  0.00     0.000 C 
BRANCH   2   3
HETATM    3  C   LIG     1      15.796  34.740  20.261  1.00  0.00     0.000 C 
BRANCH   3   4
HETATM    4  C   LIG     1      15.655  35.756  21.408  1.00  0.00     0.000 C 
BRANCH   4   5
HETATM    5  C   LIG     1      16.879  35.862  22.339  1.00  0.00     0.000 C 
BRANCH   5   6
HETATM    6  C   LIG     1      16.902  37.104  23.248  1.00  0.00    -0.000 C 
BRANCH   6   7
HETATM    7  C   LIG     1      16.821  38.420  22.462  1.00  0.00    -0.005 C 
HETATM    8  C   LIG     1      18.071  38.630  21.612  1.00  0.00     0.005 C 
ENDBRANCH   6   7
ENDBRANCH   5   6
ENDBRANCH   4   5
ENDBRANCH   3   4
ENDBRANCH   2   3
ENDBRANCH   1   2
BRANCH   1   9
HETATM    9  C   LIG     1      14.646  32.033  18.461  1.00  0.00     0.001 C 
BRANCH   9  10
HETATM   10  C   LIG     1      15.069  32.866  17.246  1.00  0.00     0.010 C 
BRANCH  10  11
HETATM   11  C   LIG     1      15.128  32.004  15.980  1.00  0.00     0.110 C 
BRANCH  11  12
HETATM   12  C   LIG     1      16.312  32.374  15.135  1.00  0.00     0.139 C 
HETATM   13  O   LIG     1      16.523  31.768  14.052  1.00  0.00    -0.650 OA
BRANCH  12  14
HETATM   14  O   LIG     1      17.190  33.376  15.538  1.00  0.00    -0.776 OA
HETATM   15  H   LIG     1      17.098  34.327  15.199  1.00  0.00     0.167 HD
ENDBRANCH  12  14
ENDBRANCH  11  12
ENDBRANCH  10  11
ENDBRANCH   9  10
ENDBRANCH   1   9
TORSDOF 11
ENDMDL
MODEL 16
REMARK VINA RESULT:      -5.1      5.280      6.640
REMARK  11 active torsions:
REMARK  status: ('A' for Active; 'I' for Inactive)
REMARK    1  A    between atoms: C_2  and  C_3 
REMARK    2  A    between atoms: C_3  and  C_4 
REMARK    3  A    between atoms: C_4  and  C_5 
REMARK    4  A    between atoms: C_5  and  C_6 
REMARK    5  A    between atoms: C_6  and  C_7 
REMARK    6  A    between atoms: C_7  and  C_8 
REMARK    7  A    between atoms: C_8  and  C_9 
REMARK    8  A    between atoms: C_9  and  C_10 
REMARK    9  A    between atoms: C_10  and  C_11 
REMARK   10  A    between atoms: C_11  and  C_12 
REMARK   11  A    between atoms: C_12  and  O_13 
ROOT
HETATM    1  C   LIG     1      15.537  34.217  19.372  1.00  0.00     0.000 C 
ENDROOT
BRANCH   1   2
HETATM    2  C   LIG     1      16.227  35.272  20.250  1.00  0.00     0.000 C 
BRANCH   2   3
HETATM    3  C   LIG     1      15.615  35.363  21.658  1.00  0.00     0.000 C 
BRANCH   3   4
HETATM    4  C   LIG     1      15.646  36.791  22.230  1.00  0.00     0.000 C 
BRANCH   4   5
HETATM    5  C   LIG     1      16.990  37.214  22.856  1.00  0.00     0.000 C 
BRANCH   5   6
HETATM    6  C   LIG     1      17.635  38.465  22.234  1.00  0.00    -0.000 C 
BRANCH   6   7
HETATM    7  C   LIG     1      18.363  38.168  20.915  1.00  0.00    -0.005 C 
HETATM    8  C   LIG     1      19.043  39.420  20.369  1.00  0.00     0.005 C 
ENDBRANCH   6   7
ENDBRANCH   5   6
ENDBRANCH   4   5
ENDBRANCH   3   4
ENDBRANCH   2   3
ENDBRANCH   1   2
BRANCH   1   9
HETATM    9  C   LIG     1      15.287  32.899  20.121  1.00  0.00     0.001 C 
BRANCH   9  10
HETATM   10  C   LIG     1      14.752  31.821  19.171  1.00  0.00     0.010 C 
BRANCH  10  11
HETATM   11  C   LIG     1      14.751  32.316  17.720  1.00  0.00     0.110 C 
BRANCH  11  12
HETATM   12  C   LIG     1      13.780  31.530  16.888  1.00  0.00     0.139 C 
HETATM   13  O   LIG     1      12.544  31.639  17.098  1.00  0.00    -0.650 OA
BRANCH  12  14
HETATM   14  O   LIG     1      14.229  30.674  15.887  1.00  0.00    -0.776 OA
HETATM   15  H   LIG     1      13.692  30.522  15.041  1.00  0.00     0.167 HD
ENDBRANCH  12  14
ENDBRANCH  11  12
ENDBRANCH  10  11
ENDBRANCH   9  10
ENDBRANCH   1   9
TORSDOF 11
ENDMDL
MODEL 17
REMARK VINA RESULT:      -5.0      5.535      6.327
REMARK  11 active torsions:
REMARK  status: ('A' for Active; 'I' for Inactive)
REMARK    1  A    between atoms: C_2  and  C_3 
REMARK    2  A    between atoms: C_3  and  C_4 
REMARK    3  A    between atoms: C_4  and  C_5 
REMARK    4  A    between atoms: C_5  and  C_6 
REMARK    5  A    between atoms: C_6  and  C_7 
REMARK    6  A    between atoms: C_7  and  C_8 
REMARK    7  A    between atoms: C_8  and  C_9 
REMARK    8  A    between atoms: C_9  and  C_10 
REMARK    9  A    between atoms: C_10  and  C_11 
REMARK   10  A    between atoms: C_11  and  C_12 
REMARK   11  A    between atoms: C_12  and  O_13 
ROOT
HETATM    1  C   LIG     1      15.861  32.772  20.146  1.00  0.00     0.000 C 
ENDROOT
BRANCH   1   2
HETATM    2  C   LIG     1      15.352  34.059  20.814  1.00  0.00     0.000 C 
BRANCH   2   3
HETATM    3  C   LIG     1      16.351  35.222  20.695  1.00  0.00     0.000 C 
BRANCH   3   4
HETATM    4  C   LIG     1      16.135  36.304  21.767  1.00  0.00     0.000 C 
BRANCH   4   5
HETATM    5  C   LIG     1      16.979  36.132  23.046  1.00  0.00     0.000 C 
BRANCH   5   6
HETATM    6  C   LIG     1      16.698  37.161  24.156  1.00  0.00    -0.000 C 
BRANCH   6   7
HETATM    7  C   LIG     1      17.976  37.662  24.842  1.00  0.00    -0.005 C 
HETATM    8  C   LIG     1      18.215  36.931  26.160  1.00  0.00     0.005 C 
ENDBRANCH   6   7
ENDBRANCH   5   6
ENDBRANCH   4   5
ENDBRANCH   3   4
ENDBRANCH   2   3
ENDBRANCH   1   2
BRANCH   1   9
HETATM    9  C   LIG     1      14.877  32.218  19.105  1.00  0.00     0.001 C 
BRANCH   9  10
HETATM   10  C   LIG     1      14.984  32.987  17.784  1.00  0.00     0.010 C 
BRANCH  10  11
HETATM   11  C   LIG     1      14.727  32.065  16.587  1.00  0.00     0.110 C 
BRANCH  11  12
HETATM   12  C   LIG     1      13.337  31.502  16.634  1.00  0.00     0.139 C 
HETATM   13  O   LIG     1      13.120  30.332  16.223  1.00  0.00    -0.650 OA
BRANCH  12  14
HETATM   14  O   LIG     1      12.276  32.262  17.119  1.00  0.00    -0.776 OA
HETATM   15  H   LIG     1      11.962  32.179  18.079  1.00  0.00     0.167 HD
ENDBRANCH  12  14
ENDBRANCH  11  12
ENDBRANCH  10  11
ENDBRANCH   9  10
ENDBRANCH   1   9
TORSDOF 11
ENDMDL
MODEL 18
REMARK VINA RESULT:      -4.9      5.730      8.658
REMARK  11 active torsions:
REMARK  status: ('A' for Active; 'I' for Inactive)
REMARK    1  A    between atoms: C_2  and  C_3 
REMARK    2  A    between atoms: C_3  and  C_4 
REMARK    3  A    between atoms: C_4  and  C_5 
REMARK    4  A    between atoms: C_5  and  C_6 
REMARK    5  A    between atoms: C_6  and  C_7 
REMARK    6  A    between atoms: C_7  and  C_8 
REMARK    7  A    between atoms: C_8  and  C_9 
REMARK    8  A    between atoms: C_9  and  C_10 
REMARK    9  A    between atoms: C_10  and  C_11 
REMARK   10  A    between atoms: C_11  and  C_12 
REMARK   11  A    between atoms: C_12  and  O_13 
ROOT
HETATM    1  C   LIG     1      15.203  32.106  19.204  1.00  0.00     0.000 C 
ENDROOT
BRANCH   1   2
HETATM    2  C   LIG     1      15.313  32.818  17.847  1.00  0.00     0.000 C 
BRANCH   2   3
HETATM    3  C   LIG     1      13.974  32.865  17.093  1.00  0.00     0.000 C 
BRANCH   3   4
HETATM    4  C   LIG     1      13.461  31.468  16.702  1.00  0.00     0.000 C 
BRANCH   4   5
HETATM    5  C   LIG     1      14.481  30.584  15.956  1.00  0.00     0.000 C 
BRANCH   5   6
HETATM    6  C   LIG     1      14.110  30.248  14.500  1.00  0.00    -0.000 C 
BRANCH   6   7
HETATM    7  C   LIG     1      15.215  30.621  13.502  1.00  0.00    -0.005 C 
HETATM    8  C   LIG     1      15.947  31.885  13.940  1.00  0.00     0.005 C 
ENDBRANCH   6   7
ENDBRANCH   5   6
ENDBRANCH   4   5
ENDBRANCH   3   4
ENDBRANCH   2   3
ENDBRANCH   1   2
BRANCH   1   9
HETATM    9  C   LIG     1      15.058  33.087  20.376  1.00  0.00     0.001 C 
BRANCH   9  10
HETATM   10  C   LIG     1      15.732  34.427  20.057  1.00  0.00     0.010 C 
BRANCH  10  11
HETATM   11  C   LIG     1      16.567  34.921  21.244  1.00  0.00     0.110 C 
BRANCH  11  12
HETATM   12  C   LIG     1      17.318  36.169  20.886  1.00  0.00     0.139 C 
HETATM   13  O   LIG     1      17.314  37.151  21.675  1.00  0.00    -0.650 OA
BRANCH  12  14
HETATM   14  O   LIG     1      18.017  36.262  19.686  1.00  0.00    -0.776 OA
HETATM   15  H   LIG     1      18.074  37.135  19.174  1.00  0.00     0.167 HD
ENDBRANCH  12  14
ENDBRANCH  11  12
ENDBRANCH  10  11
ENDBRANCH   9  10
ENDBRANCH   1   9
TORSDOF 11
ENDMDL
MODEL 19
REMARK VINA RESULT:      -4.7     10.734     12.387
REMARK  11 active torsions:
REMARK  status: ('A' for Active; 'I' for Inactive)
REMARK    1  A    between atoms: C_2  and  C_3 
REMARK    2  A    between atoms: C_3  and  C_4 
REMARK    3  A    between atoms: C_4  and  C_5 
REMARK    4  A    between atoms: C_5  and  C_6 
REMARK    5  A    between atoms: C_6  and  C_7 
REMARK    6  A    between atoms: C_7  and  C_8 
REMARK    7  A    between atoms: C_8  and  C_9 
REMARK    8  A    between atoms: C_9  and  C_10 
REMARK    9  A    between atoms: C_10  and  C_11 
REMARK   10  A    between atoms: C_11  and  C_12 
REMARK   11  A    between atoms: C_12  and  O_13 
ROOT
HETATM    1  C   LIG     1      15.057  29.131  13.764  1.00  0.00     0.000 C 
ENDROOT
BRANCH   1   2
HETATM    2  C   LIG     1      15.701  30.480  14.120  1.00  0.00     0.000 C 
BRANCH   2   3
HETATM    3  C   LIG     1      14.950  31.215  15.243  1.00  0.00     0.000 C 
BRANCH   3   4
HETATM    4  C   LIG     1      15.665  32.500  15.695  1.00  0.00     0.000 C 
BRANCH   4   5
HETATM    5  C   LIG     1      15.003  33.234  16.879  1.00  0.00     0.000 C 
BRANCH   5   6
HETATM    6  C   LIG     1      14.444  32.318  17.983  1.00  0.00    -0.000 C 
BRANCH   6   7
HETATM    7  C   LIG     1      15.362  32.236  19.211  1.00  0.00    -0.005 C 
HETATM    8  C   LIG     1      14.880  31.166  20.186  1.00  0.00     0.005 C 
ENDBRANCH   6   7
ENDBRANCH   5   6
ENDBRANCH   4   5
ENDBRANCH   3   4
ENDBRANCH   2   3
ENDBRANCH   1   2
BRANCH   1   9
HETATM    9  C   LIG     1      13.569  29.071  14.135  1.00  0.00     0.001 C 
BRANCH   9  10
HETATM   10  C   LIG     1      13.001  27.666  13.902  1.00  0.00     0.010 C 
BRANCH  10  11
HETATM   11  C   LIG     1      11.800  27.709  12.951  1.00  0.00     0.110 C 
BRANCH  11  12
HETATM   12  C   LIG     1      11.458  26.333  12.459  1.00  0.00     0.139 C 
HETATM   13  O   LIG     1      11.857  25.955  11.326  1.00  0.00    -0.650 OA
BRANCH  12  14
HETATM   14  O   LIG     1      10.695  25.466  13.237  1.00  0.00    -0.776 OA
HETATM   15  H   LIG     1      10.850  25.376  14.234  1.00  0.00     0.167 HD
ENDBRANCH  12  14
ENDBRANCH  11  12
ENDBRANCH  10  11
ENDBRANCH   9  10
ENDBRANCH   1   9
TORSDOF 11
ENDMDL
MODEL 20
REMARK VINA RESULT:      -4.2     11.096     13.463
REMARK  11 active torsions:
REMARK  status: ('A' for Active; 'I' for Inactive)
REMARK    1  A    between atoms: C_2  and  C_3 
REMARK    2  A    between atoms: C_3  and  C_4 
REMARK    3  A    between atoms: C_4  and  C_5 
REMARK    4  A    between atoms: C_5  and  C_6 
REMARK    5  A    between atoms: C_6  and  C_7 
REMARK    6  A    between atoms: C_7  and  C_8 
REMARK    7  A    between atoms: C_8  and  C_9 
REMARK    8  A    between atoms: C_9  and  C_10 
REMARK    9  A    between atoms: C_10  and  C_11 
REMARK   10  A    between atoms: C_11  and  C_12 
REMARK   11  A    between atoms: C_12  and  O_13 
ROOT
HETATM    1  C   LIG     1      14.686  29.587  14.380  1.00  0.00     0.000 C 
ENDROOT
BRANCH   1   2
HETATM    2  C   LIG     1      14.928  30.965  15.014  1.00  0.00     0.000 C 
BRANCH   2   3
HETATM    3  C   LIG     1      15.954  31.803  14.234  1.00  0.00     0.000 C 
BRANCH   3   4
HETATM    4  C   LIG     1      16.663  32.847  15.114  1.00  0.00     0.000 C 
BRANCH   4   5
HETATM    5  C   LIG     1      18.002  33.369  14.557  1.00  0.00     0.000 C 
BRANCH   5   6
HETATM    6  C   LIG     1      17.915  34.051  13.180  1.00  0.00    -0.000 C 
BRANCH   6   7
HETATM    7  C   LIG     1      18.770  33.353  12.113  1.00  0.00    -0.005 C 
HETATM    8  C   LIG     1      19.399  34.367  11.163  1.00  0.00     0.005 C 
ENDBRANCH   6   7
ENDBRANCH   5   6
ENDBRANCH   4   5
ENDBRANCH   3   4
ENDBRANCH   2   3
ENDBRANCH   1   2
BRANCH   1   9
HETATM    9  C   LIG     1      13.196  29.223  14.307  1.00  0.00     0.001 C 
BRANCH   9  10
HETATM   10  C   LIG     1      13.005  27.779  13.828  1.00  0.00     0.010 C 
BRANCH  10  11
HETATM   11  C   LIG     1      11.708  27.632  13.025  1.00  0.00     0.110 C 
BRANCH  11  12
HETATM   12  C   LIG     1      11.524  26.216  12.562  1.00  0.00     0.139 C 
HETATM   13  O   LIG     1      12.271  25.749  11.663  1.00  0.00    -0.650 OA
BRANCH  12  14
HETATM   14  O   LIG     1      10.529  25.411  13.109  1.00  0.00    -0.776 OA
HETATM   15  H   LIG     1       9.886  24.892  12.522  1.00  0.00     0.167 HD
ENDBRANCH  12  14
ENDBRANCH  11  12
ENDBRANCH  10  11
ENDBRANCH   9  10
ENDBRANCH   1   9
TORSDOF 11
ENDMDL
