MODEL 1
REMARK VINA RESULT:      -5.9      0.000      0.000
REMARK  8 active torsions:
REMARK  status: ('A' for Active; 'I' for Inactive)
REMARK    1  A    between atoms: C_2  and  C_3 
REMARK    2  A    between atoms: C_3  and  C_4 
REMARK    3  A    between atoms: C_4  and  C_5 
REMARK    4  A    between atoms: C_5  and  C_6 
REMARK    5  A    between atoms: C_6  and  C_7 
REMARK    6  A    between atoms: C_7  and  C_8 
REMARK    7  A    between atoms: C_8  and  C_9 
REMARK    8  A    between atoms: C_9  and  O_10 
ROOT
HETATM    1  C   LIG     1      17.395  38.849  22.668  1.00  0.00     0.000 C 
ENDROOT
BRANCH   1   2
HETATM    2  C   LIG     1      16.468  37.838  23.367  1.00  0.00     0.000 C 
BRANCH   2   3
HETATM    3  C   LIG     1      17.189  36.809  24.256  1.00  0.00     0.000 C 
BRANCH   3   4
HETATM    4  C   LIG     1      17.916  37.454  25.449  1.00  0.00    -0.000 C 
BRANCH   4   5
HETATM    5  C   LIG     1      18.361  36.421  26.495  1.00  0.00    -0.005 C 
HETATM    6  C   LIG     1      17.961  34.994  26.122  1.00  0.00     0.005 C 
ENDBRANCH   4   5
ENDBRANCH   3   4
ENDBRANCH   2   3
ENDBRANCH   1   2
BRANCH   1   7
HETATM    7  C   LIG     1      18.032  38.289  21.385  1.00  0.00     0.002 C 
BRANCH   7   8
HETATM    8  C   LIG     1      18.965  39.299  20.697  1.00  0.00     0.026 C 
BRANCH   8   9
HETATM    9  C   LIG     1      20.031  38.649  19.804  1.00  0.00     0.164 C 
BRANCH   9  10
HETATM   10  O   LIG     1      20.625  39.600  18.962  1.00  0.00    -0.401 OA
HETATM   11  H   LIG     1      20.709  39.180  18.066  1.00  0.00     0.209 HD
ENDBRANCH   9  10
ENDBRANCH   8   9
ENDBRANCH   7   8
ENDBRANCH   1   7
TORSDOF 8
ENDMDL
MODEL 2
REMARK VINA RESULT:      -5.8      3.475      3.984
REMARK  8 active torsions:
REMARK  status: ('A' for Active; 'I' for Inactive)
REMARK    1  A    between atoms: C_2  and  C_3 
REMARK    2  A    between atoms: C_3  and  C_4 
REMARK    3  A    between atoms: C_4  and  C_5 
REMARK    4  A    between atoms: C_5  and  C_6 
REMARK    5  A    between atoms: C_6  and  C_7 
REMARK    6  A    between atoms: C_7  and  C_8 
REMARK    7  A    between atoms: C_8  and  C_9 
REMARK    8  A    between atoms: C_9  and  O_10 
ROOT
HETATM    1  C   LIG     1      16.337  37.304  23.012  1.00  0.00     0.000 C 
ENDROOT
BRANCH   1   2
HETATM    2  C   LIG     1      17.441  38.052  23.781  1.00  0.00     0.000 C 
BRANCH   2   3
HETATM    3  C   LIG     1      17.407  37.861  25.308  1.00  0.00     0.000 C 
BRANCH   3   4
HETATM    4  C   LIG     1      18.618  37.074  25.838  1.00  0.00    -0.000 C 
BRANCH   4   5
HETATM    5  C   LIG     1      18.207  35.796  26.587  1.00  0.00    -0.005 C 
HETATM    6  C   LIG     1      17.382  34.845  25.720  1.00  0.00     0.005 C 
ENDBRANCH   4   5
ENDBRANCH   3   4
ENDBRANCH   2   3
ENDBRANCH   1   2
BRANCH   1   7
HETATM    7  C   LIG     1      16.894  36.380  21.915  1.00  0.00     0.002 C 
BRANCH   7   8
HETATM    8  C   LIG     1      16.417  34.926  22.067  1.00  0.00     0.026 C 
BRANCH   8   9
HETATM    9  C   LIG     1      15.414  34.488  20.992  1.00  0.00     0.164 C 
BRANCH   9  10
HETATM   10  O   LIG     1      14.147  34.264  21.552  1.00  0.00    -0.401 OA
HETATM   11  H   LIG     1      13.536  34.944  21.164  1.00  0.00     0.209 HD
ENDBRANCH   9  10
ENDBRANCH   8   9
ENDBRANCH   7   8
ENDBRANCH   1   7
TORSDOF 8
ENDMDL
MODEL 3
REMARK VINA RESULT:      -5.2      3.606      5.664
REMARK  8 active torsions:
REMARK  status: ('A' for Active; 'I' for Inactive)
REMARK    1  A    between atoms: C_2  and  C_3 
REMARK    2  A    between atoms: C_3  and  C_4 
REMARK    3  A    between atoms: C_4  and  C_5 
REMARK    4  A    between atoms: C_5  and  C_6 
REMARK    5  A    between atoms: C_6  and  C_7 
REMARK    6  A    between atoms: C_7  and  C_8 
REMARK    7  A    between atoms: C_8  and  C_9 
REMARK    8  A    between atoms: C_9  and  O_10 
ROOT
HETATM    1  C   LIG     1      16.935  37.046  22.823  1.00  0.00     0.000 C 
ENDROOT
BRANCH   1   2
HETATM    2  C   LIG     1      17.046  38.515  22.376  1.00  0.00     0.000 C 
BRANCH   2   3
HETATM    3  C   LIG     1      18.480  38.995  22.086  1.00  0.00     0.000 C 
BRANCH   3   4
HETATM    4  C   LIG     1      18.638  39.584  20.673  1.00  0.00    -0.000 C 
BRANCH   4   5
HETATM    5  C   LIG     1      19.104  38.539  19.648  1.00  0.00    -0.005 C 
HETATM    6  C   LIG     1      20.622  38.518  19.476  1.00  0.00     0.005 C 
ENDBRANCH   4   5
ENDBRANCH   3   4
ENDBRANCH   2   3
ENDBRANCH   1   2
BRANCH   1   7
HETATM    7  C   LIG     1      16.912  36.061  21.641  1.00  0.00     0.002 C 
BRANCH   7   8
HETATM    8  C   LIG     1      15.484  35.705  21.195  1.00  0.00     0.026 C 
BRANCH   8   9
HETATM    9  C   LIG     1      15.206  34.196  21.159  1.00  0.00     0.164 C 
BRANCH   9  10
HETATM   10  O   LIG     1      13.922  33.913  21.648  1.00  0.00    -0.401 OA
HETATM   11  H   LIG     1      13.555  34.765  22.004  1.00  0.00     0.209 HD
ENDBRANCH   9  10
ENDBRANCH   8   9
ENDBRANCH   7   8
ENDBRANCH   1   7
TORSDOF 8
ENDMDL
MODEL 4
REMARK VINA RESULT:      -5.1      2.927      5.616
REMARK  8 active torsions:
REMARK  status: ('A' for Active; 'I' for Inactive)
REMARK    1  A    between atoms: C_2  and  C_3 
REMARK    2  A    between atoms: C_3  and  C_4 
REMARK    3  A    between atoms: C_4  and  C_5 
REMARK    4  A    between atoms: C_5  and  C_6 
REMARK    5  A    between atoms: C_6  and  C_7 
REMARK    6  A    between atoms: C_7  and  C_8 
REMARK    7  A    between atoms: C_8  and  C_9 
REMARK    8  A    between atoms: C_9  and  O_10 
ROOT
HETATM    1  C   LIG     1      17.124  37.499  22.674  1.00  0.00     0.000 C 
ENDROOT
BRANCH   1   2
HETATM    2  C   LIG     1      17.874  38.810  22.376  1.00  0.00     0.000 C 
BRANCH   2   3
HETATM    3  C   LIG     1      18.138  39.078  20.883  1.00  0.00     0.000 C 
BRANCH   3   4
HETATM    4  C   LIG     1      19.637  39.153  20.546  1.00  0.00    -0.000 C 
BRANCH   4   5
HETATM    5  C   LIG     1      20.054  38.123  19.485  1.00  0.00    -0.005 C 
HETATM    6  C   LIG     1      19.157  36.885  19.482  1.00  0.00     0.005 C 
ENDBRANCH   4   5
ENDBRANCH   3   4
ENDBRANCH   2   3
ENDBRANCH   1   2
BRANCH   1   7
HETATM    7  C   LIG     1      16.613  37.419  24.123  1.00  0.00     0.002 C 
BRANCH   7   8
HETATM    8  C   LIG     1      17.665  37.873  25.148  1.00  0.00     0.026 C 
BRANCH   8   9
HETATM    9  C   LIG     1      18.095  36.769  26.124  1.00  0.00     0.164 C 
BRANCH   9  10
HETATM   10  O   LIG     1      17.222  35.674  26.055  1.00  0.00    -0.401 OA
HETATM   11  H   LIG     1      17.574  34.984  26.677  1.00  0.00     0.209 HD
ENDBRANCH   9  10
ENDBRANCH   8   9
ENDBRANCH   7   8
ENDBRANCH   1   7
TORSDOF 8
ENDMDL
MODEL 5
REMARK VINA RESULT:      -5.0      3.206      4.566
REMARK  8 active torsions:
REMARK  status: ('A' for Active; 'I' for Inactive)
REMARK    1  A    between atoms: C_2  and  C_3 
REMARK    2  A    between atoms: C_3  and  C_4 
REMARK    3  A    between atoms: C_4  and  C_5 
REMARK    4  A    between atoms: C_5  and  C_6 
REMARK    5  A    between atoms: C_6  and  C_7 
REMARK    6  A    between atoms: C_7  and  C_8 
REMARK    7  A    between atoms: C_8  and  C_9 
REMARK    8  A    between atoms: C_9  and  O_10 
ROOT
HETATM    1  C   LIG     1      18.485  36.610  20.363  1.00  0.00     0.000 C 
ENDROOT
BRANCH   1   2
HETATM    2  C   LIG     1      18.563  38.129  20.127  1.00  0.00     0.000 C 
BRANCH   2   3
HETATM    3  C   LIG     1      18.762  38.971  21.400  1.00  0.00     0.000 C 
BRANCH   3   4
HETATM    4  C   LIG     1      17.551  38.918  22.347  1.00  0.00    -0.000 C 
BRANCH   4   5
HETATM    5  C   LIG     1      17.912  38.358  23.732  1.00  0.00    -0.005 C 
HETATM    6  C   LIG     1      16.762  37.581  24.372  1.00  0.00     0.005 C 
ENDBRANCH   4   5
ENDBRANCH   3   4
ENDBRANCH   2   3
ENDBRANCH   1   2
BRANCH   1   7
HETATM    7  C   LIG     1      17.048  36.066  20.285  1.00  0.00     0.002 C 
BRANCH   7   8
HETATM    8  C   LIG     1      16.681  35.188  21.494  1.00  0.00     0.026 C 
BRANCH   8   9
HETATM    9  C   LIG     1      15.254  34.627  21.440  1.00  0.00     0.164 C 
BRANCH   9  10
HETATM   10  O   LIG     1      14.321  35.654  21.238  1.00  0.00    -0.401 OA
HETATM   11  H   LIG     1      14.838  36.483  21.058  1.00  0.00     0.209 HD
ENDBRANCH   9  10
ENDBRANCH   8   9
ENDBRANCH   7   8
ENDBRANCH   1   7
TORSDOF 8
ENDMDL
MODEL 6
REMARK VINA RESULT:      -4.9      5.153      5.680
REMARK  8 active torsions:
REMARK  status: ('A' for Active; 'I' for Inactive)
REMARK    1  A    between atoms: C_2  and  C_3 
REMARK    2  A    between atoms: C_3  and  C_4 
REMARK    3  A    between atoms: C_4  and  C_5 
REMARK    4  A    between atoms: C_5  and  C_6 
REMARK    5  A    between atoms: C_6  and  C_7 
REMARK    6  A    between atoms: C_7  and  C_8 
REMARK    7  A    between atoms: C_8  and  C_9 
REMARK    8  A    between atoms: C_9  and  O_10 
ROOT
HETATM    1  C   LIG     1      15.967  35.171  20.371  1.00  0.00     0.000 C 
ENDROOT
BRANCH   1   2
HETATM    2  C   LIG     1      16.829  35.788  21.487  1.00  0.00     0.000 C 
BRANCH   2   3
HETATM    3  C   LIG     1      16.964  34.922  22.752  1.00  0.00     0.000 C 
BRANCH   3   4
HETATM    4  C   LIG     1      17.194  35.756  24.025  1.00  0.00    -0.000 C 
BRANCH   4   5
HETATM    5  C   LIG     1      17.349  34.883  25.280  1.00  0.00    -0.005 C 
HETATM    6  C   LIG     1      18.288  35.501  26.316  1.00  0.00     0.005 C 
ENDBRANCH   4   5
ENDBRANCH   3   4
ENDBRANCH   2   3
ENDBRANCH   1   2
BRANCH   1   7
HETATM    7  C   LIG     1      15.400  33.791  20.748  1.00  0.00     0.002 C 
BRANCH   7   8
HETATM    8  C   LIG     1      15.656  32.729  19.666  1.00  0.00     0.026 C 
BRANCH   8   9
HETATM    9  C   LIG     1      14.630  31.587  19.665  1.00  0.00     0.164 C 
BRANCH   9  10
HETATM   10  O   LIG     1      15.040  30.548  20.513  1.00  0.00    -0.401 OA
HETATM   11  H   LIG     1      14.218  30.070  20.801  1.00  0.00     0.209 HD
ENDBRANCH   9  10
ENDBRANCH   8   9
ENDBRANCH   7   8
ENDBRANCH   1   7
TORSDOF 8
ENDMDL
MODEL 7
REMARK VINA RESULT:      -4.9      4.572      6.245
REMARK  8 active torsions:
REMARK  status: ('A' for Active; 'I' for Inactive)
REMARK    1  A    between atoms: C_2  and  C_3 
REMARK    2  A    between atoms: C_3  and  C_4 
REMARK    3  A    between atoms: C_4  and  C_5 
REMARK    4  A    between atoms: C_5  and  C_6 
REMARK    5  A    between atoms: C_6  and  C_7 
REMARK    6  A    between atoms: C_7  and  C_8 
REMARK    7  A    between atoms: C_8  and  C_9 
REMARK    8  A    between atoms: C_9  and  O_10 
ROOT
HETATM    1  C   LIG     1      16.679  34.947  21.837  1.00  0.00     0.000 C 
ENDROOT
BRANCH   1   2
HETATM    2  C   LIG     1      16.718  36.482  21.949  1.00  0.00     0.000 C 
BRANCH   2   3
HETATM    3  C   LIG     1      17.789  37.165  21.079  1.00  0.00     0.000 C 
BRANCH   3   4
HETATM    4  C   LIG     1      17.948  38.663  21.393  1.00  0.00    -0.000 C 
BRANCH   4   5
HETATM    5  C   LIG     1      19.093  39.311  20.599  1.00  0.00    -0.005 C 
HETATM    6  C   LIG     1      19.426  38.551  19.316  1.00  0.00     0.005 C 
ENDBRANCH   4   5
ENDBRANCH   3   4
ENDBRANCH   2   3
ENDBRANCH   1   2
BRANCH   1   7
HETATM    7  C   LIG     1      15.360  34.425  21.240  1.00  0.00     0.002 C 
BRANCH   7   8
HETATM    8  C   LIG     1      15.578  33.567  19.982  1.00  0.00     0.026 C 
BRANCH   8   9
HETATM    9  C   LIG     1      15.016  32.144  20.099  1.00  0.00     0.164 C 
BRANCH   9  10
HETATM   10  O   LIG     1      14.132  31.869  19.045  1.00  0.00    -0.401 OA
HETATM   11  H   LIG     1      14.235  32.603  18.383  1.00  0.00     0.209 HD
ENDBRANCH   9  10
ENDBRANCH   8   9
ENDBRANCH   7   8
ENDBRANCH   1   7
TORSDOF 8
ENDMDL
MODEL 8
REMARK VINA RESULT:      -4.8      8.910     10.307
REMARK  8 active torsions:
REMARK  status: ('A' for Active; 'I' for Inactive)
REMARK    1  A    between atoms: C_2  and  C_3 
REMARK    2  A    between atoms: C_3  and  C_4 
REMARK    3  A    between atoms: C_4  and  C_5 
REMARK    4  A    between atoms: C_5  and  C_6 
REMARK    5  A    between atoms: C_6  and  C_7 
REMARK    6  A    between atoms: C_7  and  C_8 
REMARK    7  A    between atoms: C_8  and  C_9 
REMARK    8  A    between atoms: C_9  and  O_10 
ROOT
HETATM    1  C   LIG     1      14.232  31.517  18.062  1.00  0.00     0.000 C 
ENDROOT
BRANCH   1   2
HETATM    2  C   LIG     1      13.497  31.854  16.752  1.00  0.00     0.000 C 
BRANCH   2   3
HETATM    3  C   LIG     1      13.082  30.633  15.911  1.00  0.00     0.000 C 
BRANCH   3   4
HETATM    4  C   LIG     1      14.173  30.189  14.922  1.00  0.00    -0.000 C 
BRANCH   4   5
HETATM    5  C   LIG     1      15.307  31.218  14.796  1.00  0.00    -0.005 C 
HETATM    6  C   LIG     1      15.740  31.443  13.348  1.00  0.00     0.005 C 
ENDBRANCH   4   5
ENDBRANCH   3   4
ENDBRANCH   2   3
ENDBRANCH   1   2
BRANCH   1   7
HETATM    7  C   LIG     1      15.133  32.663  18.553  1.00  0.00     0.002 C 
BRANCH   7   8
HETATM    8  C   LIG     1      15.426  32.581  20.061  1.00  0.00     0.026 C 
BRANCH   8   9
HETATM    9  C   LIG     1      15.290  33.924  20.791  1.00  0.00     0.164 C 
BRANCH   9  10
HETATM   10  O   LIG     1      14.101  33.971  21.532  1.00  0.00    -0.401 OA
HETATM   11  H   LIG     1      13.414  34.388  20.949  1.00  0.00     0.209 HD
ENDBRANCH   9  10
ENDBRANCH   8   9
ENDBRANCH   7   8
ENDBRANCH   1   7
TORSDOF 8
ENDMDL
MODEL 9
REMARK VINA RESULT:      -4.8      9.977     11.503
REMARK  8 active torsions:
REMARK  status: ('A' for Active; 'I' for Inactive)
REMARK    1  A    between atoms: C_2  and  C_3 
REMARK    2  A    between atoms: C_3  and  C_4 
REMARK    3  A    between atoms: C_4  and  C_5 
REMARK    4  A    between atoms: C_5  and  C_6 
REMARK    5  A    between atoms: C_6  and  C_7 
REMARK    6  A    between atoms: C_7  and  C_8 
REMARK    7  A    between atoms: C_8  and  C_9 
REMARK    8  A    between atoms: C_9  and  O_10 
ROOT
HETATM    1  C   LIG     1      12.924  30.595  15.496  1.00  0.00     0.000 C 
ENDROOT
BRANCH   1   2
HETATM    2  C   LIG     1      13.664  29.692  14.491  1.00  0.00     0.000 C 
BRANCH   2   3
HETATM    3  C   LIG     1      15.180  29.941  14.395  1.00  0.00     0.000 C 
BRANCH   3   4
HETATM    4  C   LIG     1      15.532  31.148  13.508  1.00  0.00    -0.000 C 
BRANCH   4   5
HETATM    5  C   LIG     1      16.252  32.260  14.286  1.00  0.00    -0.005 C 
HETATM    6  C   LIG     1      17.190  33.084  13.406  1.00  0.00     0.005 C 
ENDBRANCH   4   5
ENDBRANCH   3   4
ENDBRANCH   2   3
ENDBRANCH   1   2
BRANCH   1   7
HETATM    7  C   LIG     1      13.671  30.738  16.833  1.00  0.00     0.002 C 
BRANCH   7   8
HETATM    8  C   LIG     1      14.034  32.197  17.155  1.00  0.00     0.026 C 
BRANCH   8   9
HETATM    9  C   LIG     1      14.832  32.363  18.456  1.00  0.00     0.164 C 
BRANCH   9  10
HETATM   10  O   LIG     1      14.299  31.559  19.474  1.00  0.00    -0.401 OA
HETATM   11  H   LIG     1      13.528  32.053  19.858  1.00  0.00     0.209 HD
ENDBRANCH   9  10
ENDBRANCH   8   9
ENDBRANCH   7   8
ENDBRANCH   1   7
TORSDOF 8
ENDMDL
MODEL 10
REMARK VINA RESULT:      -4.7      5.342      6.174
REMARK  8 active torsions:
REMARK  status: ('A' for Active; 'I' for Inactive)
REMARK    1  A    between atoms: C_2  and  C_3 
REMARK    2  A    between atoms: C_3  and  C_4 
REMARK    3  A    between atoms: C_4  and  C_5 
REMARK    4  A    between atoms: C_5  and  C_6 
REMARK    5  A    between atoms: C_6  and  C_7 
REMARK    6  A    between atoms: C_7  and  C_8 
REMARK    7  A    between atoms: C_8  and  C_9 
REMARK    8  A    between atoms: C_9  and  O_10 
ROOT
HETATM    1  C   LIG     1      15.771  34.440  20.266  1.00  0.00     0.000 C 
ENDROOT
BRANCH   1   2
HETATM    2  C   LIG     1      15.659  35.380  21.479  1.00  0.00     0.000 C 
BRANCH   2   3
HETATM    3  C   LIG     1      16.828  35.289  22.477  1.00  0.00     0.000 C 
BRANCH   3   4
HETATM    4  C   LIG     1      16.992  36.564  23.323  1.00  0.00    -0.000 C 
BRANCH   4   5
HETATM    5  C   LIG     1      16.113  37.720  22.822  1.00  0.00    -0.005 C 
HETATM    6  C   LIG     1      16.915  38.987  22.528  1.00  0.00     0.005 C 
ENDBRANCH   4   5
ENDBRANCH   3   4
ENDBRANCH   2   3
ENDBRANCH   1   2
BRANCH   1   7
HETATM    7  C   LIG     1      15.132  33.063  20.516  1.00  0.00     0.002 C 
BRANCH   7   8
HETATM    8  C   LIG     1      15.439  32.055  19.396  1.00  0.00     0.026 C 
BRANCH   8   9
HETATM    9  C   LIG     1      14.854  32.447  18.032  1.00  0.00     0.164 C 
BRANCH   9  10
HETATM   10  O   LIG     1      13.546  31.960  17.892  1.00  0.00    -0.401 OA
HETATM   11  H   LIG     1      13.173  31.867  18.808  1.00  0.00     0.209 HD
ENDBRANCH   9  10
ENDBRANCH   8   9
ENDBRANCH   7   8
ENDBRANCH   1   7
TORSDOF 8
ENDMDL
MODEL 11
REMARK VINA RESULT:      -4.6     10.404     11.033
REMARK  8 active torsions:
REMARK  status: ('A' for Active; 'I' for Inactive)
REMARK    1  A    between atoms: C_2  and  C_3 
REMARK    2  A    between atoms: C_3  and  C_4 
REMARK    3  A    between atoms: C_4  and  C_5 
REMARK    4  A    between atoms: C_5  and  C_6 
REMARK    5  A    between atoms: C_6  and  C_7 
REMARK    6  A    between atoms: C_7  and  C_8 
REMARK    7  A    between atoms: C_8  and  C_9 
REMARK    8  A    between atoms: C_9  and  O_10 
ROOT
HETATM    1  C   LIG     1      15.126  31.434  15.214  1.00  0.00     0.000 C 
ENDROOT
BRANCH   1   2
HETATM    2  C   LIG     1      13.932  30.973  16.070  1.00  0.00     0.000 C 
BRANCH   2   3
HETATM    3  C   LIG     1      13.695  31.800  17.347  1.00  0.00     0.000 C 
BRANCH   3   4
HETATM    4  C   LIG     1      14.970  32.496  17.853  1.00  0.00    -0.000 C 
BRANCH   4   5
HETATM    5  C   LIG     1      15.281  32.159  19.320  1.00  0.00    -0.005 C 
HETATM    6  C   LIG     1      15.536  33.404  20.169  1.00  0.00     0.005 C 
ENDBRANCH   4   5
ENDBRANCH   3   4
ENDBRANCH   2   3
ENDBRANCH   1   2
BRANCH   1   7
HETATM    7  C   LIG     1      15.550  30.390  14.168  1.00  0.00     0.002 C 
BRANCH   7   8
HETATM    8  C   LIG     1      14.561  29.216  14.067  1.00  0.00     0.026 C 
BRANCH   8   9
HETATM    9  C   LIG     1      15.198  27.912  13.568  1.00  0.00     0.164 C 
BRANCH   9  10
HETATM   10  O   LIG     1      14.277  27.160  12.824  1.00  0.00    -0.401 OA
HETATM   11  H   LIG     1      13.707  26.673  13.476  1.00  0.00     0.209 HD
ENDBRANCH   9  10
ENDBRANCH   8   9
ENDBRANCH   7   8
ENDBRANCH   1   7
TORSDOF 8
ENDMDL
MODEL 12
REMARK VINA RESULT:      -4.6      9.247     10.142
REMARK  8 active torsions:
REMARK  status: ('A' for Active; 'I' for Inactive)
REMARK    1  A    between atoms: C_2  and  C_3 
REMARK    2  A    between atoms: C_3  and  C_4 
REMARK    3  A    between atoms: C_4  and  C_5 
REMARK    4  A    between atoms: C_5  and  C_6 
REMARK    5  A    between atoms: C_6  and  C_7 
REMARK    6  A    between atoms: C_7  and  C_8 
REMARK    7  A    between atoms: C_8  and  C_9 
REMARK    8  A    between atoms: C_9  and  O_10 
ROOT
HETATM    1  C   LIG     1      15.446  30.856  14.789  1.00  0.00     0.000 C 
ENDROOT
BRANCH   1   2
HETATM    2  C   LIG     1      14.046  30.214  14.803  1.00  0.00     0.000 C 
BRANCH   2   3
HETATM    3  C   LIG     1      13.143  30.660  15.966  1.00  0.00     0.000 C 
BRANCH   3   4
HETATM    4  C   LIG     1      13.682  31.900  16.701  1.00  0.00    -0.000 C 
BRANCH   4   5
HETATM    5  C   LIG     1      14.239  31.563  18.093  1.00  0.00    -0.005 C 
HETATM    6  C   LIG     1      15.252  32.595  18.588  1.00  0.00     0.005 C 
ENDBRANCH   4   5
ENDBRANCH   3   4
ENDBRANCH   2   3
ENDBRANCH   1   2
BRANCH   1   7
HETATM    7  C   LIG     1      15.782  31.529  13.447  1.00  0.00     0.002 C 
BRANCH   7   8
HETATM    8  C   LIG     1      16.728  32.730  13.607  1.00  0.00     0.026 C 
BRANCH   8   9
HETATM    9  C   LIG     1      17.180  32.974  15.054  1.00  0.00     0.164 C 
BRANCH   9  10
HETATM   10  O   LIG     1      16.630  34.163  15.555  1.00  0.00    -0.401 OA
HETATM   11  H   LIG     1      15.744  33.932  15.939  1.00  0.00     0.209 HD
ENDBRANCH   9  10
ENDBRANCH   8   9
ENDBRANCH   7   8
ENDBRANCH   1   7
TORSDOF 8
ENDMDL
MODEL 13
REMARK VINA RESULT:      -4.5      8.654      9.196
REMARK  8 active torsions:
REMARK  status: ('A' for Active; 'I' for Inactive)
REMARK    1  A    between atoms: C_2  and  C_3 
REMARK    2  A    between atoms: C_3  and  C_4 
REMARK    3  A    between atoms: C_4  and  C_5 
REMARK    4  A    between atoms: C_5  and  C_6 
REMARK    5  A    between atoms: C_6  and  C_7 
REMARK    6  A    between atoms: C_7  and  C_8 
REMARK    7  A    between atoms: C_8  and  C_9 
REMARK    8  A    between atoms: C_9  and  O_10 
ROOT
HETATM    1  C   LIG     1      14.533  32.100  17.465  1.00  0.00     0.000 C 
ENDROOT
BRANCH   1   2
HETATM    2  C   LIG     1      14.566  31.722  18.957  1.00  0.00     0.000 C 
BRANCH   2   3
HETATM    3  C   LIG     1      15.690  32.392  19.768  1.00  0.00     0.000 C 
BRANCH   3   4
HETATM    4  C   LIG     1      15.179  33.528  20.672  1.00  0.00    -0.000 C 
BRANCH   4   5
HETATM    5  C   LIG     1      16.042  34.795  20.567  1.00  0.00    -0.005 C 
HETATM    6  C   LIG     1      16.807  35.096  21.856  1.00  0.00     0.005 C 
ENDBRANCH   4   5
ENDBRANCH   3   4
ENDBRANCH   2   3
ENDBRANCH   1   2
BRANCH   1   7
HETATM    7  C   LIG     1      13.578  31.216  16.645  1.00  0.00     0.002 C 
BRANCH   7   8
HETATM    8  C   LIG     1      14.223  30.682  15.356  1.00  0.00     0.026 C 
BRANCH   8   9
HETATM    9  C   LIG     1      13.353  29.668  14.602  1.00  0.00     0.164 C 
BRANCH   9  10
HETATM   10  O   LIG     1      14.133  28.886  13.737  1.00  0.00    -0.401 OA
HETATM   11  H   LIG     1      14.756  29.505  13.272  1.00  0.00     0.209 HD
ENDBRANCH   9  10
ENDBRANCH   8   9
ENDBRANCH   7   8
ENDBRANCH   1   7
TORSDOF 8
ENDMDL
MODEL 14
REMARK VINA RESULT:      -4.5     10.523     11.632
REMARK  8 active torsions:
REMARK  status: ('A' for Active; 'I' for Inactive)
REMARK    1  A    between atoms: C_2  and  C_3 
REMARK    2  A    between atoms: C_3  and  C_4 
REMARK    3  A    between atoms: C_4  and  C_5 
REMARK    4  A    between atoms: C_5  and  C_6 
REMARK    5  A    between atoms: C_6  and  C_7 
REMARK    6  A    between atoms: C_7  and  C_8 
REMARK    7  A    between atoms: C_8  and  C_9 
REMARK    8  A    between atoms: C_9  and  O_10 
ROOT
HETATM    1  C   LIG     1      14.284  31.601  16.185  1.00  0.00     0.000 C 
ENDROOT
BRANCH   1   2
HETATM    2  C   LIG     1      13.343  30.459  15.761  1.00  0.00     0.000 C 
BRANCH   2   3
HETATM    3  C   LIG     1      13.658  29.840  14.387  1.00  0.00     0.000 C 
BRANCH   3   4
HETATM    4  C   LIG     1      15.163  29.615  14.162  1.00  0.00    -0.000 C 
BRANCH   4   5
HETATM    5  C   LIG     1      15.490  28.166  13.772  1.00  0.00    -0.005 C 
HETATM    6  C   LIG     1      14.239  27.339  13.476  1.00  0.00     0.005 C 
ENDBRANCH   4   5
ENDBRANCH   3   4
ENDBRANCH   2   3
ENDBRANCH   1   2
BRANCH   1   7
HETATM    7  C   LIG     1      14.020  32.091  17.619  1.00  0.00     0.002 C 
BRANCH   7   8
HETATM    8  C   LIG     1      15.292  32.608  18.312  1.00  0.00     0.026 C 
BRANCH   8   9
HETATM    9  C   LIG     1      15.326  32.341  19.823  1.00  0.00     0.164 C 
BRANCH   9  10
HETATM   10  O   LIG     1      14.199  31.609  20.226  1.00  0.00    -0.401 OA
HETATM   11  H   LIG     1      13.404  32.081  19.863  1.00  0.00     0.209 HD
ENDBRANCH   9  10
ENDBRANCH   8   9
ENDBRANCH   7   8
ENDBRANCH   1   7
TORSDOF 8
ENDMDL
MODEL 15
REMARK VINA RESULT:      -4.5      6.641      7.237
REMARK  8 active torsions:
REMARK  status: ('A' for Active; 'I' for Inactive)
REMARK    1  A    between atoms: C_2  and  C_3 
REMARK    2  A    between atoms: C_3  and  C_4 
REMARK    3  A    between atoms: C_4  and  C_5 
REMARK    4  A    between atoms: C_5  and  C_6 
REMARK    5  A    between atoms: C_6  and  C_7 
REMARK    6  A    between atoms: C_7  and  C_8 
REMARK    7  A    between atoms: C_8  and  C_9 
REMARK    8  A    between atoms: C_9  and  O_10 
ROOT
HETATM    1  C   LIG     1      14.682  31.911  18.654  1.00  0.00     0.000 C 
ENDROOT
BRANCH   1   2
HETATM    2  C   LIG     1      15.287  32.394  19.984  1.00  0.00     0.000 C 
BRANCH   2   3
HETATM    3  C   LIG     1      15.608  33.899  20.039  1.00  0.00     0.000 C 
BRANCH   3   4
HETATM    4  C   LIG     1      15.391  34.506  21.436  1.00  0.00    -0.000 C 
BRANCH   4   5
HETATM    5  C   LIG     1      16.658  35.178  21.988  1.00  0.00    -0.005 C 
HETATM    6  C   LIG     1      17.336  36.088  20.965  1.00  0.00     0.005 C 
ENDBRANCH   4   5
ENDBRANCH   3   4
ENDBRANCH   2   3
ENDBRANCH   1   2
BRANCH   1   7
HETATM    7  C   LIG     1      14.976  32.864  17.482  1.00  0.00     0.002 C 
BRANCH   7   8
HETATM    8  C   LIG     1      15.127  32.126  16.142  1.00  0.00     0.026 C 
BRANCH   8   9
HETATM    9  C   LIG     1      16.443  32.430  15.413  1.00  0.00     0.164 C 
BRANCH   9  10
HETATM   10  O   LIG     1      16.199  33.067  14.187  1.00  0.00    -0.401 OA
HETATM   11  H   LIG     1      15.329  33.538  14.275  1.00  0.00     0.209 HD
ENDBRANCH   9  10
ENDBRANCH   8   9
ENDBRANCH   7   8
ENDBRANCH   1   7
TORSDOF 8
ENDMDL
MODEL 16
REMARK VINA RESULT:      -4.4      9.226     10.732
REMARK  8 active torsions:
REMARK  status: ('A' for Active; 'I' for Inactive)
REMARK    1  A    between atoms: C_2  and  C_3 
REMARK    2  A    between atoms: C_3  and  C_4 
REMARK    3  A    between atoms: C_4  and  C_5 
REMARK    4  A    between atoms: C_5  and  C_6 
REMARK    5  A    between atoms: C_6  and  C_7 
REMARK    6  A    between atoms: C_7  and  C_8 
REMARK    7  A    between atoms: C_8  and  C_9 
REMARK    8  A    between atoms: C_9  and  O_10 
ROOT
HETATM    1  C   LIG     1      15.417  33.185  16.182  1.00  0.00     0.000 C 
ENDROOT
BRANCH   1   2
HETATM    2  C   LIG     1      16.474  32.311  15.482  1.00  0.00     0.000 C 
BRANCH   2   3
HETATM    3  C   LIG     1      16.426  32.347  13.944  1.00  0.00     0.000 C 
BRANCH   3   4
HETATM    4  C   LIG     1      15.545  31.235  13.348  1.00  0.00    -0.000 C 
BRANCH   4   5
HETATM    5  C   LIG     1      15.337  30.064  14.320  1.00  0.00    -0.005 C 
HETATM    6  C   LIG     1      13.864  29.820  14.643  1.00  0.00     0.005 C 
ENDBRANCH   4   5
ENDBRANCH   3   4
ENDBRANCH   2   3
ENDBRANCH   1   2
BRANCH   1   7
HETATM    7  C   LIG     1      14.780  32.493  17.399  1.00  0.00     0.002 C 
BRANCH   7   8
HETATM    8  C   LIG     1      15.322  33.027  18.735  1.00  0.00     0.026 C 
BRANCH   8   9
HETATM    9  C   LIG     1      15.481  31.948  19.815  1.00  0.00     0.164 C 
BRANCH   9  10
HETATM   10  O   LIG     1      14.228  31.504  20.265  1.00  0.00    -0.401 OA
HETATM   11  H   LIG     1      13.570  32.209  20.026  1.00  0.00     0.209 HD
ENDBRANCH   9  10
ENDBRANCH   8   9
ENDBRANCH   7   8
ENDBRANCH   1   7
TORSDOF 8
ENDMDL
MODEL 17
REMARK VINA RESULT:      -4.3     10.715     11.673
REMARK  8 active torsions:
REMARK  status: ('A' for Active; 'I' for Inactive)
REMARK    1  A    between atoms: C_2  and  C_3 
REMARK    2  A    between atoms: C_3  and  C_4 
REMARK    3  A    between atoms: C_4  and  C_5 
REMARK    4  A    between atoms: C_5  and  C_6 
REMARK    5  A    between atoms: C_6  and  C_7 
REMARK    6  A    between atoms: C_7  and  C_8 
REMARK    7  A    between atoms: C_8  and  C_9 
REMARK    8  A    between atoms: C_9  and  O_10 
ROOT
HETATM    1  C   LIG     1      15.756  31.575  13.859  1.00  0.00     0.000 C 
ENDROOT
BRANCH   1   2
HETATM    2  C   LIG     1      16.253  31.830  15.293  1.00  0.00     0.000 C 
BRANCH   2   3
HETATM    3  C   LIG     1      15.710  33.114  15.946  1.00  0.00     0.000 C 
BRANCH   3   4
HETATM    4  C   LIG     1      14.943  32.842  17.253  1.00  0.00    -0.000 C 
BRANCH   4   5
HETATM    5  C   LIG     1      14.180  31.509  17.220  1.00  0.00    -0.005 C 
HETATM    6  C   LIG     1      12.779  31.647  16.625  1.00  0.00     0.005 C 
ENDBRANCH   4   5
ENDBRANCH   3   4
ENDBRANCH   2   3
ENDBRANCH   1   2
BRANCH   1   7
HETATM    7  C   LIG     1      14.850  30.336  13.751  1.00  0.00     0.002 C 
BRANCH   7   8
HETATM    8  C   LIG     1      15.564  29.042  14.176  1.00  0.00     0.026 C 
BRANCH   8   9
HETATM    9  C   LIG     1      14.971  27.774  13.547  1.00  0.00     0.164 C 
BRANCH   9  10
HETATM   10  O   LIG     1      15.542  27.526  12.290  1.00  0.00    -0.401 OA
HETATM   11  H   LIG     1      16.321  28.137  12.201  1.00  0.00     0.209 HD
ENDBRANCH   9  10
ENDBRANCH   8   9
ENDBRANCH   7   8
ENDBRANCH   1   7
TORSDOF 8
ENDMDL
MODEL 18
REMARK VINA RESULT:      -4.3     10.789     11.752
REMARK  8 active torsions:
REMARK  status: ('A' for Active; 'I' for Inactive)
REMARK    1  A    between atoms: C_2  and  C_3 
REMARK    2  A    between atoms: C_3  and  C_4 
REMARK    3  A    between atoms: C_4  and  C_5 
REMARK    4  A    between atoms: C_5  and  C_6 
REMARK    5  A    between atoms: C_6  and  C_7 
REMARK    6  A    between atoms: C_7  and  C_8 
REMARK    7  A    between atoms: C_8  and  C_9 
REMARK    8  A    between atoms: C_9  and  O_10 
ROOT
HETATM    1  C   LIG     1      13.571  30.041  15.733  1.00  0.00     0.000 C 
ENDROOT
BRANCH   1   2
HETATM    2  C   LIG     1      13.165  31.472  16.129  1.00  0.00     0.000 C 
BRANCH   2   3
HETATM    3  C   LIG     1      13.851  32.010  17.398  1.00  0.00     0.000 C 
BRANCH   3   4
HETATM    4  C   LIG     1      15.362  32.234  17.211  1.00  0.00    -0.000 C 
BRANCH   4   5
HETATM    5  C   LIG     1      15.684  33.060  15.957  1.00  0.00    -0.005 C 
HETATM    6  C   LIG     1      16.881  32.511  15.181  1.00  0.00     0.005 C 
ENDBRANCH   4   5
ENDBRANCH   3   4
ENDBRANCH   2   3
ENDBRANCH   1   2
BRANCH   1   7
HETATM    7  C   LIG     1      14.055  29.939  14.276  1.00  0.00     0.002 C 
BRANCH   7   8
HETATM    8  C   LIG     1      15.394  29.195  14.147  1.00  0.00     0.026 C 
BRANCH   8   9
HETATM    9  C   LIG     1      15.258  27.764  13.609  1.00  0.00     0.164 C 
BRANCH   9  10
HETATM   10  O   LIG     1      13.914  27.451  13.358  1.00  0.00    -0.401 OA
HETATM   11  H   LIG     1      13.901  26.552  12.937  1.00  0.00     0.209 HD
ENDBRANCH   9  10
ENDBRANCH   8   9
ENDBRANCH   7   8
ENDBRANCH   1   7
TORSDOF 8
ENDMDL
MODEL 19
REMARK VINA RESULT:      -4.3      4.456      5.253
REMARK  8 active torsions:
REMARK  status: ('A' for Active; 'I' for Inactive)
REMARK    1  A    between atoms: C_2  and  C_3 
REMARK    2  A    between atoms: C_3  and  C_4 
REMARK    3  A    between atoms: C_4  and  C_5 
REMARK    4  A    between atoms: C_5  and  C_6 
REMARK    5  A    between atoms: C_6  and  C_7 
REMARK    6  A    between atoms: C_7  and  C_8 
REMARK    7  A    between atoms: C_8  and  C_9 
REMARK    8  A    between atoms: C_9  and  O_10 
ROOT
HETATM    1  C   LIG     1      16.368  36.252  21.816  1.00  0.00     0.000 C 
ENDROOT
BRANCH   1   2
HETATM    2  C   LIG     1      15.620  35.493  20.705  1.00  0.00     0.000 C 
BRANCH   2   3
HETATM    3  C   LIG     1      15.241  34.043  21.055  1.00  0.00     0.000 C 
BRANCH   3   4
HETATM    4  C   LIG     1      15.713  33.029  19.998  1.00  0.00    -0.000 C 
BRANCH   4   5
HETATM    5  C   LIG     1      14.722  31.870  19.812  1.00  0.00    -0.005 C 
HETATM    6  C   LIG     1      14.405  31.597  18.342  1.00  0.00     0.005 C 
ENDBRANCH   4   5
ENDBRANCH   3   4
ENDBRANCH   2   3
ENDBRANCH   1   2
BRANCH   1   7
HETATM    7  C   LIG     1      17.556  37.072  21.284  1.00  0.00     0.002 C 
BRANCH   7   8
HETATM    8  C   LIG     1      17.781  38.371  22.075  1.00  0.00     0.026 C 
BRANCH   8   9
HETATM    9  C   LIG     1      18.615  39.417  21.322  1.00  0.00     0.164 C 
BRANCH   9  10
HETATM   10  O   LIG     1      19.625  38.802  20.569  1.00  0.00    -0.401 OA
HETATM   11  H   LIG     1      19.842  39.417  19.820  1.00  0.00     0.209 HD
ENDBRANCH   9  10
ENDBRANCH   8   9
ENDBRANCH   7   8
ENDBRANCH   1   7
TORSDOF 8
ENDMDL
MODEL 20
REMARK VINA RESULT:      -4.2     11.870     13.149
REMARK  8 active torsions:
REMARK  status: ('A' for Active; 'I' for Inactive)
REMARK    1  A    between atoms: C_2  and  C_3 
REMARK    2  A    between atoms: C_3  and  C_4 
REMARK    3  A    between atoms: C_4  and  C_5 
REMARK    4  A    between atoms: C_5  and  C_6 
REMARK    5  A    between atoms: C_6  and  C_7 
REMARK    6  A    between atoms: C_7  and  C_8 
REMARK    7  A    between atoms: C_8  and  C_9 
REMARK    8  A    between atoms: C_9  and  O_10 
ROOT
HETATM    1  C   LIG     1      15.090  30.792  14.807  1.00  0.00     0.000 C 
ENDROOT
BRANCH   1   2
HETATM    2  C   LIG     1      15.217  29.826  13.614  1.00  0.00     0.000 C 
BRANCH   2   3
HETATM    3  C   LIG     1      15.612  28.386  13.989  1.00  0.00     0.000 C 
BRANCH   3   4
HETATM    4  C   LIG     1      15.109  27.345  12.973  1.00  0.00    -0.000 C 
BRANCH   4   5
HETATM    5  C   LIG     1      16.103  27.119  11.823  1.00  0.00    -0.005 C 
HETATM    6  C   LIG     1      15.515  26.270  10.696  1.00  0.00     0.005 C 
ENDBRANCH   4   5
ENDBRANCH   3   4
ENDBRANCH   2   3
ENDBRANCH   1   2
BRANCH   1   7
HETATM    7  C   LIG     1      13.748  30.655  15.546  1.00  0.00     0.002 C 
BRANCH   7   8
HETATM    8  C   LIG     1      13.753  31.350  16.917  1.00  0.00     0.026 C 
BRANCH   8   9
HETATM    9  C   LIG     1      14.455  32.714  16.917  1.00  0.00     0.164 C 
BRANCH   9  10
HETATM   10  O   LIG     1      15.563  32.706  17.778  1.00  0.00    -0.401 OA
HETATM   11  H   LIG     1      15.726  31.759  18.028  1.00  0.00     0.209 HD
ENDBRANCH   9  10
ENDBRANCH   8   9
ENDBRANCH   7   8
ENDBRANCH   1   7
TORSDOF 8
ENDMDL
