REMARK  11 active torsions:
REMARK  status: ('A' for Active; 'I' for Inactive)
REMARK    1  A    between atoms: C_2  and  C_3 
REMARK    2  A    between atoms: C_3  and  C_4 
REMARK    3  A    between atoms: C_4  and  C_5 
REMARK    4  A    between atoms: C_5  and  C_6 
REMARK    5  A    between atoms: C_6  and  C_7 
REMARK    6  A    between atoms: C_7  and  C_8 
REMARK    7  A    between atoms: C_8  and  C_9 
REMARK    8  A    between atoms: C_9  and  C_10 
REMARK    9  A    between atoms: C_10  and  C_11 
REMARK   10  A    between atoms: C_11  and  C_12 
REMARK   11  A    between atoms: C_12  and  O_13 
ROOT
HETATM    1  C   LIG     1      -1.485  -1.426   1.003  1.00  0.00     0.000 C 
ENDROOT
BRANCH   1   2
HETATM    2  C   LIG     1       0.038  -1.611   1.089  1.00  0.00     0.000 C 
BRANCH   2   3
HETATM    3  C   LIG     1       0.706  -1.666  -0.295  1.00  0.00     0.000 C 
BRANCH   3   4
HETATM    4  C   LIG     1       2.182  -2.095  -0.227  1.00  0.00     0.000 C 
BRANCH   4   5
HETATM    5  C   LIG     1       3.094  -1.166   0.599  1.00  0.00     0.000 C 
BRANCH   5   6
HETATM    6  C   LIG     1       3.093   0.309   0.159  1.00  0.00    -0.000 C 
BRANCH   6   7
HETATM    7  C   LIG     1       3.586   0.502  -1.282  1.00  0.00    -0.005 C 
HETATM    8  C   LIG     1       3.714   1.983  -1.625  1.00  0.00     0.005 C 
ENDBRANCH   6   7
ENDBRANCH   5   6
ENDBRANCH   4   5
ENDBRANCH   3   4
ENDBRANCH   2   3
ENDBRANCH   1   2
BRANCH   1   9
HETATM    9  C   LIG     1      -1.883  -0.028   0.508  1.00  0.00     0.001 C 
BRANCH   9  10
HETATM   10  C   LIG     1      -3.403   0.163   0.565  1.00  0.00     0.010 C 
BRANCH  10  11
HETATM   11  C   LIG     1      -3.803   1.553   0.058  1.00  0.00     0.110 C 
BRANCH  11  12
HETATM   12  C   LIG     1      -5.290   1.742   0.132  1.00  0.00     0.139 C 
HETATM   13  O   LIG     1      -6.048   1.033  -0.581  1.00  0.00    -0.650 OA
BRANCH  12  14
HETATM   14  O   LIG     1      -5.846   2.700   0.975  1.00  0.00    -0.776 OA
HETATM   15  H   LIG     1      -5.266   3.287   1.563  1.00  0.00     0.167 HD
ENDBRANCH  12  14
ENDBRANCH  11  12
ENDBRANCH  10  11
ENDBRANCH   9  10
ENDBRANCH   1   9
TORSDOF 11
