REMARK  8 active torsions:
REMARK  status: ('A' for Active; 'I' for Inactive)
REMARK    1  A    between atoms: C_2  and  C_3 
REMARK    2  A    between atoms: C_3  and  C_4 
REMARK    3  A    between atoms: C_4  and  C_5 
REMARK    4  A    between atoms: C_5  and  C_6 
REMARK    5  A    between atoms: C_6  and  C_7 
REMARK    6  A    between atoms: C_7  and  C_8 
REMARK    7  A    between atoms: C_8  and  C_9 
REMARK    8  A    between atoms: C_9  and  O_10 
ROOT
HETATM    1  C   LIG     1      -0.897  -1.468  -0.004  1.00  0.00     0.000 C 
ENDROOT
BRANCH   1   2
HETATM    2  C   LIG     1       0.347  -1.805  -0.846  1.00  0.00     0.000 C 
BRANCH   2   3
HETATM    3  C   LIG     1       1.341  -0.643  -1.023  1.00  0.00     0.000 C 
BRANCH   3   4
HETATM    4  C   LIG     1       1.911  -0.135   0.313  1.00  0.00    -0.000 C 
BRANCH   4   5
HETATM    5  C   LIG     1       3.090   0.831   0.120  1.00  0.00    -0.005 C 
HETATM    6  C   LIG     1       2.662   2.172  -0.475  1.00  0.00     0.005 C 
ENDBRANCH   4   5
ENDBRANCH   3   4
ENDBRANCH   2   3
ENDBRANCH   1   2
BRANCH   1   7
HETATM    7  C   LIG     1      -1.743  -0.337  -0.614  1.00  0.00     0.002 C 
BRANCH   7   8
HETATM    8  C   LIG     1      -3.112  -0.186   0.070  1.00  0.00     0.026 C 
BRANCH   8   9
HETATM    9  C   LIG     1      -3.026   0.272   1.532  1.00  0.00     0.164 C 
BRANCH   9  10
HETATM   10  O   LIG     1      -2.401   1.524   1.627  1.00  0.00    -0.401 OA
HETATM   11  H   LIG     1      -1.433   1.353   1.772  1.00  0.00     0.209 HD
ENDBRANCH   9  10
ENDBRANCH   8   9
ENDBRANCH   7   8
ENDBRANCH   1   7
TORSDOF 8
