REMARK  9 active torsions:
REMARK  status: ('A' for Active; 'I' for Inactive)
REMARK    1  A    between atoms: C_2  and  C_3 
REMARK    2  A    between atoms: C_3  and  C_4 
REMARK    3  A    between atoms: C_4  and  C_5 
REMARK    4  A    between atoms: C_5  and  C_6 
REMARK    5  A    between atoms: C_6  and  C_7 
REMARK    6  A    between atoms: C_7  and  O_8 
REMARK    7  A    between atoms: O_8  and  C_9 
REMARK    8  A    between atoms: C_9  and  C_10 
REMARK    9  A    between atoms: C_13  and  N_14 
ROOT
HETATM    1  C   LIG     1       2.219  -0.272   1.183  1.00  0.00     0.293 C 
HETATM    2  O   LIG     1       2.340  -1.076   2.147  1.00  0.00    -0.259 OA
ENDROOT
BRANCH   1   3
HETATM    3  O   LIG     1       0.973   0.299   0.889  1.00  0.00    -0.318 OA
BRANCH   3   4
HETATM    4  C   LIG     1      -0.226   0.032   1.617  1.00  0.00     0.179 C 
BRANCH   4   5
HETATM    5  C   LIG     1      -1.266  -0.571   0.675  1.00  0.00     0.027 C 
BRANCH   5   6
HETATM    6  C   LIG     1      -2.593  -0.826   1.404  1.00  0.00     0.002 C 
BRANCH   6   7
HETATM    7  C   LIG     1      -3.610  -1.601   0.546  1.00  0.00     0.000 C 
BRANCH   7   8
HETATM    8  C   LIG     1      -4.046  -0.889  -0.747  1.00  0.00    -0.000 C 
BRANCH   8   9
HETATM    9  C   LIG     1      -4.752   0.449  -0.484  1.00  0.00    -0.005 C 
HETATM   10  C   LIG     1      -5.329   1.029  -1.772  1.00  0.00     0.005 C 
ENDBRANCH   8   9
ENDBRANCH   7   8
ENDBRANCH   6   7
ENDBRANCH   5   6
ENDBRANCH   4   5
ENDBRANCH   3   4
ENDBRANCH   1   3
BRANCH   1  11
HETATM   11  C   LIG     1       3.395   0.071   0.353  1.00  0.00     0.039 A 
HETATM   12  C   LIG     1       3.265   0.960  -0.729  1.00  0.00     0.020 A 
HETATM   13  C   LIG     1       4.375   1.286  -1.515  1.00  0.00     0.030 A 
HETATM   14  C   LIG     1       5.629   0.730  -1.233  1.00  0.00     0.025 A 
HETATM   15  C   LIG     1       5.765  -0.156  -0.156  1.00  0.00     0.030 A 
HETATM   16  C   LIG     1       4.657  -0.484   0.632  1.00  0.00     0.020 A 
BRANCH  14  17
HETATM   17  N   LIG     1       6.763   1.064  -2.038  1.00  0.00    -0.399 N 
HETATM   18  H   LIG     1       7.702   0.654  -1.835  1.00  0.00     0.156 HD
HETATM   19  H   LIG     1       6.671   1.723  -2.842  1.00  0.00     0.156 HD
ENDBRANCH  14  17
ENDBRANCH   1  11
TORSDOF 9
