REMARK  10 active torsions:
REMARK  status: ('A' for Active; 'I' for Inactive)
REMARK    1  A    between atoms: C_2  and  C_3 
REMARK    2  A    between atoms: C_2  and  O_10 
REMARK    3  A    between atoms: C_8  and  N_9 
REMARK    4  A    between atoms: O_10  and  C_11 
REMARK    5  A    between atoms: C_11  and  C_12 
REMARK    6  A    between atoms: C_12  and  C_13 
REMARK    7  A    between atoms: C_13  and  C_14 
REMARK    8  A    between atoms: C_14  and  C_15 
REMARK    9  A    between atoms: C_15  and  C_16 
REMARK   10  A    between atoms: C_16  and  C_17 
ROOT
HETATM    1  O   LIG     1       2.290  -1.942   0.833  1.00  0.00    -0.259 OA
HETATM    2  C   LIG     1       2.722  -0.757   0.787  1.00  0.00     0.293 C 
ENDROOT
BRANCH   2   3
HETATM    3  C   LIG     1       4.147  -0.498   0.485  1.00  0.00     0.039 A 
HETATM    4  C   LIG     1       5.036  -1.562   0.245  1.00  0.00     0.020 A 
HETATM    5  C   LIG     1       6.381  -1.312  -0.041  1.00  0.00     0.030 A 
HETATM    6  C   LIG     1       6.859   0.004  -0.093  1.00  0.00     0.025 A 
HETATM    7  C   LIG     1       5.979   1.068   0.144  1.00  0.00     0.030 A 
HETATM    8  C   LIG     1       4.633   0.820   0.431  1.00  0.00     0.020 A 
BRANCH   6   9
HETATM    9  N   LIG     1       8.235   0.259  -0.386  1.00  0.00    -0.399 N 
HETATM   10  H   LIG     1       8.899  -0.527  -0.565  1.00  0.00     0.156 HD
HETATM   11  H   LIG     1       8.601   1.237  -0.427  1.00  0.00     0.156 HD
ENDBRANCH   6   9
ENDBRANCH   2   3
BRANCH   2  12
HETATM   12  O   LIG     1       1.856   0.317   1.030  1.00  0.00    -0.318 OA
BRANCH  12  13
HETATM   13  C   LIG     1       0.459   0.163   1.273  1.00  0.00     0.179 C 
BRANCH  13  14
HETATM   14  C   LIG     1      -0.286  -0.108  -0.040  1.00  0.00     0.027 C 
BRANCH  14  15
HETATM   15  C   LIG     1      -1.779  -0.404   0.172  1.00  0.00     0.002 C 
BRANCH  15  16
HETATM   16  C   LIG     1      -2.583   0.854   0.544  1.00  0.00     0.000 C 
BRANCH  16  17
HETATM   17  C   LIG     1      -4.077   0.557   0.756  1.00  0.00     0.000 C 
BRANCH  17  18
HETATM   18  C   LIG     1      -4.823   0.295  -0.561  1.00  0.00    -0.000 C 
BRANCH  18  19
HETATM   19  C   LIG     1      -6.329   0.139  -0.316  1.00  0.00    -0.005 C 
HETATM   20  C   LIG     1      -7.075  -0.133  -1.619  1.00  0.00     0.005 C 
ENDBRANCH  18  19
ENDBRANCH  17  18
ENDBRANCH  16  17
ENDBRANCH  15  16
ENDBRANCH  14  15
ENDBRANCH  13  14
ENDBRANCH  12  13
ENDBRANCH   2  12
TORSDOF 10
