MODEL 1
REMARK VINA RESULT:      -7.6      0.000      0.000
REMARK  9 active torsions:
REMARK  status: ('A' for Active; 'I' for Inactive)
REMARK    1  A    between atoms: C_2  and  C_3 
REMARK    2  A    between atoms: C_3  and  C_4 
REMARK    3  A    between atoms: C_4  and  C_5 
REMARK    4  A    between atoms: C_5  and  C_6 
REMARK    5  A    between atoms: C_6  and  C_7 
REMARK    6  A    between atoms: C_7  and  O_8 
REMARK    7  A    between atoms: O_8  and  C_9 
REMARK    8  A    between atoms: C_9  and  C_10 
REMARK    9  A    between atoms: C_13  and  N_14 
ROOT
HETATM    1  C   LIG     1      16.706  36.571  22.105  1.00  0.00     0.293 C 
HETATM    2  O   LIG     1      16.989  36.271  23.297  1.00  0.00    -0.259 OA
ENDROOT
BRANCH   1   3
HETATM    3  O   LIG     1      15.468  36.207  21.558  1.00  0.00    -0.318 OA
BRANCH   3   4
HETATM    4  C   LIG     1      14.989  34.864  21.475  1.00  0.00     0.179 C 
BRANCH   4   5
HETATM    5  C   LIG     1      15.892  34.061  20.541  1.00  0.00     0.027 C 
BRANCH   5   6
HETATM    6  C   LIG     1      15.212  32.759  20.096  1.00  0.00     0.002 C 
BRANCH   6   7
HETATM    7  C   LIG     1      15.215  32.572  18.567  1.00  0.00     0.000 C 
BRANCH   7   8
HETATM    8  C   LIG     1      14.283  31.463  18.046  1.00  0.00    -0.000 C 
BRANCH   8   9
HETATM    9  C   LIG     1      13.441  31.907  16.842  1.00  0.00    -0.005 C 
HETATM   10  C   LIG     1      12.911  30.703  16.068  1.00  0.00     0.005 C 
ENDBRANCH   8   9
ENDBRANCH   7   8
ENDBRANCH   6   7
ENDBRANCH   5   6
ENDBRANCH   4   5
ENDBRANCH   3   4
ENDBRANCH   1   3
BRANCH   1  11
HETATM   11  C   LIG     1      17.685  37.308  21.275  1.00  0.00     0.039 A 
HETATM   12  C   LIG     1      17.970  38.658  21.546  1.00  0.00     0.020 A 
HETATM   13  C   LIG     1      18.894  39.358  20.763  1.00  0.00     0.030 A 
HETATM   14  C   LIG     1      19.546  38.720  19.700  1.00  0.00     0.025 A 
HETATM   15  C   LIG     1      19.266  37.375  19.426  1.00  0.00     0.030 A 
HETATM   16  C   LIG     1      18.343  36.673  20.207  1.00  0.00     0.020 A 
BRANCH  14  17
HETATM   17  N   LIG     1      20.491  39.437  18.900  1.00  0.00    -0.399 N 
HETATM   18  H   LIG     1      21.252  39.996  19.345  1.00  0.00     0.156 HD
HETATM   19  H   LIG     1      20.435  39.412  17.858  1.00  0.00     0.156 HD
ENDBRANCH  14  17
ENDBRANCH   1  11
TORSDOF 9
ENDMDL
MODEL 2
REMARK VINA RESULT:      -7.3      4.505      8.396
REMARK  9 active torsions:
REMARK  status: ('A' for Active; 'I' for Inactive)
REMARK    1  A    between atoms: C_2  and  C_3 
REMARK    2  A    between atoms: C_3  and  C_4 
REMARK    3  A    between atoms: C_4  and  C_5 
REMARK    4  A    between atoms: C_5  and  C_6 
REMARK    5  A    between atoms: C_6  and  C_7 
REMARK    6  A    between atoms: C_7  and  O_8 
REMARK    7  A    between atoms: O_8  and  C_9 
REMARK    8  A    between atoms: C_9  and  C_10 
REMARK    9  A    between atoms: C_13  and  N_14 
ROOT
HETATM    1  C   LIG     1      15.297  33.500  17.096  1.00  0.00     0.293 C 
HETATM    2  O   LIG     1      15.638  34.559  16.502  1.00  0.00    -0.259 OA
ENDROOT
BRANCH   1   3
HETATM    3  O   LIG     1      15.364  33.418  18.493  1.00  0.00    -0.318 OA
BRANCH   3   4
HETATM    4  C   LIG     1      15.677  34.517  19.350  1.00  0.00     0.179 C 
BRANCH   4   5
HETATM    5  C   LIG     1      15.547  34.076  20.806  1.00  0.00     0.027 C 
BRANCH   5   6
HETATM    6  C   LIG     1      15.781  35.252  21.765  1.00  0.00     0.002 C 
BRANCH   6   7
HETATM    7  C   LIG     1      17.102  35.135  22.548  1.00  0.00     0.000 C 
BRANCH   7   8
HETATM    8  C   LIG     1      17.117  35.855  23.908  1.00  0.00    -0.000 C 
BRANCH   8   9
HETATM    9  C   LIG     1      17.486  34.925  25.073  1.00  0.00    -0.005 C 
HETATM   10  C   LIG     1      17.965  35.722  26.283  1.00  0.00     0.005 C 
ENDBRANCH   8   9
ENDBRANCH   7   8
ENDBRANCH   6   7
ENDBRANCH   5   6
ENDBRANCH   4   5
ENDBRANCH   3   4
ENDBRANCH   1   3
BRANCH   1  11
HETATM   11  C   LIG     1      14.824  32.335  16.316  1.00  0.00     0.039 A 
HETATM   12  C   LIG     1      15.569  31.865  15.220  1.00  0.00     0.020 A 
HETATM   13  C   LIG     1      15.125  30.763  14.481  1.00  0.00     0.030 A 
HETATM   14  C   LIG     1      13.932  30.115  14.826  1.00  0.00     0.025 A 
HETATM   15  C   LIG     1      13.186  30.578  15.918  1.00  0.00     0.030 A 
HETATM   16  C   LIG     1      13.627  31.680  16.658  1.00  0.00     0.020 A 
BRANCH  14  17
HETATM   17  N   LIG     1      13.479  28.989  14.070  1.00  0.00    -0.399 N 
HETATM   18  H   LIG     1      13.906  28.046  14.208  1.00  0.00     0.156 HD
HETATM   19  H   LIG     1      12.714  29.091  13.368  1.00  0.00     0.156 HD
ENDBRANCH  14  17
ENDBRANCH   1  11
TORSDOF 9
ENDMDL
MODEL 3
REMARK VINA RESULT:      -7.2      3.913      8.109
REMARK  9 active torsions:
REMARK  status: ('A' for Active; 'I' for Inactive)
REMARK    1  A    between atoms: C_2  and  C_3 
REMARK    2  A    between atoms: C_3  and  C_4 
REMARK    3  A    between atoms: C_4  and  C_5 
REMARK    4  A    between atoms: C_5  and  C_6 
REMARK    5  A    between atoms: C_6  and  C_7 
REMARK    6  A    between atoms: C_7  and  O_8 
REMARK    7  A    between atoms: O_8  and  C_9 
REMARK    8  A    between atoms: C_9  and  C_10 
REMARK    9  A    between atoms: C_13  and  N_14 
ROOT
HETATM    1  C   LIG     1      15.331  33.458  17.008  1.00  0.00     0.293 C 
HETATM    2  O   LIG     1      15.796  34.438  16.365  1.00  0.00    -0.259 OA
ENDROOT
BRANCH   1   3
HETATM    3  O   LIG     1      15.374  33.445  18.409  1.00  0.00    -0.318 OA
BRANCH   3   4
HETATM    4  C   LIG     1      15.639  34.593  19.216  1.00  0.00     0.179 C 
BRANCH   4   5
HETATM    5  C   LIG     1      15.814  34.160  20.670  1.00  0.00     0.027 C 
BRANCH   5   6
HETATM    6  C   LIG     1      15.821  35.372  21.613  1.00  0.00     0.002 C 
BRANCH   6   7
HETATM    7  C   LIG     1      17.224  35.976  21.804  1.00  0.00     0.000 C 
BRANCH   7   8
HETATM    8  C   LIG     1      17.304  37.503  21.632  1.00  0.00    -0.000 C 
BRANCH   8   9
HETATM    9  C   LIG     1      18.469  37.944  20.733  1.00  0.00    -0.005 C 
HETATM   10  C   LIG     1      18.738  36.916  19.639  1.00  0.00     0.005 C 
ENDBRANCH   8   9
ENDBRANCH   7   8
ENDBRANCH   6   7
ENDBRANCH   5   6
ENDBRANCH   4   5
ENDBRANCH   3   4
ENDBRANCH   1   3
BRANCH   1  11
HETATM   11  C   LIG     1      14.739  32.311  16.285  1.00  0.00     0.039 A 
HETATM   12  C   LIG     1      13.516  31.760  16.707  1.00  0.00     0.020 A 
HETATM   13  C   LIG     1      12.954  30.676  16.025  1.00  0.00     0.030 A 
HETATM   14  C   LIG     1      13.604  30.127  14.912  1.00  0.00     0.025 A 
HETATM   15  C   LIG     1      14.822  30.672  14.486  1.00  0.00     0.030 A 
HETATM   16  C   LIG     1      15.387  31.755  15.166  1.00  0.00     0.020 A 
BRANCH  14  17
HETATM   17  N   LIG     1      13.028  29.018  14.216  1.00  0.00    -0.399 N 
HETATM   18  H   LIG     1      13.631  28.344  13.694  1.00  0.00     0.156 HD
HETATM   19  H   LIG     1      11.996  28.865  14.218  1.00  0.00     0.156 HD
ENDBRANCH  14  17
ENDBRANCH   1  11
TORSDOF 9
ENDMDL
MODEL 4
REMARK VINA RESULT:      -7.1      1.432      2.297
REMARK  9 active torsions:
REMARK  status: ('A' for Active; 'I' for Inactive)
REMARK    1  A    between atoms: C_2  and  C_3 
REMARK    2  A    between atoms: C_3  and  C_4 
REMARK    3  A    between atoms: C_4  and  C_5 
REMARK    4  A    between atoms: C_5  and  C_6 
REMARK    5  A    between atoms: C_6  and  C_7 
REMARK    6  A    between atoms: C_7  and  O_8 
REMARK    7  A    between atoms: O_8  and  C_9 
REMARK    8  A    between atoms: C_9  and  C_10 
REMARK    9  A    between atoms: C_13  and  N_14 
ROOT
HETATM    1  C   LIG     1      16.288  34.967  21.274  1.00  0.00     0.293 C 
HETATM    2  O   LIG     1      15.707  34.770  22.375  1.00  0.00    -0.259 OA
ENDROOT
BRANCH   1   3
HETATM    3  O   LIG     1      16.173  34.033  20.235  1.00  0.00    -0.318 OA
BRANCH   3   4
HETATM    4  C   LIG     1      15.156  33.034  20.161  1.00  0.00     0.179 C 
BRANCH   4   5
HETATM    5  C   LIG     1      15.458  32.091  18.998  1.00  0.00     0.027 C 
BRANCH   5   6
HETATM    6  C   LIG     1      14.955  32.671  17.669  1.00  0.00     0.002 C 
BRANCH   6   7
HETATM    7  C   LIG     1      13.637  32.031  17.195  1.00  0.00     0.000 C 
BRANCH   7   8
HETATM    8  C   LIG     1      13.798  30.896  16.169  1.00  0.00    -0.000 C 
BRANCH   8   9
HETATM    9  C   LIG     1      14.924  31.158  15.158  1.00  0.00    -0.005 C 
HETATM   10  C   LIG     1      15.070  29.993  14.183  1.00  0.00     0.005 C 
ENDBRANCH   8   9
ENDBRANCH   7   8
ENDBRANCH   6   7
ENDBRANCH   5   6
ENDBRANCH   4   5
ENDBRANCH   3   4
ENDBRANCH   1   3
BRANCH   1  11
HETATM   11  C   LIG     1      17.100  36.188  21.073  1.00  0.00     0.039 A 
HETATM   12  C   LIG     1      17.992  36.277  19.990  1.00  0.00     0.020 A 
HETATM   13  C   LIG     1      18.760  37.430  19.798  1.00  0.00     0.030 A 
HETATM   14  C   LIG     1      18.649  38.510  20.683  1.00  0.00     0.025 A 
HETATM   15  C   LIG     1      17.761  38.427  21.764  1.00  0.00     0.030 A 
HETATM   16  C   LIG     1      16.991  37.276  21.959  1.00  0.00     0.020 A 
BRANCH  14  17
HETATM   17  N   LIG     1      19.435  39.688  20.485  1.00  0.00    -0.399 N 
HETATM   18  H   LIG     1      19.162  40.593  20.928  1.00  0.00     0.156 HD
HETATM   19  H   LIG     1      20.296  39.662  19.895  1.00  0.00     0.156 HD
ENDBRANCH  14  17
ENDBRANCH   1  11
TORSDOF 9
ENDMDL
MODEL 5
REMARK VINA RESULT:      -6.9      4.343      8.465
REMARK  9 active torsions:
REMARK  status: ('A' for Active; 'I' for Inactive)
REMARK    1  A    between atoms: C_2  and  C_3 
REMARK    2  A    between atoms: C_3  and  C_4 
REMARK    3  A    between atoms: C_4  and  C_5 
REMARK    4  A    between atoms: C_5  and  C_6 
REMARK    5  A    between atoms: C_6  and  C_7 
REMARK    6  A    between atoms: C_7  and  O_8 
REMARK    7  A    between atoms: O_8  and  C_9 
REMARK    8  A    between atoms: C_9  and  C_10 
REMARK    9  A    between atoms: C_13  and  N_14 
ROOT
HETATM    1  C   LIG     1      15.646  32.672  16.173  1.00  0.00     0.293 C 
HETATM    2  O   LIG     1      16.061  33.617  15.447  1.00  0.00    -0.259 OA
ENDROOT
BRANCH   1   3
HETATM    3  O   LIG     1      15.914  32.666  17.549  1.00  0.00    -0.318 OA
BRANCH   3   4
HETATM    4  C   LIG     1      14.931  32.885  18.561  1.00  0.00     0.179 C 
BRANCH   4   5
HETATM    5  C   LIG     1      15.553  32.637  19.933  1.00  0.00     0.027 C 
BRANCH   5   6
HETATM    6  C   LIG     1      14.878  33.496  21.012  1.00  0.00     0.002 C 
BRANCH   6   7
HETATM    7  C   LIG     1      15.381  34.952  21.022  1.00  0.00     0.000 C 
BRANCH   7   8
HETATM    8  C   LIG     1      16.901  35.113  21.201  1.00  0.00    -0.000 C 
BRANCH   8   9
HETATM    9  C   LIG     1      17.361  36.576  21.124  1.00  0.00    -0.005 C 
HETATM   10  C   LIG     1      18.462  36.752  20.082  1.00  0.00     0.005 C 
ENDBRANCH   8   9
ENDBRANCH   7   8
ENDBRANCH   6   7
ENDBRANCH   5   6
ENDBRANCH   4   5
ENDBRANCH   3   4
ENDBRANCH   1   3
BRANCH   1  11
HETATM   11  C   LIG     1      14.876  31.561  15.573  1.00  0.00     0.039 A 
HETATM   12  C   LIG     1      13.591  31.248  16.052  1.00  0.00     0.020 A 
HETATM   13  C   LIG     1      12.860  30.198  15.486  1.00  0.00     0.030 A 
HETATM   14  C   LIG     1      13.401  29.446  14.436  1.00  0.00     0.025 A 
HETATM   15  C   LIG     1      14.680  29.753  13.954  1.00  0.00     0.030 A 
HETATM   16  C   LIG     1      15.413  30.802  14.517  1.00  0.00     0.020 A 
BRANCH  14  17
HETATM   17  N   LIG     1      12.653  28.372  13.859  1.00  0.00    -0.399 N 
HETATM   18  H   LIG     1      12.318  28.424  12.871  1.00  0.00     0.156 HD
HETATM   19  H   LIG     1      12.428  27.519  14.416  1.00  0.00     0.156 HD
ENDBRANCH  14  17
ENDBRANCH   1  11
TORSDOF 9
ENDMDL
MODEL 6
REMARK VINA RESULT:      -6.9      3.568      7.430
REMARK  9 active torsions:
REMARK  status: ('A' for Active; 'I' for Inactive)
REMARK    1  A    between atoms: C_2  and  C_3 
REMARK    2  A    between atoms: C_3  and  C_4 
REMARK    3  A    between atoms: C_4  and  C_5 
REMARK    4  A    between atoms: C_5  and  C_6 
REMARK    5  A    between atoms: C_6  and  C_7 
REMARK    6  A    between atoms: C_7  and  O_8 
REMARK    7  A    between atoms: O_8  and  C_9 
REMARK    8  A    between atoms: C_9  and  C_10 
REMARK    9  A    between atoms: C_13  and  N_14 
ROOT
HETATM    1  C   LIG     1      16.149  35.312  20.378  1.00  0.00     0.293 C 
HETATM    2  O   LIG     1      17.262  35.810  20.054  1.00  0.00    -0.259 OA
ENDROOT
BRANCH   1   3
HETATM    3  O   LIG     1      15.444  35.811  21.482  1.00  0.00    -0.318 OA
BRANCH   3   4
HETATM    4  C   LIG     1      15.760  37.031  22.154  1.00  0.00     0.179 C 
BRANCH   4   5
HETATM    5  C   LIG     1      16.850  36.769  23.191  1.00  0.00     0.027 C 
BRANCH   5   6
HETATM    6  C   LIG     1      17.378  38.082  23.785  1.00  0.00     0.002 C 
BRANCH   6   7
HETATM    7  C   LIG     1      17.497  38.042  25.320  1.00  0.00     0.000 C 
BRANCH   7   8
HETATM    8  C   LIG     1      18.654  37.183  25.860  1.00  0.00    -0.000 C 
BRANCH   8   9
HETATM    9  C   LIG     1      18.184  36.083  26.822  1.00  0.00    -0.005 C 
HETATM   10  C   LIG     1      17.899  34.783  26.075  1.00  0.00     0.005 C 
ENDBRANCH   8   9
ENDBRANCH   7   8
ENDBRANCH   6   7
ENDBRANCH   5   6
ENDBRANCH   4   5
ENDBRANCH   3   4
ENDBRANCH   1   3
BRANCH   1  11
HETATM   11  C   LIG     1      15.582  34.194  19.593  1.00  0.00     0.039 A 
HETATM   12  C   LIG     1      15.324  34.350  18.219  1.00  0.00     0.020 A 
HETATM   13  C   LIG     1      14.788  33.294  17.474  1.00  0.00     0.030 A 
HETATM   14  C   LIG     1      14.503  32.069  18.089  1.00  0.00     0.025 A 
HETATM   15  C   LIG     1      14.759  31.906  19.457  1.00  0.00     0.030 A 
HETATM   16  C   LIG     1      15.295  32.960  20.205  1.00  0.00     0.020 A 
BRANCH  14  17
HETATM   17  N   LIG     1      13.955  30.990  17.326  1.00  0.00    -0.399 N 
HETATM   18  H   LIG     1      14.141  30.912  16.302  1.00  0.00     0.156 HD
HETATM   19  H   LIG     1      13.360  30.263  17.782  1.00  0.00     0.156 HD
ENDBRANCH  14  17
ENDBRANCH   1  11
TORSDOF 9
ENDMDL
MODEL 7
REMARK VINA RESULT:      -6.7      6.649      9.704
REMARK  9 active torsions:
REMARK  status: ('A' for Active; 'I' for Inactive)
REMARK    1  A    between atoms: C_2  and  C_3 
REMARK    2  A    between atoms: C_3  and  C_4 
REMARK    3  A    between atoms: C_4  and  C_5 
REMARK    4  A    between atoms: C_5  and  C_6 
REMARK    5  A    between atoms: C_6  and  C_7 
REMARK    6  A    between atoms: C_7  and  O_8 
REMARK    7  A    between atoms: O_8  and  C_9 
REMARK    8  A    between atoms: C_9  and  C_10 
REMARK    9  A    between atoms: C_13  and  N_14 
ROOT
HETATM    1  C   LIG     1      16.031  32.790  16.026  1.00  0.00     0.293 C 
HETATM    2  O   LIG     1      15.648  33.486  17.006  1.00  0.00    -0.259 OA
ENDROOT
BRANCH   1   3
HETATM    3  O   LIG     1      17.270  33.041  15.421  1.00  0.00    -0.318 OA
BRANCH   3   4
HETATM    4  C   LIG     1      17.436  33.747  14.191  1.00  0.00     0.179 C 
BRANCH   4   5
HETATM    5  C   LIG     1      18.885  33.621  13.727  1.00  0.00     0.027 C 
BRANCH   5   6
HETATM    6  C   LIG     1      18.966  33.413  12.208  1.00  0.00     0.002 C 
BRANCH   6   7
HETATM    7  C   LIG     1      20.382  33.633  11.646  1.00  0.00     0.000 C 
BRANCH   7   8
HETATM    8  C   LIG     1      21.474  33.863  12.706  1.00  0.00    -0.000 C 
BRANCH   8   9
HETATM    9  C   LIG     1      22.156  35.232  12.575  1.00  0.00    -0.005 C 
HETATM   10  C   LIG     1      23.321  35.362  13.552  1.00  0.00     0.005 C 
ENDBRANCH   8   9
ENDBRANCH   7   8
ENDBRANCH   6   7
ENDBRANCH   5   6
ENDBRANCH   4   5
ENDBRANCH   3   4
ENDBRANCH   1   3
BRANCH   1  11
HETATM   11  C   LIG     1      15.169  31.705  15.507  1.00  0.00     0.039 A 
HETATM   12  C   LIG     1      15.562  30.966  14.377  1.00  0.00     0.020 A 
HETATM   13  C   LIG     1      14.750  29.940  13.884  1.00  0.00     0.030 A 
HETATM   14  C   LIG     1      13.535  29.636  14.512  1.00  0.00     0.025 A 
HETATM   15  C   LIG     1      13.139  30.368  15.639  1.00  0.00     0.030 A 
HETATM   16  C   LIG     1      13.949  31.395  16.134  1.00  0.00     0.020 A 
BRANCH  14  17
HETATM   17  N   LIG     1      12.705  28.586  14.007  1.00  0.00    -0.399 N 
HETATM   18  H   LIG     1      12.284  27.881  14.652  1.00  0.00     0.156 HD
HETATM   19  H   LIG     1      12.506  28.508  12.986  1.00  0.00     0.156 HD
ENDBRANCH  14  17
ENDBRANCH   1  11
TORSDOF 9
ENDMDL
MODEL 8
REMARK VINA RESULT:      -6.6      2.408      3.117
REMARK  9 active torsions:
REMARK  status: ('A' for Active; 'I' for Inactive)
REMARK    1  A    between atoms: C_2  and  C_3 
REMARK    2  A    between atoms: C_3  and  C_4 
REMARK    3  A    between atoms: C_4  and  C_5 
REMARK    4  A    between atoms: C_5  and  C_6 
REMARK    5  A    between atoms: C_6  and  C_7 
REMARK    6  A    between atoms: C_7  and  O_8 
REMARK    7  A    between atoms: O_8  and  C_9 
REMARK    8  A    between atoms: C_9  and  C_10 
REMARK    9  A    between atoms: C_13  and  N_14 
ROOT
HETATM    1  C   LIG     1      15.622  34.640  20.953  1.00  0.00     0.293 C 
HETATM    2  O   LIG     1      14.657  34.402  21.730  1.00  0.00    -0.259 OA
ENDROOT
BRANCH   1   3
HETATM    3  O   LIG     1      15.928  33.754  19.912  1.00  0.00    -0.318 OA
BRANCH   3   4
HETATM    4  C   LIG     1      15.572  32.371  19.901  1.00  0.00     0.179 C 
BRANCH   4   5
HETATM    5  C   LIG     1      14.768  32.065  18.640  1.00  0.00     0.027 C 
BRANCH   5   6
HETATM    6  C   LIG     1      15.089  33.067  17.521  1.00  0.00     0.002 C 
BRANCH   6   7
HETATM    7  C   LIG     1      15.270  32.395  16.147  1.00  0.00     0.000 C 
BRANCH   7   8
HETATM    8  C   LIG     1      16.509  32.855  15.358  1.00  0.00    -0.000 C 
BRANCH   8   9
HETATM    9  C   LIG     1      16.427  32.510  13.863  1.00  0.00    -0.005 C 
HETATM   10  C   LIG     1      17.503  33.246  13.070  1.00  0.00     0.005 C 
ENDBRANCH   8   9
ENDBRANCH   7   8
ENDBRANCH   6   7
ENDBRANCH   5   6
ENDBRANCH   4   5
ENDBRANCH   3   4
ENDBRANCH   1   3
BRANCH   1  11
HETATM   11  C   LIG     1      16.440  35.859  21.141  1.00  0.00     0.039 A 
HETATM   12  C   LIG     1      16.138  36.763  22.175  1.00  0.00     0.020 A 
HETATM   13  C   LIG     1      16.910  37.916  22.355  1.00  0.00     0.030 A 
HETATM   14  C   LIG     1      17.992  38.182  21.507  1.00  0.00     0.025 A 
HETATM   15  C   LIG     1      18.297  37.285  20.475  1.00  0.00     0.030 A 
HETATM   16  C   LIG     1      17.528  36.131  20.292  1.00  0.00     0.020 A 
BRANCH  14  17
HETATM   17  N   LIG     1      18.780  39.361  21.692  1.00  0.00    -0.399 N 
HETATM   18  H   LIG     1      18.542  40.051  22.440  1.00  0.00     0.156 HD
HETATM   19  H   LIG     1      19.605  39.553  21.082  1.00  0.00     0.156 HD
ENDBRANCH  14  17
ENDBRANCH   1  11
TORSDOF 9
ENDMDL
MODEL 9
REMARK VINA RESULT:      -6.5      3.678      7.156
REMARK  9 active torsions:
REMARK  status: ('A' for Active; 'I' for Inactive)
REMARK    1  A    between atoms: C_2  and  C_3 
REMARK    2  A    between atoms: C_3  and  C_4 
REMARK    3  A    between atoms: C_4  and  C_5 
REMARK    4  A    between atoms: C_5  and  C_6 
REMARK    5  A    between atoms: C_6  and  C_7 
REMARK    6  A    between atoms: C_7  and  O_8 
REMARK    7  A    between atoms: O_8  and  C_9 
REMARK    8  A    between atoms: C_9  and  C_10 
REMARK    9  A    between atoms: C_13  and  N_14 
ROOT
HETATM    1  C   LIG     1      14.854  32.508  17.540  1.00  0.00     0.293 C 
HETATM    2  O   LIG     1      13.844  31.766  17.681  1.00  0.00    -0.259 OA
ENDROOT
BRANCH   1   3
HETATM    3  O   LIG     1      15.333  33.265  18.618  1.00  0.00    -0.318 OA
BRANCH   3   4
HETATM    4  C   LIG     1      15.358  32.811  19.972  1.00  0.00     0.179 C 
BRANCH   4   5
HETATM    5  C   LIG     1      15.384  34.017  20.909  1.00  0.00     0.027 C 
BRANCH   5   6
HETATM    6  C   LIG     1      16.247  35.149  20.334  1.00  0.00     0.002 C 
BRANCH   6   7
HETATM    7  C   LIG     1      17.107  35.849  21.401  1.00  0.00     0.000 C 
BRANCH   7   8
HETATM    8  C   LIG     1      17.799  37.142  20.933  1.00  0.00    -0.000 C 
BRANCH   8   9
HETATM    9  C   LIG     1      18.727  36.922  19.729  1.00  0.00    -0.005 C 
HETATM   10  C   LIG     1      19.651  38.118  19.521  1.00  0.00     0.005 C 
ENDBRANCH   8   9
ENDBRANCH   7   8
ENDBRANCH   6   7
ENDBRANCH   5   6
ENDBRANCH   4   5
ENDBRANCH   3   4
ENDBRANCH   1   3
BRANCH   1  11
HETATM   11  C   LIG     1      15.538  32.586  16.230  1.00  0.00     0.039 A 
HETATM   12  C   LIG     1      16.495  33.588  15.988  1.00  0.00     0.020 A 
HETATM   13  C   LIG     1      17.143  33.663  14.751  1.00  0.00     0.030 A 
HETATM   14  C   LIG     1      16.846  32.741  13.739  1.00  0.00     0.025 A 
HETATM   15  C   LIG     1      15.894  31.740  13.975  1.00  0.00     0.030 A 
HETATM   16  C   LIG     1      15.244  31.662  15.211  1.00  0.00     0.020 A 
BRANCH  14  17
HETATM   17  N   LIG     1      17.510  32.820  12.475  1.00  0.00    -0.399 N 
HETATM   18  H   LIG     1      18.175  33.598  12.268  1.00  0.00     0.156 HD
HETATM   19  H   LIG     1      17.340  32.101  11.738  1.00  0.00     0.156 HD
ENDBRANCH  14  17
ENDBRANCH   1  11
TORSDOF 9
ENDMDL
MODEL 10
REMARK VINA RESULT:      -6.4      3.796      7.491
REMARK  9 active torsions:
REMARK  status: ('A' for Active; 'I' for Inactive)
REMARK    1  A    between atoms: C_2  and  C_3 
REMARK    2  A    between atoms: C_3  and  C_4 
REMARK    3  A    between atoms: C_4  and  C_5 
REMARK    4  A    between atoms: C_5  and  C_6 
REMARK    5  A    between atoms: C_6  and  C_7 
REMARK    6  A    between atoms: C_7  and  O_8 
REMARK    7  A    between atoms: O_8  and  C_9 
REMARK    8  A    between atoms: C_9  and  C_10 
REMARK    9  A    between atoms: C_13  and  N_14 
ROOT
HETATM    1  C   LIG     1      14.085  31.509  17.307  1.00  0.00     0.293 C 
HETATM    2  O   LIG     1      13.211  30.602  17.236  1.00  0.00    -0.259 OA
ENDROOT
BRANCH   1   3
HETATM    3  O   LIG     1      14.281  32.211  18.504  1.00  0.00    -0.318 OA
BRANCH   3   4
HETATM    4  C   LIG     1      15.461  32.123  19.303  1.00  0.00     0.179 C 
BRANCH   4   5
HETATM    5  C   LIG     1      15.448  33.236  20.349  1.00  0.00     0.027 C 
BRANCH   5   6
HETATM    6  C   LIG     1      15.700  34.606  19.705  1.00  0.00     0.002 C 
BRANCH   6   7
HETATM    7  C   LIG     1      16.528  35.547  20.599  1.00  0.00     0.000 C 
BRANCH   7   8
HETATM    8  C   LIG     1      16.743  35.051  22.040  1.00  0.00    -0.000 C 
BRANCH   8   9
HETATM    9  C   LIG     1      16.866  36.198  23.055  1.00  0.00    -0.005 C 
HETATM   10  C   LIG     1      16.188  37.464  22.539  1.00  0.00     0.005 C 
ENDBRANCH   8   9
ENDBRANCH   7   8
ENDBRANCH   6   7
ENDBRANCH   5   6
ENDBRANCH   4   5
ENDBRANCH   3   4
ENDBRANCH   1   3
BRANCH   1  11
HETATM   11  C   LIG     1      14.906  31.840  16.121  1.00  0.00     0.039 A 
HETATM   12  C   LIG     1      14.841  31.040  14.967  1.00  0.00     0.020 A 
HETATM   13  C   LIG     1      15.616  31.351  13.845  1.00  0.00     0.030 A 
HETATM   14  C   LIG     1      16.467  32.463  13.859  1.00  0.00     0.025 A 
HETATM   15  C   LIG     1      16.536  33.265  15.007  1.00  0.00     0.030 A 
HETATM   16  C   LIG     1      15.762  32.957  16.130  1.00  0.00     0.020 A 
BRANCH  14  17
HETATM   17  N   LIG     1      17.260  32.780  12.712  1.00  0.00    -0.399 N 
HETATM   18  H   LIG     1      18.288  32.938  12.799  1.00  0.00     0.156 HD
HETATM   19  H   LIG     1      16.823  32.857  11.767  1.00  0.00     0.156 HD
ENDBRANCH  14  17
ENDBRANCH   1  11
TORSDOF 9
ENDMDL
MODEL 11
REMARK VINA RESULT:      -6.3      3.230      4.554
REMARK  9 active torsions:
REMARK  status: ('A' for Active; 'I' for Inactive)
REMARK    1  A    between atoms: C_2  and  C_3 
REMARK    2  A    between atoms: C_3  and  C_4 
REMARK    3  A    between atoms: C_4  and  C_5 
REMARK    4  A    between atoms: C_5  and  C_6 
REMARK    5  A    between atoms: C_6  and  C_7 
REMARK    6  A    between atoms: C_7  and  O_8 
REMARK    7  A    between atoms: O_8  and  C_9 
REMARK    8  A    between atoms: C_9  and  C_10 
REMARK    9  A    between atoms: C_13  and  N_14 
ROOT
HETATM    1  C   LIG     1      17.809  38.006  25.242  1.00  0.00     0.293 C 
HETATM    2  O   LIG     1      16.884  38.529  25.922  1.00  0.00    -0.259 OA
ENDROOT
BRANCH   1   3
HETATM    3  O   LIG     1      18.631  37.019  25.805  1.00  0.00    -0.318 OA
BRANCH   3   4
HETATM    4  C   LIG     1      18.167  35.985  26.673  1.00  0.00     0.179 C 
BRANCH   4   5
HETATM    5  C   LIG     1      17.182  35.095  25.918  1.00  0.00     0.027 C 
BRANCH   5   6
HETATM    6  C   LIG     1      17.703  34.758  24.514  1.00  0.00     0.002 C 
BRANCH   6   7
HETATM    7  C   LIG     1      16.707  35.129  23.399  1.00  0.00     0.000 C 
BRANCH   7   8
HETATM    8  C   LIG     1      17.287  35.099  21.973  1.00  0.00    -0.000 C 
BRANCH   8   9
HETATM    9  C   LIG     1      16.203  35.095  20.887  1.00  0.00    -0.005 C 
HETATM   10  C   LIG     1      14.928  34.418  21.384  1.00  0.00     0.005 C 
ENDBRANCH   8   9
ENDBRANCH   7   8
ENDBRANCH   6   7
ENDBRANCH   5   6
ENDBRANCH   4   5
ENDBRANCH   3   4
ENDBRANCH   1   3
BRANCH   1  11
HETATM   11  C   LIG     1      18.033  38.434  23.844  1.00  0.00     0.039 A 
HETATM   12  C   LIG     1      16.959  38.489  22.938  1.00  0.00     0.020 A 
HETATM   13  C   LIG     1      17.167  38.894  21.616  1.00  0.00     0.030 A 
HETATM   14  C   LIG     1      18.450  39.250  21.179  1.00  0.00     0.025 A 
HETATM   15  C   LIG     1      19.524  39.198  22.077  1.00  0.00     0.030 A 
HETATM   16  C   LIG     1      19.318  38.793  23.400  1.00  0.00     0.020 A 
BRANCH  14  17
HETATM   17  N   LIG     1      18.662  39.663  19.826  1.00  0.00    -0.399 N 
HETATM   18  H   LIG     1      19.534  39.397  19.317  1.00  0.00     0.156 HD
HETATM   19  H   LIG     1      17.948  40.237  19.326  1.00  0.00     0.156 HD
ENDBRANCH  14  17
ENDBRANCH   1  11
TORSDOF 9
ENDMDL
MODEL 12
REMARK VINA RESULT:      -6.1      6.147      7.835
REMARK  9 active torsions:
REMARK  status: ('A' for Active; 'I' for Inactive)
REMARK    1  A    between atoms: C_2  and  C_3 
REMARK    2  A    between atoms: C_3  and  C_4 
REMARK    3  A    between atoms: C_4  and  C_5 
REMARK    4  A    between atoms: C_5  and  C_6 
REMARK    5  A    between atoms: C_6  and  C_7 
REMARK    6  A    between atoms: C_7  and  O_8 
REMARK    7  A    between atoms: O_8  and  C_9 
REMARK    8  A    between atoms: C_9  and  C_10 
REMARK    9  A    between atoms: C_13  and  N_14 
ROOT
HETATM    1  C   LIG     1      17.472  33.504  14.147  1.00  0.00     0.293 C 
HETATM    2  O   LIG     1      17.027  34.380  14.938  1.00  0.00    -0.259 OA
ENDROOT
BRANCH   1   3
HETATM    3  O   LIG     1      17.077  32.165  14.279  1.00  0.00    -0.318 OA
BRANCH   3   4
HETATM    4  C   LIG     1      15.795  31.664  13.900  1.00  0.00     0.179 C 
BRANCH   4   5
HETATM    5  C   LIG     1      15.658  30.218  14.374  1.00  0.00     0.027 C 
BRANCH   5   6
HETATM    6  C   LIG     1      14.199  29.745  14.293  1.00  0.00     0.002 C 
BRANCH   6   7
HETATM    7  C   LIG     1      13.249  30.572  15.178  1.00  0.00     0.000 C 
BRANCH   7   8
HETATM    8  C   LIG     1      13.662  30.675  16.657  1.00  0.00    -0.000 C 
BRANCH   8   9
HETATM    9  C   LIG     1      13.678  32.121  17.174  1.00  0.00    -0.005 C 
HETATM   10  C   LIG     1      15.105  32.606  17.409  1.00  0.00     0.005 C 
ENDBRANCH   8   9
ENDBRANCH   7   8
ENDBRANCH   6   7
ENDBRANCH   5   6
ENDBRANCH   4   5
ENDBRANCH   3   4
ENDBRANCH   1   3
BRANCH   1  11
HETATM   11  C   LIG     1      18.418  33.886  13.076  1.00  0.00     0.039 A 
HETATM   12  C   LIG     1      19.795  33.643  13.225  1.00  0.00     0.020 A 
HETATM   13  C   LIG     1      20.691  34.004  12.213  1.00  0.00     0.030 A 
HETATM   14  C   LIG     1      20.226  34.611  11.040  1.00  0.00     0.025 A 
HETATM   15  C   LIG     1      18.855  34.855  10.885  1.00  0.00     0.030 A 
HETATM   16  C   LIG     1      17.956  34.496  11.895  1.00  0.00     0.020 A 
BRANCH  14  17
HETATM   17  N   LIG     1      21.144  34.979  10.006  1.00  0.00    -0.399 N 
HETATM   18  H   LIG     1      22.102  34.563   9.969  1.00  0.00     0.156 HD
HETATM   19  H   LIG     1      20.872  35.669   9.272  1.00  0.00     0.156 HD
ENDBRANCH  14  17
ENDBRANCH   1  11
TORSDOF 9
ENDMDL
MODEL 13
REMARK VINA RESULT:      -6.0      2.680      6.781
REMARK  9 active torsions:
REMARK  status: ('A' for Active; 'I' for Inactive)
REMARK    1  A    between atoms: C_2  and  C_3 
REMARK    2  A    between atoms: C_3  and  C_4 
REMARK    3  A    between atoms: C_4  and  C_5 
REMARK    4  A    between atoms: C_5  and  C_6 
REMARK    5  A    between atoms: C_6  and  C_7 
REMARK    6  A    between atoms: C_7  and  O_8 
REMARK    7  A    between atoms: O_8  and  C_9 
REMARK    8  A    between atoms: C_9  and  C_10 
REMARK    9  A    between atoms: C_13  and  N_14 
ROOT
HETATM    1  C   LIG     1      15.364  34.688  21.076  1.00  0.00     0.293 C 
HETATM    2  O   LIG     1      14.346  35.275  21.533  1.00  0.00    -0.259 OA
ENDROOT
BRANCH   1   3
HETATM    3  O   LIG     1      16.562  34.676  21.804  1.00  0.00    -0.318 OA
BRANCH   3   4
HETATM    4  C   LIG     1      17.061  35.787  22.549  1.00  0.00     0.179 C 
BRANCH   4   5
HETATM    5  C   LIG     1      17.313  36.959  21.602  1.00  0.00     0.027 C 
BRANCH   5   6
HETATM    6  C   LIG     1      17.264  38.298  22.352  1.00  0.00     0.002 C 
BRANCH   6   7
HETATM    7  C   LIG     1      18.499  39.179  22.089  1.00  0.00     0.000 C 
BRANCH   7   8
HETATM    8  C   LIG     1      18.698  39.599  20.621  1.00  0.00    -0.000 C 
BRANCH   8   9
HETATM    9  C   LIG     1      19.921  38.937  19.971  1.00  0.00    -0.005 C 
HETATM   10  C   LIG     1      19.514  37.722  19.142  1.00  0.00     0.005 C 
ENDBRANCH   8   9
ENDBRANCH   7   8
ENDBRANCH   6   7
ENDBRANCH   5   6
ENDBRANCH   4   5
ENDBRANCH   3   4
ENDBRANCH   1   3
BRANCH   1  11
HETATM   11  C   LIG     1      15.299  34.008  19.763  1.00  0.00     0.039 A 
HETATM   12  C   LIG     1      15.171  32.610  19.693  1.00  0.00     0.020 A 
HETATM   13  C   LIG     1      15.109  31.965  18.453  1.00  0.00     0.030 A 
HETATM   14  C   LIG     1      15.176  32.707  17.267  1.00  0.00     0.025 A 
HETATM   15  C   LIG     1      15.304  34.101  17.330  1.00  0.00     0.030 A 
HETATM   16  C   LIG     1      15.365  34.748  18.568  1.00  0.00     0.020 A 
BRANCH  14  17
HETATM   17  N   LIG     1      15.113  32.046  16.000  1.00  0.00    -0.399 N 
HETATM   18  H   LIG     1      14.615  31.134  15.896  1.00  0.00     0.156 HD
HETATM   19  H   LIG     1      15.565  32.465  15.157  1.00  0.00     0.156 HD
ENDBRANCH  14  17
ENDBRANCH   1  11
TORSDOF 9
ENDMDL
MODEL 14
REMARK VINA RESULT:      -5.8      5.686      9.798
REMARK  9 active torsions:
REMARK  status: ('A' for Active; 'I' for Inactive)
REMARK    1  A    between atoms: C_2  and  C_3 
REMARK    2  A    between atoms: C_3  and  C_4 
REMARK    3  A    between atoms: C_4  and  C_5 
REMARK    4  A    between atoms: C_5  and  C_6 
REMARK    5  A    between atoms: C_6  and  C_7 
REMARK    6  A    between atoms: C_7  and  O_8 
REMARK    7  A    between atoms: O_8  and  C_9 
REMARK    8  A    between atoms: C_9  and  C_10 
REMARK    9  A    between atoms: C_13  and  N_14 
ROOT
HETATM    1  C   LIG     1      15.420  30.935  14.685  1.00  0.00     0.293 C 
HETATM    2  O   LIG     1      16.489  31.220  14.078  1.00  0.00    -0.259 OA
ENDROOT
BRANCH   1   3
HETATM    3  O   LIG     1      14.970  31.739  15.741  1.00  0.00    -0.318 OA
BRANCH   3   4
HETATM    4  C   LIG     1      15.702  32.837  16.286  1.00  0.00     0.179 C 
BRANCH   4   5
HETATM    5  C   LIG     1      15.031  33.303  17.576  1.00  0.00     0.027 C 
BRANCH   5   6
HETATM    6  C   LIG     1      14.691  32.114  18.486  1.00  0.00     0.002 C 
BRANCH   6   7
HETATM    7  C   LIG     1      15.307  32.239  19.892  1.00  0.00     0.000 C 
BRANCH   7   8
HETATM    8  C   LIG     1      15.765  33.657  20.276  1.00  0.00    -0.000 C 
BRANCH   8   9
HETATM    9  C   LIG     1      14.925  34.271  21.405  1.00  0.00    -0.005 C 
HETATM   10  C   LIG     1      14.902  35.794  21.308  1.00  0.00     0.005 C 
ENDBRANCH   8   9
ENDBRANCH   7   8
ENDBRANCH   6   7
ENDBRANCH   5   6
ENDBRANCH   4   5
ENDBRANCH   3   4
ENDBRANCH   1   3
BRANCH   1  11
HETATM   11  C   LIG     1      14.637  29.745  14.285  1.00  0.00     0.039 A 
HETATM   12  C   LIG     1      15.288  28.595  13.804  1.00  0.00     0.020 A 
HETATM   13  C   LIG     1      14.550  27.469  13.426  1.00  0.00     0.030 A 
HETATM   14  C   LIG     1      13.152  27.475  13.521  1.00  0.00     0.025 A 
HETATM   15  C   LIG     1      12.498  28.618  14.000  1.00  0.00     0.030 A 
HETATM   16  C   LIG     1      13.233  29.745  14.379  1.00  0.00     0.020 A 
BRANCH  14  17
HETATM   17  N   LIG     1      12.399  26.323  13.133  1.00  0.00    -0.399 N 
HETATM   18  H   LIG     1      11.735  26.365  12.328  1.00  0.00     0.156 HD
HETATM   19  H   LIG     1      12.500  25.421  13.649  1.00  0.00     0.156 HD
ENDBRANCH  14  17
ENDBRANCH   1  11
TORSDOF 9
ENDMDL
MODEL 15
REMARK VINA RESULT:      -5.7      3.020      4.077
REMARK  9 active torsions:
REMARK  status: ('A' for Active; 'I' for Inactive)
REMARK    1  A    between atoms: C_2  and  C_3 
REMARK    2  A    between atoms: C_3  and  C_4 
REMARK    3  A    between atoms: C_4  and  C_5 
REMARK    4  A    between atoms: C_5  and  C_6 
REMARK    5  A    between atoms: C_6  and  C_7 
REMARK    6  A    between atoms: C_7  and  O_8 
REMARK    7  A    between atoms: O_8  and  C_9 
REMARK    8  A    between atoms: C_9  and  C_10 
REMARK    9  A    between atoms: C_13  and  N_14 
ROOT
HETATM    1  C   LIG     1      15.646  33.520  19.932  1.00  0.00     0.293 C 
HETATM    2  O   LIG     1      16.227  32.434  20.202  1.00  0.00    -0.259 OA
ENDROOT
BRANCH   1   3
HETATM    3  O   LIG     1      14.858  33.634  18.779  1.00  0.00    -0.318 OA
BRANCH   3   4
HETATM    4  C   LIG     1      15.294  34.244  17.563  1.00  0.00     0.179 C 
BRANCH   4   5
HETATM    5  C   LIG     1      15.080  33.272  16.405  1.00  0.00     0.027 C 
BRANCH   5   6
HETATM    6  C   LIG     1      14.671  31.883  16.914  1.00  0.00     0.002 C 
BRANCH   6   7
HETATM    7  C   LIG     1      13.313  31.415  16.357  1.00  0.00     0.000 C 
BRANCH   7   8
HETATM    8  C   LIG     1      13.392  30.283  15.318  1.00  0.00    -0.000 C 
BRANCH   8   9
HETATM    9  C   LIG     1      14.643  30.371  14.432  1.00  0.00    -0.005 C 
HETATM   10  C   LIG     1      15.106  28.984  13.994  1.00  0.00     0.005 C 
ENDBRANCH   8   9
ENDBRANCH   7   8
ENDBRANCH   6   7
ENDBRANCH   5   6
ENDBRANCH   4   5
ENDBRANCH   3   4
ENDBRANCH   1   3
BRANCH   1  11
HETATM   11  C   LIG     1      15.796  34.684  20.833  1.00  0.00     0.039 A 
HETATM   12  C   LIG     1      14.701  35.526  21.094  1.00  0.00     0.020 A 
HETATM   13  C   LIG     1      14.840  36.627  21.946  1.00  0.00     0.030 A 
HETATM   14  C   LIG     1      16.074  36.902  22.548  1.00  0.00     0.025 A 
HETATM   15  C   LIG     1      17.169  36.067  22.293  1.00  0.00     0.030 A 
HETATM   16  C   LIG     1      17.033  34.965  21.442  1.00  0.00     0.020 A 
BRANCH  14  17
HETATM   17  N   LIG     1      16.215  38.028  23.419  1.00  0.00    -0.399 N 
HETATM   18  H   LIG     1      16.571  37.909  24.393  1.00  0.00     0.156 HD
HETATM   19  H   LIG     1      15.965  38.988  23.094  1.00  0.00     0.156 HD
ENDBRANCH  14  17
ENDBRANCH   1  11
TORSDOF 9
ENDMDL
MODEL 16
REMARK VINA RESULT:      -5.6      3.377      6.777
REMARK  9 active torsions:
REMARK  status: ('A' for Active; 'I' for Inactive)
REMARK    1  A    between atoms: C_2  and  C_3 
REMARK    2  A    between atoms: C_3  and  C_4 
REMARK    3  A    between atoms: C_4  and  C_5 
REMARK    4  A    between atoms: C_5  and  C_6 
REMARK    5  A    between atoms: C_6  and  C_7 
REMARK    6  A    between atoms: C_7  and  O_8 
REMARK    7  A    between atoms: O_8  and  C_9 
REMARK    8  A    between atoms: C_9  and  C_10 
REMARK    9  A    between atoms: C_13  and  N_14 
ROOT
HETATM    1  C   LIG     1      17.227  36.745  20.901  1.00  0.00     0.293 C 
HETATM    2  O   LIG     1      18.320  36.986  20.320  1.00  0.00    -0.259 OA
ENDROOT
BRANCH   1   3
HETATM    3  O   LIG     1      16.726  37.633  21.863  1.00  0.00    -0.318 OA
BRANCH   3   4
HETATM    4  C   LIG     1      17.407  38.807  22.307  1.00  0.00     0.179 C 
BRANCH   4   5
HETATM    5  C   LIG     1      18.420  38.427  23.384  1.00  0.00     0.027 C 
BRANCH   5   6
HETATM    6  C   LIG     1      17.740  38.252  24.749  1.00  0.00     0.002 C 
BRANCH   6   7
HETATM    7  C   LIG     1      16.737  37.084  24.775  1.00  0.00     0.000 C 
BRANCH   7   8
HETATM    8  C   LIG     1      17.361  35.687  24.610  1.00  0.00    -0.000 C 
BRANCH   8   9
HETATM    9  C   LIG     1      17.352  34.870  25.910  1.00  0.00    -0.005 C 
HETATM   10  C   LIG     1      18.736  34.840  26.551  1.00  0.00     0.005 C 
ENDBRANCH   8   9
ENDBRANCH   7   8
ENDBRANCH   6   7
ENDBRANCH   5   6
ENDBRANCH   4   5
ENDBRANCH   3   4
ENDBRANCH   1   3
BRANCH   1  11
HETATM   11  C   LIG     1      16.467  35.519  20.570  1.00  0.00     0.039 A 
HETATM   12  C   LIG     1      15.969  34.695  21.595  1.00  0.00     0.020 A 
HETATM   13  C   LIG     1      15.250  33.536  21.285  1.00  0.00     0.030 A 
HETATM   14  C   LIG     1      15.020  33.183  19.949  1.00  0.00     0.025 A 
HETATM   15  C   LIG     1      15.513  34.000  18.924  1.00  0.00     0.030 A 
HETATM   16  C   LIG     1      16.232  35.160  19.230  1.00  0.00     0.020 A 
BRANCH  14  17
HETATM   17  N   LIG     1      14.285  31.997  19.634  1.00  0.00    -0.399 N 
HETATM   18  H   LIG     1      13.780  31.467  20.379  1.00  0.00     0.156 HD
HETATM   19  H   LIG     1      14.241  31.641  18.654  1.00  0.00     0.156 HD
ENDBRANCH  14  17
ENDBRANCH   1  11
TORSDOF 9
ENDMDL
MODEL 17
REMARK VINA RESULT:      -5.5      5.396      8.053
REMARK  9 active torsions:
REMARK  status: ('A' for Active; 'I' for Inactive)
REMARK    1  A    between atoms: C_2  and  C_3 
REMARK    2  A    between atoms: C_3  and  C_4 
REMARK    3  A    between atoms: C_4  and  C_5 
REMARK    4  A    between atoms: C_5  and  C_6 
REMARK    5  A    between atoms: C_6  and  C_7 
REMARK    6  A    between atoms: C_7  and  O_8 
REMARK    7  A    between atoms: O_8  and  C_9 
REMARK    8  A    between atoms: C_9  and  C_10 
REMARK    9  A    between atoms: C_13  and  N_14 
ROOT
HETATM    1  C   LIG     1      14.951  29.393  14.156  1.00  0.00     0.293 C 
HETATM    2  O   LIG     1      15.396  28.419  13.491  1.00  0.00    -0.259 OA
ENDROOT
BRANCH   1   3
HETATM    3  O   LIG     1      13.749  29.275  14.868  1.00  0.00    -0.318 OA
BRANCH   3   4
HETATM    4  C   LIG     1      12.858  30.360  15.127  1.00  0.00     0.179 C 
BRANCH   4   5
HETATM    5  C   LIG     1      12.912  30.716  16.611  1.00  0.00     0.027 C 
BRANCH   5   6
HETATM    6  C   LIG     1      13.139  32.221  16.813  1.00  0.00     0.002 C 
BRANCH   6   7
HETATM    7  C   LIG     1      14.383  32.531  17.666  1.00  0.00     0.000 C 
BRANCH   7   8
HETATM    8  C   LIG     1      14.572  31.624  18.894  1.00  0.00    -0.000 C 
BRANCH   8   9
HETATM    9  C   LIG     1      15.736  32.068  19.793  1.00  0.00    -0.005 C 
HETATM   10  C   LIG     1      15.520  33.488  20.310  1.00  0.00     0.005 C 
ENDBRANCH   8   9
ENDBRANCH   7   8
ENDBRANCH   6   7
ENDBRANCH   5   6
ENDBRANCH   4   5
ENDBRANCH   3   4
ENDBRANCH   1   3
BRANCH   1  11
HETATM   11  C   LIG     1      15.697  30.671  14.187  1.00  0.00     0.039 A 
HETATM   12  C   LIG     1      15.728  31.502  13.053  1.00  0.00     0.020 A 
HETATM   13  C   LIG     1      16.432  32.710  13.079  1.00  0.00     0.030 A 
HETATM   14  C   LIG     1      17.114  33.106  14.236  1.00  0.00     0.025 A 
HETATM   15  C   LIG     1      17.087  32.282  15.369  1.00  0.00     0.030 A 
HETATM   16  C   LIG     1      16.384  31.073  15.346  1.00  0.00     0.020 A 
BRANCH  14  17
HETATM   17  N   LIG     1      17.834  34.341  14.261  1.00  0.00    -0.399 N 
HETATM   18  H   LIG     1      17.383  35.215  14.613  1.00  0.00     0.156 HD
HETATM   19  H   LIG     1      18.822  34.390  13.928  1.00  0.00     0.156 HD
ENDBRANCH  14  17
ENDBRANCH   1  11
TORSDOF 9
ENDMDL
MODEL 18
REMARK VINA RESULT:      -5.2      3.118      4.568
REMARK  9 active torsions:
REMARK  status: ('A' for Active; 'I' for Inactive)
REMARK    1  A    between atoms: C_2  and  C_3 
REMARK    2  A    between atoms: C_3  and  C_4 
REMARK    3  A    between atoms: C_4  and  C_5 
REMARK    4  A    between atoms: C_5  and  C_6 
REMARK    5  A    between atoms: C_6  and  C_7 
REMARK    6  A    between atoms: C_7  and  O_8 
REMARK    7  A    between atoms: O_8  and  C_9 
REMARK    8  A    between atoms: C_9  and  C_10 
REMARK    9  A    between atoms: C_13  and  N_14 
ROOT
HETATM    1  C   LIG     1      15.637  32.929  19.949  1.00  0.00     0.293 C 
HETATM    2  O   LIG     1      16.495  32.012  20.071  1.00  0.00    -0.259 OA
ENDROOT
BRANCH   1   3
HETATM    3  O   LIG     1      14.554  32.773  19.074  1.00  0.00    -0.318 OA
BRANCH   3   4
HETATM    4  C   LIG     1      14.681  32.489  17.680  1.00  0.00     0.179 C 
BRANCH   4   5
HETATM    5  C   LIG     1      13.971  31.173  17.365  1.00  0.00     0.027 C 
BRANCH   5   6
HETATM    6  C   LIG     1      13.358  31.197  15.958  1.00  0.00     0.002 C 
BRANCH   6   7
HETATM    7  C   LIG     1      14.151  30.354  14.943  1.00  0.00     0.000 C 
BRANCH   7   8
HETATM    8  C   LIG     1      15.637  30.732  14.804  1.00  0.00    -0.000 C 
BRANCH   8   9
HETATM    9  C   LIG     1      15.845  32.124  14.188  1.00  0.00    -0.005 C 
HETATM   10  C   LIG     1      17.125  32.770  14.708  1.00  0.00     0.005 C 
ENDBRANCH   8   9
ENDBRANCH   7   8
ENDBRANCH   6   7
ENDBRANCH   5   6
ENDBRANCH   4   5
ENDBRANCH   3   4
ENDBRANCH   1   3
BRANCH   1  11
HETATM   11  C   LIG     1      15.773  34.178  20.731  1.00  0.00     0.039 A 
HETATM   12  C   LIG     1      16.950  34.437  21.456  1.00  0.00     0.020 A 
HETATM   13  C   LIG     1      17.080  35.617  22.196  1.00  0.00     0.030 A 
HETATM   14  C   LIG     1      16.039  36.554  22.222  1.00  0.00     0.025 A 
HETATM   15  C   LIG     1      14.864  36.301  21.502  1.00  0.00     0.030 A 
HETATM   16  C   LIG     1      14.731  35.122  20.761  1.00  0.00     0.020 A 
BRANCH  14  17
HETATM   17  N   LIG     1      16.174  37.759  22.980  1.00  0.00    -0.399 N 
HETATM   18  H   LIG     1      16.957  38.424  22.791  1.00  0.00     0.156 HD
HETATM   19  H   LIG     1      15.492  37.995  23.733  1.00  0.00     0.156 HD
ENDBRANCH  14  17
ENDBRANCH   1  11
TORSDOF 9
ENDMDL
MODEL 19
REMARK VINA RESULT:      -4.9      5.983      7.728
REMARK  9 active torsions:
REMARK  status: ('A' for Active; 'I' for Inactive)
REMARK    1  A    between atoms: C_2  and  C_3 
REMARK    2  A    between atoms: C_3  and  C_4 
REMARK    3  A    between atoms: C_4  and  C_5 
REMARK    4  A    between atoms: C_5  and  C_6 
REMARK    5  A    between atoms: C_6  and  C_7 
REMARK    6  A    between atoms: C_7  and  O_8 
REMARK    7  A    between atoms: O_8  and  C_9 
REMARK    8  A    between atoms: C_9  and  C_10 
REMARK    9  A    between atoms: C_13  and  N_14 
ROOT
HETATM    1  C   LIG     1      17.101  33.258  13.877  1.00  0.00     0.293 C 
HETATM    2  O   LIG     1      16.077  32.722  13.372  1.00  0.00    -0.259 OA
ENDROOT
BRANCH   1   3
HETATM    3  O   LIG     1      17.211  33.407  15.266  1.00  0.00    -0.318 OA
BRANCH   3   4
HETATM    4  C   LIG     1      16.141  33.819  16.118  1.00  0.00     0.179 C 
BRANCH   4   5
HETATM    5  C   LIG     1      15.342  32.593  16.554  1.00  0.00     0.027 C 
BRANCH   5   6
HETATM    6  C   LIG     1      15.321  32.459  18.083  1.00  0.00     0.002 C 
BRANCH   6   7
HETATM    7  C   LIG     1      15.289  33.820  18.804  1.00  0.00     0.000 C 
BRANCH   7   8
HETATM    8  C   LIG     1      15.622  33.768  20.306  1.00  0.00    -0.000 C 
BRANCH   8   9
HETATM    9  C   LIG     1      15.629  35.154  20.966  1.00  0.00    -0.005 C 
HETATM   10  C   LIG     1      17.033  35.753  20.972  1.00  0.00     0.005 C 
ENDBRANCH   8   9
ENDBRANCH   7   8
ENDBRANCH   6   7
ENDBRANCH   5   6
ENDBRANCH   4   5
ENDBRANCH   3   4
ENDBRANCH   1   3
BRANCH   1  11
HETATM   11  C   LIG     1      18.194  33.736  13.001  1.00  0.00     0.039 A 
HETATM   12  C   LIG     1      19.537  33.525  13.363  1.00  0.00     0.020 A 
HETATM   13  C   LIG     1      20.572  33.975  12.537  1.00  0.00     0.030 A 
HETATM   14  C   LIG     1      20.282  34.642  11.340  1.00  0.00     0.025 A 
HETATM   15  C   LIG     1      18.946  34.855  10.974  1.00  0.00     0.030 A 
HETATM   16  C   LIG     1      17.909  34.406  11.798  1.00  0.00     0.020 A 
BRANCH  14  17
HETATM   17  N   LIG     1      21.342  35.103  10.497  1.00  0.00    -0.399 N 
HETATM   18  H   LIG     1      22.338  34.892  10.727  1.00  0.00     0.156 HD
HETATM   19  H   LIG     1      21.136  35.658   9.637  1.00  0.00     0.156 HD
ENDBRANCH  14  17
ENDBRANCH   1  11
TORSDOF 9
ENDMDL
