REMARK  3 active torsions:
REMARK  status: ('A' for Active; 'I' for Inactive)
REMARK    1  A    between atoms: C_2  and  C_4 
REMARK    2  A    between atoms: C_2  and  O_3 
REMARK    3  A    between atoms: C_4  and  O_5 
ROOT
HETATM    1  O   LIG     1      -0.343   1.705   0.172  1.00  0.00    -0.642 OA
HETATM    2  C   LIG     1      -0.564   0.474   0.032  1.00  0.00     0.243 C 
ENDROOT
BRANCH   2   3
HETATM    3  C   LIG     1       0.564  -0.474  -0.032  1.00  0.00     0.243 C 
HETATM    4  O   LIG     1       0.343  -1.705  -0.172  1.00  0.00    -0.642 OA
BRANCH   3   5
HETATM    5  O   LIG     1       1.880  -0.028   0.061  1.00  0.00    -0.768 OA
HETATM    6  H   LIG     1       2.105   0.953   0.175  1.00  0.00     0.168 HD
ENDBRANCH   3   5
ENDBRANCH   2   3
BRANCH   2   7
HETATM    7  O   LIG     1      -1.880   0.028  -0.061  1.00  0.00    -0.768 OA
HETATM    8  H   LIG     1      -2.105  -0.953  -0.175  1.00  0.00     0.168 HD
ENDBRANCH   2   7
TORSDOF 3
