MODEL 1
REMARK VINA RESULT:      -4.4      0.000      0.000
REMARK  3 active torsions:
REMARK  status: ('A' for Active; 'I' for Inactive)
REMARK    1  A    between atoms: C_2  and  C_4 
REMARK    2  A    between atoms: C_2  and  O_3 
REMARK    3  A    between atoms: C_4  and  O_5 
ROOT
HETATM    1  O   LIG     1      12.478  30.226  26.324  1.00  0.00    -0.642 OA
HETATM    2  C   LIG     1      13.007  30.781  27.321  1.00  0.00     0.243 C 
ENDROOT
BRANCH   2   3
HETATM    3  C   LIG     1      13.135  32.250  27.366  1.00  0.00     0.243 C 
HETATM    4  O   LIG     1      14.273  32.780  27.443  1.00  0.00    -0.642 OA
BRANCH   3   5
HETATM    5  O   LIG     1      12.008  33.067  27.324  1.00  0.00    -0.768 OA
HETATM    6  H   LIG     1      11.577  33.427  28.167  1.00  0.00     0.168 HD
ENDBRANCH   3   5
ENDBRANCH   2   3
BRANCH   2   7
HETATM    7  O   LIG     1      13.467  29.991  28.372  1.00  0.00    -0.768 OA
HETATM    8  H   LIG     1      13.389  28.981  28.355  1.00  0.00     0.168 HD
ENDBRANCH   2   7
TORSDOF 3
ENDMDL
MODEL 2
REMARK VINA RESULT:      -4.3      0.142      2.775
REMARK  3 active torsions:
REMARK  status: ('A' for Active; 'I' for Inactive)
REMARK    1  A    between atoms: C_2  and  C_4 
REMARK    2  A    between atoms: C_2  and  O_3 
REMARK    3  A    between atoms: C_4  and  O_5 
ROOT
HETATM    1  O   LIG     1      12.168  32.956  27.208  1.00  0.00    -0.642 OA
HETATM    2  C   LIG     1      13.164  32.208  27.393  1.00  0.00     0.243 C 
ENDROOT
BRANCH   2   3
HETATM    3  C   LIG     1      12.998  30.743  27.370  1.00  0.00     0.243 C 
HETATM    4  O   LIG     1      12.421  30.191  26.397  1.00  0.00    -0.642 OA
BRANCH   3   5
HETATM    5  O   LIG     1      13.472  29.952  28.414  1.00  0.00    -0.768 OA
HETATM    6  H   LIG     1      14.364  30.133  28.858  1.00  0.00     0.168 HD
ENDBRANCH   3   5
ENDBRANCH   2   3
BRANCH   2   7
HETATM    7  O   LIG     1      14.411  32.784  27.618  1.00  0.00    -0.768 OA
HETATM    8  H   LIG     1      15.257  32.406  27.208  1.00  0.00     0.168 HD
ENDBRANCH   2   7
TORSDOF 3
ENDMDL
MODEL 3
REMARK VINA RESULT:      -3.9      7.452      8.062
REMARK  3 active torsions:
REMARK  status: ('A' for Active; 'I' for Inactive)
REMARK    1  A    between atoms: C_2  and  C_4 
REMARK    2  A    between atoms: C_2  and  O_3 
REMARK    3  A    between atoms: C_4  and  O_5 
ROOT
HETATM    1  O   LIG     1      17.092  37.220  22.694  1.00  0.00    -0.642 OA
HETATM    2  C   LIG     1      16.481  37.635  23.713  1.00  0.00     0.243 C 
ENDROOT
BRANCH   2   3
HETATM    3  C   LIG     1      17.153  37.635  25.026  1.00  0.00     0.243 C 
HETATM    4  O   LIG     1      17.633  36.567  25.486  1.00  0.00    -0.642 OA
BRANCH   3   5
HETATM    5  O   LIG     1      17.266  38.805  25.772  1.00  0.00    -0.768 OA
HETATM    6  H   LIG     1      16.528  39.499  25.793  1.00  0.00     0.168 HD
ENDBRANCH   3   5
ENDBRANCH   2   3
BRANCH   2   7
HETATM    7  O   LIG     1      15.172  38.091  23.579  1.00  0.00    -0.768 OA
HETATM    8  H   LIG     1      14.875  38.983  23.956  1.00  0.00     0.168 HD
ENDBRANCH   2   7
TORSDOF 3
ENDMDL
MODEL 4
REMARK VINA RESULT:      -3.8      7.591      8.013
REMARK  3 active torsions:
REMARK  status: ('A' for Active; 'I' for Inactive)
REMARK    1  A    between atoms: C_2  and  C_4 
REMARK    2  A    between atoms: C_2  and  O_3 
REMARK    3  A    between atoms: C_4  and  O_5 
ROOT
HETATM    1  O   LIG     1      17.935  36.666  25.577  1.00  0.00    -0.642 OA
HETATM    2  C   LIG     1      17.270  37.628  25.112  1.00  0.00     0.243 C 
ENDROOT
BRANCH   2   3
HETATM    3  C   LIG     1      16.531  37.468  23.846  1.00  0.00     0.243 C 
HETATM    4  O   LIG     1      17.020  36.776  22.916  1.00  0.00    -0.642 OA
BRANCH   3   5
HETATM    5  O   LIG     1      15.291  38.076  23.659  1.00  0.00    -0.768 OA
HETATM    6  H   LIG     1      14.424  37.564  23.767  1.00  0.00     0.168 HD
ENDBRANCH   3   5
ENDBRANCH   2   3
BRANCH   2   7
HETATM    7  O   LIG     1      17.245  38.834  25.808  1.00  0.00    -0.768 OA
HETATM    8  H   LIG     1      16.846  38.907  26.736  1.00  0.00     0.168 HD
ENDBRANCH   2   7
TORSDOF 3
ENDMDL
MODEL 5
REMARK VINA RESULT:      -3.8      6.124      7.082
REMARK  3 active torsions:
REMARK  status: ('A' for Active; 'I' for Inactive)
REMARK    1  A    between atoms: C_2  and  C_4 
REMARK    2  A    between atoms: C_2  and  O_3 
REMARK    3  A    between atoms: C_4  and  O_5 
ROOT
HETATM    1  O   LIG     1      17.283  35.003  24.178  1.00  0.00    -0.642 OA
HETATM    2  C   LIG     1      17.288  35.779  25.168  1.00  0.00     0.243 C 
ENDROOT
BRANCH   2   3
HETATM    3  C   LIG     1      17.327  37.239  24.960  1.00  0.00     0.243 C 
HETATM    4  O   LIG     1      16.294  37.846  24.574  1.00  0.00    -0.642 OA
BRANCH   3   5
HETATM    5  O   LIG     1      18.496  37.962  25.183  1.00  0.00    -0.768 OA
HETATM    6  H   LIG     1      19.109  38.233  24.424  1.00  0.00     0.168 HD
ENDBRANCH   3   5
ENDBRANCH   2   3
BRANCH   2   7
HETATM    7  O   LIG     1      17.257  35.240  26.452  1.00  0.00    -0.768 OA
HETATM    8  H   LIG     1      17.133  34.248  26.612  1.00  0.00     0.168 HD
ENDBRANCH   2   7
TORSDOF 3
ENDMDL
MODEL 6
REMARK VINA RESULT:      -3.7      6.483      7.631
REMARK  3 active torsions:
REMARK  status: ('A' for Active; 'I' for Inactive)
REMARK    1  A    between atoms: C_2  and  C_4 
REMARK    2  A    between atoms: C_2  and  O_3 
REMARK    3  A    between atoms: C_4  and  O_5 
ROOT
HETATM    1  O   LIG     1      16.213  37.882  24.481  1.00  0.00    -0.642 OA
HETATM    2  C   LIG     1      17.322  37.440  24.879  1.00  0.00     0.243 C 
ENDROOT
BRANCH   2   3
HETATM    3  C   LIG     1      17.418  36.069  25.416  1.00  0.00     0.243 C 
HETATM    4  O   LIG     1      17.319  35.083  24.641  1.00  0.00    -0.642 OA
BRANCH   3   5
HETATM    5  O   LIG     1      17.618  35.845  26.776  1.00  0.00    -0.768 OA
HETATM    6  H   LIG     1      17.833  36.600  27.416  1.00  0.00     0.168 HD
ENDBRANCH   3   5
ENDBRANCH   2   3
BRANCH   2   7
HETATM    7  O   LIG     1      18.445  38.260  24.806  1.00  0.00    -0.768 OA
HETATM    8  H   LIG     1      19.213  38.059  24.177  1.00  0.00     0.168 HD
ENDBRANCH   2   7
TORSDOF 3
ENDMDL
MODEL 7
REMARK VINA RESULT:      -3.6     14.059     14.510
REMARK  3 active torsions:
REMARK  status: ('A' for Active; 'I' for Inactive)
REMARK    1  A    between atoms: C_2  and  C_4 
REMARK    2  A    between atoms: C_2  and  O_3 
REMARK    3  A    between atoms: C_4  and  O_5 
ROOT
HETATM    1  O   LIG     1      17.449  34.946  12.644  1.00  0.00    -0.642 OA
HETATM    2  C   LIG     1      17.648  33.830  13.191  1.00  0.00     0.243 C 
ENDROOT
BRANCH   2   3
HETATM    3  C   LIG     1      17.561  33.702  14.657  1.00  0.00     0.243 C 
HETATM    4  O   LIG     1      17.961  32.651  15.221  1.00  0.00    -0.642 OA
BRANCH   3   5
HETATM    5  O   LIG     1      17.038  34.732  15.436  1.00  0.00    -0.768 OA
HETATM    6  H   LIG     1      17.583  35.182  16.162  1.00  0.00     0.168 HD
ENDBRANCH   3   5
ENDBRANCH   2   3
BRANCH   2   7
HETATM    7  O   LIG     1      17.952  32.730  12.393  1.00  0.00    -0.768 OA
HETATM    8  H   LIG     1      17.282  32.344  11.738  1.00  0.00     0.168 HD
ENDBRANCH   2   7
TORSDOF 3
ENDMDL
MODEL 8
REMARK VINA RESULT:      -3.6     14.069     14.531
REMARK  3 active torsions:
REMARK  status: ('A' for Active; 'I' for Inactive)
REMARK    1  A    between atoms: C_2  and  C_4 
REMARK    2  A    between atoms: C_2  and  O_3 
REMARK    3  A    between atoms: C_4  and  O_5 
ROOT
HETATM    1  O   LIG     1      17.136  34.707  15.338  1.00  0.00    -0.642 OA
HETATM    2  C   LIG     1      17.545  33.737  14.648  1.00  0.00     0.243 C 
ENDROOT
BRANCH   2   3
HETATM    3  C   LIG     1      17.652  33.868  13.183  1.00  0.00     0.243 C 
HETATM    4  O   LIG     1      17.441  34.981  12.635  1.00  0.00    -0.642 OA
BRANCH   3   5
HETATM    5  O   LIG     1      17.985  32.773  12.389  1.00  0.00    -0.768 OA
HETATM    6  H   LIG     1      18.612  32.047  12.715  1.00  0.00     0.168 HD
ENDBRANCH   3   5
ENDBRANCH   2   3
BRANCH   2   7
HETATM    7  O   LIG     1      17.890  32.549  15.288  1.00  0.00    -0.768 OA
HETATM    8  H   LIG     1      17.274  31.744  15.288  1.00  0.00     0.168 HD
ENDBRANCH   2   7
TORSDOF 3
ENDMDL
MODEL 9
REMARK VINA RESULT:      -3.6     11.321     12.385
REMARK  3 active torsions:
REMARK  status: ('A' for Active; 'I' for Inactive)
REMARK    1  A    between atoms: C_2  and  C_4 
REMARK    2  A    between atoms: C_2  and  O_3 
REMARK    3  A    between atoms: C_4  and  O_5 
ROOT
HETATM    1  O   LIG     1      18.308  37.703  20.637  1.00  0.00    -0.642 OA
HETATM    2  C   LIG     1      19.021  38.740  20.616  1.00  0.00     0.243 C 
ENDROOT
BRANCH   2   3
HETATM    3  C   LIG     1      19.487  39.287  19.328  1.00  0.00     0.243 C 
HETATM    4  O   LIG     1      18.651  39.681  18.474  1.00  0.00    -0.642 OA
BRANCH   3   5
HETATM    5  O   LIG     1      20.846  39.376  19.037  1.00  0.00    -0.768 OA
HETATM    6  H   LIG     1      21.364  38.592  18.659  1.00  0.00     0.168 HD
ENDBRANCH   3   5
ENDBRANCH   2   3
BRANCH   2   7
HETATM    7  O   LIG     1      19.359  39.354  21.819  1.00  0.00    -0.768 OA
HETATM    8  H   LIG     1      18.656  39.729  22.444  1.00  0.00     0.168 HD
ENDBRANCH   2   7
TORSDOF 3
ENDMDL
MODEL 10
REMARK VINA RESULT:      -3.5      7.125      8.057
REMARK  3 active torsions:
REMARK  status: ('A' for Active; 'I' for Inactive)
REMARK    1  A    between atoms: C_2  and  C_4 
REMARK    2  A    between atoms: C_2  and  O_3 
REMARK    3  A    between atoms: C_4  and  O_5 
ROOT
HETATM    1  O   LIG     1      17.158  38.663  25.423  1.00  0.00    -0.642 OA
HETATM    2  C   LIG     1      16.951  37.553  24.866  1.00  0.00     0.243 C 
ENDROOT
BRANCH   2   3
HETATM    3  C   LIG     1      16.484  37.508  23.468  1.00  0.00     0.243 C 
HETATM    4  O   LIG     1      15.529  38.241  23.100  1.00  0.00    -0.642 OA
BRANCH   3   5
HETATM    5  O   LIG     1      17.084  36.660  22.540  1.00  0.00    -0.768 OA
HETATM    6  H   LIG     1      18.067  36.732  22.308  1.00  0.00     0.168 HD
ENDBRANCH   3   5
ENDBRANCH   2   3
BRANCH   2   7
HETATM    7  O   LIG     1      17.169  36.382  25.586  1.00  0.00    -0.768 OA
HETATM    8  H   LIG     1      16.742  36.223  26.491  1.00  0.00     0.168 HD
ENDBRANCH   2   7
TORSDOF 3
ENDMDL
MODEL 11
REMARK VINA RESULT:      -3.5      7.221      7.595
REMARK  3 active torsions:
REMARK  status: ('A' for Active; 'I' for Inactive)
REMARK    1  A    between atoms: C_2  and  C_4 
REMARK    2  A    between atoms: C_2  and  O_3 
REMARK    3  A    between atoms: C_4  and  O_5 
ROOT
HETATM    1  O   LIG     1      15.701  32.684  18.777  1.00  0.00    -0.642 OA
HETATM    2  C   LIG     1      15.099  32.696  19.883  1.00  0.00     0.243 C 
ENDROOT
BRANCH   2   3
HETATM    3  C   LIG     1      15.266  33.840  20.799  1.00  0.00     0.243 C 
HETATM    4  O   LIG     1      16.387  34.400  20.907  1.00  0.00    -0.642 OA
BRANCH   3   5
HETATM    5  O   LIG     1      14.196  34.313  21.555  1.00  0.00    -0.768 OA
HETATM    6  H   LIG     1      13.743  33.741  22.257  1.00  0.00     0.168 HD
ENDBRANCH   3   5
ENDBRANCH   2   3
BRANCH   2   7
HETATM    7  O   LIG     1      14.281  31.621  20.221  1.00  0.00    -0.768 OA
HETATM    8  H   LIG     1      14.110  30.857  19.578  1.00  0.00     0.168 HD
ENDBRANCH   2   7
TORSDOF 3
ENDMDL
MODEL 12
REMARK VINA RESULT:      -3.5      7.297      7.853
REMARK  3 active torsions:
REMARK  status: ('A' for Active; 'I' for Inactive)
REMARK    1  A    between atoms: C_2  and  C_4 
REMARK    2  A    between atoms: C_2  and  O_3 
REMARK    3  A    between atoms: C_4  and  O_5 
ROOT
HETATM    1  O   LIG     1      17.174  36.699  21.600  1.00  0.00    -0.642 OA
HETATM    2  C   LIG     1      16.833  36.538  22.800  1.00  0.00     0.243 C 
ENDROOT
BRANCH   2   3
HETATM    3  C   LIG     1      16.173  37.635  23.532  1.00  0.00     0.243 C 
HETATM    4  O   LIG     1      16.463  37.850  24.738  1.00  0.00    -0.642 OA
BRANCH   3   5
HETATM    5  O   LIG     1      15.226  38.444  22.908  1.00  0.00    -0.768 OA
HETATM    6  H   LIG     1      14.506  38.926  23.433  1.00  0.00     0.168 HD
ENDBRANCH   3   5
ENDBRANCH   2   3
BRANCH   2   7
HETATM    7  O   LIG     1      17.089  35.317  23.419  1.00  0.00    -0.768 OA
HETATM    8  H   LIG     1      17.749  34.652  23.036  1.00  0.00     0.168 HD
ENDBRANCH   2   7
TORSDOF 3
ENDMDL
MODEL 13
REMARK VINA RESULT:      -3.5      8.249      9.416
REMARK  3 active torsions:
REMARK  status: ('A' for Active; 'I' for Inactive)
REMARK    1  A    between atoms: C_2  and  C_4 
REMARK    2  A    between atoms: C_2  and  O_3 
REMARK    3  A    between atoms: C_4  and  O_5 
ROOT
HETATM    1  O   LIG     1      16.310  38.023  24.491  1.00  0.00    -0.642 OA
HETATM    2  C   LIG     1      17.516  38.218  24.189  1.00  0.00     0.243 C 
ENDROOT
BRANCH   2   3
HETATM    3  C   LIG     1      17.868  38.697  22.840  1.00  0.00     0.243 C 
HETATM    4  O   LIG     1      17.010  38.670  21.919  1.00  0.00    -0.642 OA
BRANCH   3   5
HETATM    5  O   LIG     1      19.144  39.182  22.563  1.00  0.00    -0.768 OA
HETATM    6  H   LIG     1      19.678  39.703  23.248  1.00  0.00     0.168 HD
ENDBRANCH   3   5
ENDBRANCH   2   3
BRANCH   2   7
HETATM    7  O   LIG     1      18.501  37.976  25.143  1.00  0.00    -0.768 OA
HETATM    8  H   LIG     1      19.480  38.159  24.958  1.00  0.00     0.168 HD
ENDBRANCH   2   7
TORSDOF 3
ENDMDL
MODEL 14
REMARK VINA RESULT:      -3.4      9.638     10.030
REMARK  3 active torsions:
REMARK  status: ('A' for Active; 'I' for Inactive)
REMARK    1  A    between atoms: C_2  and  C_4 
REMARK    2  A    between atoms: C_2  and  O_3 
REMARK    3  A    between atoms: C_4  and  O_5 
ROOT
HETATM    1  O   LIG     1      13.501  30.974  17.153  1.00  0.00    -0.642 OA
HETATM    2  C   LIG     1      14.167  31.795  17.835  1.00  0.00     0.243 C 
ENDROOT
BRANCH   2   3
HETATM    3  C   LIG     1      14.897  32.888  17.166  1.00  0.00     0.243 C 
HETATM    4  O   LIG     1      16.049  32.683  16.703  1.00  0.00    -0.642 OA
BRANCH   3   5
HETATM    5  O   LIG     1      14.330  34.153  17.036  1.00  0.00    -0.768 OA
HETATM    6  H   LIG     1      13.382  34.283  16.705  1.00  0.00     0.168 HD
ENDBRANCH   3   5
ENDBRANCH   2   3
BRANCH   2   7
HETATM    7  O   LIG     1      14.203  31.654  19.220  1.00  0.00    -0.768 OA
HETATM    8  H   LIG     1      13.700  30.914  19.695  1.00  0.00     0.168 HD
ENDBRANCH   2   7
TORSDOF 3
ENDMDL
MODEL 15
REMARK VINA RESULT:      -3.4      9.178      9.774
REMARK  3 active torsions:
REMARK  status: ('A' for Active; 'I' for Inactive)
REMARK    1  A    between atoms: C_2  and  C_4 
REMARK    2  A    between atoms: C_2  and  O_3 
REMARK    3  A    between atoms: C_4  and  O_5 
ROOT
HETATM    1  O   LIG     1      15.666  32.822  18.500  1.00  0.00    -0.642 OA
HETATM    2  C   LIG     1      14.647  32.083  18.499  1.00  0.00     0.243 C 
ENDROOT
BRANCH   2   3
HETATM    3  C   LIG     1      13.889  31.876  17.250  1.00  0.00     0.243 C 
HETATM    4  O   LIG     1      14.493  31.544  16.197  1.00  0.00    -0.642 OA
BRANCH   3   5
HETATM    5  O   LIG     1      12.507  32.043  17.216  1.00  0.00    -0.768 OA
HETATM    6  H   LIG     1      12.076  32.834  16.754  1.00  0.00     0.168 HD
ENDBRANCH   3   5
ENDBRANCH   2   3
BRANCH   2   7
HETATM    7  O   LIG     1      14.252  31.471  19.686  1.00  0.00    -0.768 OA
HETATM    8  H   LIG     1      14.493  31.856  20.591  1.00  0.00     0.168 HD
ENDBRANCH   2   7
TORSDOF 3
ENDMDL
MODEL 16
REMARK VINA RESULT:      -3.4     10.147     10.636
REMARK  3 active torsions:
REMARK  status: ('A' for Active; 'I' for Inactive)
REMARK    1  A    between atoms: C_2  and  C_4 
REMARK    2  A    between atoms: C_2  and  O_3 
REMARK    3  A    between atoms: C_4  and  O_5 
ROOT
HETATM    1  O   LIG     1      15.650  32.554  18.767  1.00  0.00    -0.642 OA
HETATM    2  C   LIG     1      14.833  32.610  17.812  1.00  0.00     0.243 C 
ENDROOT
BRANCH   2   3
HETATM    3  C   LIG     1      15.158  33.401  16.610  1.00  0.00     0.243 C 
HETATM    4  O   LIG     1      15.113  34.657  16.653  1.00  0.00    -0.642 OA
BRANCH   3   5
HETATM    5  O   LIG     1      15.516  32.776  15.418  1.00  0.00    -0.768 OA
HETATM    6  H   LIG     1      15.387  31.781  15.276  1.00  0.00     0.168 HD
ENDBRANCH   3   5
ENDBRANCH   2   3
BRANCH   2   7
HETATM    7  O   LIG     1      13.627  31.920  17.910  1.00  0.00    -0.768 OA
HETATM    8  H   LIG     1      13.244  31.638  18.804  1.00  0.00     0.168 HD
ENDBRANCH   2   7
TORSDOF 3
ENDMDL
MODEL 17
REMARK VINA RESULT:      -3.4      7.449      8.185
REMARK  3 active torsions:
REMARK  status: ('A' for Active; 'I' for Inactive)
REMARK    1  A    between atoms: C_2  and  C_4 
REMARK    2  A    between atoms: C_2  and  O_3 
REMARK    3  A    between atoms: C_4  and  O_5 
ROOT
HETATM    1  O   LIG     1      14.603  33.953  21.535  1.00  0.00    -0.642 OA
HETATM    2  C   LIG     1      15.356  33.760  20.546  1.00  0.00     0.243 C 
ENDROOT
BRANCH   2   3
HETATM    3  C   LIG     1      15.142  32.590  19.674  1.00  0.00     0.243 C 
HETATM    4  O   LIG     1      15.717  32.526  18.556  1.00  0.00    -0.642 OA
BRANCH   3   5
HETATM    5  O   LIG     1      14.309  31.546  20.068  1.00  0.00    -0.768 OA
HETATM    6  H   LIG     1      13.532  31.237  19.496  1.00  0.00     0.168 HD
ENDBRANCH   3   5
ENDBRANCH   2   3
BRANCH   2   7
HETATM    7  O   LIG     1      16.386  34.663  20.292  1.00  0.00    -0.768 OA
HETATM    8  H   LIG     1      16.514  35.086  19.381  1.00  0.00     0.168 HD
ENDBRANCH   2   7
TORSDOF 3
ENDMDL
MODEL 18
REMARK VINA RESULT:      -3.3     10.065     10.626
REMARK  3 active torsions:
REMARK  status: ('A' for Active; 'I' for Inactive)
REMARK    1  A    between atoms: C_2  and  C_4 
REMARK    2  A    between atoms: C_2  and  O_3 
REMARK    3  A    between atoms: C_4  and  O_5 
ROOT
HETATM    1  O   LIG     1      15.237  34.548  16.553  1.00  0.00    -0.642 OA
HETATM    2  C   LIG     1      15.194  33.294  16.652  1.00  0.00     0.243 C 
ENDROOT
BRANCH   2   3
HETATM    3  C   LIG     1      14.863  32.668  17.946  1.00  0.00     0.243 C 
HETATM    4  O   LIG     1      15.633  32.815  18.930  1.00  0.00    -0.642 OA
BRANCH   3   5
HETATM    5  O   LIG     1      13.703  31.912  18.099  1.00  0.00    -0.768 OA
HETATM    6  H   LIG     1      13.735  30.915  18.277  1.00  0.00     0.168 HD
ENDBRANCH   3   5
ENDBRANCH   2   3
BRANCH   2   7
HETATM    7  O   LIG     1      15.465  32.516  15.529  1.00  0.00    -0.768 OA
HETATM    8  H   LIG     1      14.736  32.004  15.046  1.00  0.00     0.168 HD
ENDBRANCH   2   7
TORSDOF 3
ENDMDL
MODEL 19
REMARK VINA RESULT:      -3.3      9.454     10.029
REMARK  3 active torsions:
REMARK  status: ('A' for Active; 'I' for Inactive)
REMARK    1  A    between atoms: C_2  and  C_4 
REMARK    2  A    between atoms: C_2  and  O_3 
REMARK    3  A    between atoms: C_4  and  O_5 
ROOT
HETATM    1  O   LIG     1      12.537  31.578  17.005  1.00  0.00    -0.642 OA
HETATM    2  C   LIG     1      13.795  31.588  16.973  1.00  0.00     0.243 C 
ENDROOT
BRANCH   2   3
HETATM    3  C   LIG     1      14.559  32.013  18.161  1.00  0.00     0.243 C 
HETATM    4  O   LIG     1      15.564  32.759  18.028  1.00  0.00    -0.642 OA
BRANCH   3   5
HETATM    5  O   LIG     1      14.185  31.601  19.438  1.00  0.00    -0.768 OA
HETATM    6  H   LIG     1      13.221  31.398  19.673  1.00  0.00     0.168 HD
ENDBRANCH   3   5
ENDBRANCH   2   3
BRANCH   2   7
HETATM    7  O   LIG     1      14.447  31.195  15.807  1.00  0.00    -0.768 OA
HETATM    8  H   LIG     1      14.268  31.645  14.917  1.00  0.00     0.168 HD
ENDBRANCH   2   7
TORSDOF 3
ENDMDL
MODEL 20
REMARK VINA RESULT:      -3.2      7.705      8.872
REMARK  3 active torsions:
REMARK  status: ('A' for Active; 'I' for Inactive)
REMARK    1  A    between atoms: C_2  and  C_4 
REMARK    2  A    between atoms: C_2  and  O_3 
REMARK    3  A    between atoms: C_4  and  O_5 
ROOT
HETATM    1  O   LIG     1      16.988  36.755  24.297  1.00  0.00    -0.642 OA
HETATM    2  C   LIG     1      16.515  37.563  23.457  1.00  0.00     0.243 C 
ENDROOT
BRANCH   2   3
HETATM    3  C   LIG     1      17.321  37.967  22.289  1.00  0.00     0.243 C 
HETATM    4  O   LIG     1      17.545  37.142  21.365  1.00  0.00    -0.642 OA
BRANCH   3   5
HETATM    5  O   LIG     1      17.843  39.254  22.190  1.00  0.00    -0.768 OA
HETATM    6  H   LIG     1      18.438  39.646  22.911  1.00  0.00     0.168 HD
ENDBRANCH   3   5
ENDBRANCH   2   3
BRANCH   2   7
HETATM    7  O   LIG     1      15.230  38.066  23.648  1.00  0.00    -0.768 OA
HETATM    8  H   LIG     1      14.406  37.498  23.491  1.00  0.00     0.168 HD
ENDBRANCH   2   7
TORSDOF 3
ENDMDL
