REMARK  2 active torsions:
REMARK  status: ('A' for Active; 'I' for Inactive)
REMARK    1  A    between atoms: O_1  and  C_2 
REMARK    2  A    between atoms: C_20  and  C_21 
ROOT
HETATM    1  C   LIG     1      -4.995   0.006   0.166  1.00  0.00     0.122 C 
HETATM    2  C   LIG     1      -4.236  -1.221   0.733  1.00  0.00     0.066 C 
HETATM    3  C   LIG     1      -4.083   1.240   0.008  1.00  0.00     0.033 C 
HETATM    4  C   LIG     1      -2.853   0.966  -0.887  1.00  0.00     0.016 C 
HETATM    5  C   LIG     1      -2.155  -0.420  -0.635  1.00  0.00    -0.017 C 
HETATM    6  C   LIG     1      -2.480  -1.385  -1.808  1.00  0.00     0.020 C 
HETATM    7  C   LIG     1      -2.730  -1.040   0.657  1.00  0.00    -0.072 C 
HETATM    8  C   LIG     1      -1.990  -1.232   1.783  1.00  0.00    -0.023 C 
HETATM    9  C   LIG     1      -0.537  -0.836   1.911  1.00  0.00     0.033 C 
HETATM   10  C   LIG     1      -0.201   0.245   0.879  1.00  0.00    -0.001 C 
HETATM   11  C   LIG     1      -0.593  -0.288  -0.524  1.00  0.00     0.003 C 
HETATM   12  C   LIG     1       0.138   0.498  -1.650  1.00  0.00     0.007 C 
HETATM   13  C   LIG     1       1.687   0.351  -1.559  1.00  0.00     0.011 C 
HETATM   14  C   LIG     1       2.230   0.165  -0.101  1.00  0.00    -0.030 C 
HETATM   15  C   LIG     1       2.512  -1.343   0.196  1.00  0.00     0.016 C 
HETATM   16  C   LIG     1       1.248   0.805   0.894  1.00  0.00    -0.001 C 
HETATM   17  C   LIG     1       2.012   0.946   2.204  1.00  0.00     0.006 C 
HETATM   18  C   LIG     1       3.472   1.164   1.765  1.00  0.00     0.013 C 
HETATM   19  C   LIG     1       3.501   0.995   0.221  1.00  0.00     0.063 C 
ENDROOT
BRANCH  19  20
HETATM   20  C   LIG     1       4.790   0.445  -0.373  1.00  0.00     0.128 C 
HETATM   21  C   LIG     1       5.952   0.001   0.469  1.00  0.00     0.091 C 
HETATM   22  O   LIG     1       4.885   0.364  -1.588  1.00  0.00    -0.298 OA
ENDBRANCH  19  20
BRANCH   1  23
HETATM   23  O   LIG     1      -5.582  -0.321  -1.068  1.00  0.00    -0.395 OA
HETATM   24  H   LIG     1      -6.270   0.370  -1.254  1.00  0.00     0.210 HD
ENDBRANCH   1  23
TORSDOF 2
