MODEL 1
REMARK VINA RESULT:      -5.7      0.000      0.000
REMARK  2 active torsions:
REMARK  status: ('A' for Active; 'I' for Inactive)
REMARK    1  A    between atoms: O_1  and  C_2 
REMARK    2  A    between atoms: C_20  and  C_21 
ROOT
HETATM    1  C   LIG     1      27.309  31.284  36.978  1.00  0.00     0.122 C 
HETATM    2  C   LIG     1      28.633  30.491  36.836  1.00  0.00     0.066 C 
HETATM    3  C   LIG     1      26.538  31.384  35.646  1.00  0.00     0.033 C 
HETATM    4  C   LIG     1      26.221  30.002  35.030  1.00  0.00     0.016 C 
HETATM    5  C   LIG     1      27.401  28.965  35.106  1.00  0.00    -0.017 C 
HETATM    6  C   LIG     1      27.082  27.896  36.186  1.00  0.00     0.020 C 
HETATM    7  C   LIG     1      28.686  29.703  35.539  1.00  0.00    -0.072 C 
HETATM    8  C   LIG     1      29.770  29.848  34.729  1.00  0.00    -0.023 C 
HETATM    9  C   LIG     1      29.831  29.335  33.308  1.00  0.00     0.033 C 
HETATM   10  C   LIG     1      28.412  29.151  32.761  1.00  0.00    -0.001 C 
HETATM   11  C   LIG     1      27.634  28.229  33.737  1.00  0.00     0.003 C 
HETATM   12  C   LIG     1      26.392  27.598  33.046  1.00  0.00     0.007 C 
HETATM   13  C   LIG     1      26.786  26.697  31.837  1.00  0.00     0.011 C 
HETATM   14  C   LIG     1      28.087  27.154  31.093  1.00  0.00    -0.030 C 
HETATM   15  C   LIG     1      29.316  26.308  31.557  1.00  0.00     0.016 C 
HETATM   16  C   LIG     1      28.283  28.666  31.291  1.00  0.00    -0.001 C 
HETATM   17  C   LIG     1      29.296  29.098  30.240  1.00  0.00     0.006 C 
HETATM   18  C   LIG     1      29.044  28.141  29.060  1.00  0.00     0.013 C 
HETATM   19  C   LIG     1      27.991  27.108  29.545  1.00  0.00     0.063 C 
ENDROOT
BRANCH  19  20
HETATM   20  C   LIG     1      28.086  25.714  28.941  1.00  0.00     0.128 C 
HETATM   21  C   LIG     1      26.966  24.715  29.012  1.00  0.00     0.091 C 
HETATM   22  O   LIG     1      29.120  25.391  28.377  1.00  0.00    -0.298 OA
ENDBRANCH  19  20
BRANCH   1  23
HETATM   23  O   LIG     1      26.498  30.690  37.961  1.00  0.00    -0.395 OA
HETATM   24  H   LIG     1      25.959  31.417  38.370  1.00  0.00     0.210 HD
ENDBRANCH   1  23
TORSDOF 2
ENDMDL
MODEL 2
REMARK VINA RESULT:      -5.5     12.221     14.550
REMARK  2 active torsions:
REMARK  status: ('A' for Active; 'I' for Inactive)
REMARK    1  A    between atoms: O_1  and  C_2 
REMARK    2  A    between atoms: C_20  and  C_21 
ROOT
HETATM    1  C   LIG     1      28.697  26.324  17.851  1.00  0.00     0.122 C 
HETATM    2  C   LIG     1      28.435  24.878  17.357  1.00  0.00     0.066 C 
HETATM    3  C   LIG     1      27.758  26.731  19.005  1.00  0.00     0.033 C 
HETATM    4  C   LIG     1      27.845  25.773  20.215  1.00  0.00     0.016 C 
HETATM    5  C   LIG     1      27.910  24.248  19.841  1.00  0.00    -0.017 C 
HETATM    6  C   LIG     1      29.351  23.718  20.074  1.00  0.00     0.020 C 
HETATM    7  C   LIG     1      27.587  24.089  18.339  1.00  0.00    -0.072 C 
HETATM    8  C   LIG     1      26.473  23.455  17.881  1.00  0.00    -0.023 C 
HETATM    9  C   LIG     1      25.414  22.863  18.781  1.00  0.00     0.033 C 
HETATM   10  C   LIG     1      25.475  23.526  20.161  1.00  0.00    -0.001 C 
HETATM   11  C   LIG     1      26.921  23.381  20.702  1.00  0.00     0.003 C 
HETATM   12  C   LIG     1      26.967  23.570  22.246  1.00  0.00     0.007 C 
HETATM   13  C   LIG     1      26.125  22.493  22.995  1.00  0.00     0.011 C 
HETATM   14  C   LIG     1      24.881  21.979  22.193  1.00  0.00    -0.030 C 
HETATM   15  C   LIG     1      25.196  20.614  21.500  1.00  0.00     0.016 C 
HETATM   16  C   LIG     1      24.423  23.067  21.209  1.00  0.00    -0.001 C 
HETATM   17  C   LIG     1      23.017  22.675  20.776  1.00  0.00     0.006 C 
HETATM   18  C   LIG     1      22.435  21.952  22.005  1.00  0.00     0.013 C 
HETATM   19  C   LIG     1      23.588  21.835  23.039  1.00  0.00     0.063 C 
ENDROOT
BRANCH  19  20
HETATM   20  C   LIG     1      23.554  20.618  23.952  1.00  0.00     0.128 C 
HETATM   21  C   LIG     1      22.639  19.449  23.721  1.00  0.00     0.091 C 
HETATM   22  O   LIG     1      24.301  20.592  24.918  1.00  0.00    -0.298 OA
ENDBRANCH  19  20
BRANCH   1  23
HETATM   23  O   LIG     1      30.038  26.458  18.251  1.00  0.00    -0.395 OA
HETATM   24  H   LIG     1      30.060  27.151  18.962  1.00  0.00     0.210 HD
ENDBRANCH   1  23
TORSDOF 2
ENDMDL
MODEL 3
REMARK VINA RESULT:      -5.5      1.225      6.826
REMARK  2 active torsions:
REMARK  status: ('A' for Active; 'I' for Inactive)
REMARK    1  A    between atoms: O_1  and  C_2 
REMARK    2  A    between atoms: C_20  and  C_21 
ROOT
HETATM    1  C   LIG     1      30.285  26.820  29.321  1.00  0.00     0.122 C 
HETATM    2  C   LIG     1      29.637  28.221  29.175  1.00  0.00     0.066 C 
HETATM    3  C   LIG     1      30.627  26.480  30.786  1.00  0.00     0.033 C 
HETATM    4  C   LIG     1      29.399  26.554  31.721  1.00  0.00     0.016 C 
HETATM    5  C   LIG     1      28.454  27.785  31.467  1.00  0.00    -0.017 C 
HETATM    6  C   LIG     1      27.152  27.304  30.771  1.00  0.00     0.020 C 
HETATM    7  C   LIG     1      29.163  28.768  30.510  1.00  0.00    -0.072 C 
HETATM    8  C   LIG     1      29.559  30.015  30.885  1.00  0.00    -0.023 C 
HETATM    9  C   LIG     1      29.380  30.570  32.279  1.00  0.00     0.033 C 
HETATM   10  C   LIG     1      29.226  29.420  33.279  1.00  0.00    -0.001 C 
HETATM   11  C   LIG     1      28.059  28.517  32.801  1.00  0.00     0.003 C 
HETATM   12  C   LIG     1      27.514  27.637  33.962  1.00  0.00     0.007 C 
HETATM   13  C   LIG     1      26.934  28.496  35.127  1.00  0.00     0.011 C 
HETATM   14  C   LIG     1      27.634  29.886  35.310  1.00  0.00    -0.030 C 
HETATM   15  C   LIG     1      26.792  31.021  34.643  1.00  0.00     0.016 C 
HETATM   16  C   LIG     1      29.073  29.806  34.776  1.00  0.00    -0.001 C 
HETATM   17  C   LIG     1      29.797  31.021  35.342  1.00  0.00     0.006 C 
HETATM   18  C   LIG     1      29.112  31.267  36.699  1.00  0.00     0.013 C 
HETATM   19  C   LIG     1      27.927  30.267  36.786  1.00  0.00     0.063 C 
ENDROOT
BRANCH  19  20
HETATM   20  C   LIG     1      26.712  30.727  37.579  1.00  0.00     0.128 C 
HETATM   21  C   LIG     1      26.577  32.119  38.129  1.00  0.00     0.091 C 
HETATM   22  O   LIG     1      25.809  29.930  37.780  1.00  0.00    -0.298 OA
ENDBRANCH  19  20
BRANCH   1  23
HETATM   23  O   LIG     1      29.434  25.839  28.784  1.00  0.00    -0.395 OA
HETATM   24  H   LIG     1      30.012  25.099  28.462  1.00  0.00     0.210 HD
ENDBRANCH   1  23
TORSDOF 2
ENDMDL
MODEL 4
REMARK VINA RESULT:      -5.3      1.337      6.949
REMARK  2 active torsions:
REMARK  status: ('A' for Active; 'I' for Inactive)
REMARK    1  A    between atoms: O_1  and  C_2 
REMARK    2  A    between atoms: C_20  and  C_21 
ROOT
HETATM    1  C   LIG     1      28.092  25.746  28.915  1.00  0.00     0.122 C 
HETATM    2  C   LIG     1      28.119  25.028  30.289  1.00  0.00     0.066 C 
HETATM    3  C   LIG     1      27.750  27.244  29.042  1.00  0.00     0.033 C 
HETATM    4  C   LIG     1      28.720  28.004  29.974  1.00  0.00     0.016 C 
HETATM    5  C   LIG     1      29.098  27.237  31.293  1.00  0.00    -0.017 C 
HETATM    6  C   LIG     1      30.555  26.709  31.187  1.00  0.00     0.020 C 
HETATM    7  C   LIG     1      28.166  26.015  31.443  1.00  0.00    -0.072 C 
HETATM    8  C   LIG     1      27.251  25.895  32.444  1.00  0.00    -0.023 C 
HETATM    9  C   LIG     1      27.020  26.950  33.501  1.00  0.00     0.033 C 
HETATM   10  C   LIG     1      27.515  28.309  32.995  1.00  0.00    -0.001 C 
HETATM   11  C   LIG     1      28.997  28.154  32.565  1.00  0.00     0.003 C 
HETATM   12  C   LIG     1      29.715  29.533  32.509  1.00  0.00     0.007 C 
HETATM   13  C   LIG     1      29.749  30.235  33.899  1.00  0.00     0.011 C 
HETATM   14  C   LIG     1      28.523  29.902  34.817  1.00  0.00    -0.030 C 
HETATM   15  C   LIG     1      28.896  28.798  35.859  1.00  0.00     0.016 C 
HETATM   16  C   LIG     1      27.318  29.525  33.941  1.00  0.00    -0.001 C 
HETATM   17  C   LIG     1      26.097  29.614  34.848  1.00  0.00     0.006 C 
HETATM   18  C   LIG     1      26.456  30.725  35.852  1.00  0.00     0.013 C 
HETATM   19  C   LIG     1      27.928  31.126  35.562  1.00  0.00     0.063 C 
ENDROOT
BRANCH  19  20
HETATM   20  C   LIG     1      28.743  31.606  36.755  1.00  0.00     0.128 C 
HETATM   21  C   LIG     1      28.157  31.781  38.127  1.00  0.00     0.091 C 
HETATM   22  O   LIG     1      29.926  31.863  36.589  1.00  0.00    -0.298 OA
ENDBRANCH  19  20
BRANCH   1  23
HETATM   23  O   LIG     1      29.328  25.586  28.266  1.00  0.00    -0.395 OA
HETATM   24  H   LIG     1      29.149  25.103  27.418  1.00  0.00     0.210 HD
ENDBRANCH   1  23
TORSDOF 2
ENDMDL
MODEL 5
REMARK VINA RESULT:      -5.3      9.362     13.965
REMARK  2 active torsions:
REMARK  status: ('A' for Active; 'I' for Inactive)
REMARK    1  A    between atoms: O_1  and  C_2 
REMARK    2  A    between atoms: C_20  and  C_21 
ROOT
HETATM    1  C   LIG     1      22.820  21.609  18.972  1.00  0.00     0.122 C 
HETATM    2  C   LIG     1      23.495  20.304  19.467  1.00  0.00     0.066 C 
HETATM    3  C   LIG     1      22.278  22.467  20.133  1.00  0.00     0.033 C 
HETATM    4  C   LIG     1      23.367  22.838  21.165  1.00  0.00     0.016 C 
HETATM    5  C   LIG     1      24.349  21.666  21.531  1.00  0.00    -0.017 C 
HETATM    6  C   LIG     1      25.730  21.920  20.867  1.00  0.00     0.020 C 
HETATM    7  C   LIG     1      23.787  20.348  20.957  1.00  0.00    -0.072 C 
HETATM    8  C   LIG     1      23.356  19.320  21.738  1.00  0.00    -0.023 C 
HETATM    9  C   LIG     1      23.347  19.361  23.249  1.00  0.00     0.033 C 
HETATM   10  C   LIG     1      23.353  20.815  23.730  1.00  0.00    -0.001 C 
HETATM   11  C   LIG     1      24.565  21.533  23.082  1.00  0.00     0.003 C 
HETATM   12  C   LIG     1      24.938  22.826  23.863  1.00  0.00     0.007 C 
HETATM   13  C   LIG     1      25.361  22.523  25.332  1.00  0.00     0.011 C 
HETATM   14  C   LIG     1      24.656  21.272  25.959  1.00  0.00    -0.030 C 
HETATM   15  C   LIG     1      25.592  20.022  25.898  1.00  0.00     0.016 C 
HETATM   16  C   LIG     1      23.303  21.049  25.265  1.00  0.00    -0.001 C 
HETATM   17  C   LIG     1      22.520  20.105  26.168  1.00  0.00     0.006 C 
HETATM   18  C   LIG     1      23.015  20.446  27.586  1.00  0.00     0.013 C 
HETATM   19  C   LIG     1      24.168  21.474  27.418  1.00  0.00     0.063 C 
ENDROOT
BRANCH  19  20
HETATM   20  C   LIG     1      25.267  21.433  28.470  1.00  0.00     0.128 C 
HETATM   21  C   LIG     1      25.379  20.336  29.491  1.00  0.00     0.091 C 
HETATM   22  O   LIG     1      26.093  22.333  28.487  1.00  0.00    -0.298 OA
ENDBRANCH  19  20
BRANCH   1  23
HETATM   23  O   LIG     1      23.727  22.357  18.202  1.00  0.00    -0.395 OA
HETATM   24  H   LIG     1      24.060  23.092  18.780  1.00  0.00     0.210 HD
ENDBRANCH   1  23
TORSDOF 2
ENDMDL
MODEL 6
REMARK VINA RESULT:      -5.2      9.326     13.848
REMARK  2 active torsions:
REMARK  status: ('A' for Active; 'I' for Inactive)
REMARK    1  A    between atoms: O_1  and  C_2 
REMARK    2  A    between atoms: C_20  and  C_21 
ROOT
HETATM    1  C   LIG     1      24.135  21.864  18.410  1.00  0.00     0.122 C 
HETATM    2  C   LIG     1      24.638  23.090  19.214  1.00  0.00     0.066 C 
HETATM    3  C   LIG     1      24.245  20.550  19.211  1.00  0.00     0.033 C 
HETATM    4  C   LIG     1      23.485  20.602  20.556  1.00  0.00     0.016 C 
HETATM    5  C   LIG     1      23.651  21.949  21.350  1.00  0.00    -0.017 C 
HETATM    6  C   LIG     1      22.337  22.772  21.256  1.00  0.00     0.020 C 
HETATM    7  C   LIG     1      24.775  22.779  20.694  1.00  0.00    -0.072 C 
HETATM    8  C   LIG     1      25.953  23.059  21.316  1.00  0.00    -0.023 C 
HETATM    9  C   LIG     1      26.310  22.567  22.700  1.00  0.00     0.033 C 
HETATM   10  C   LIG     1      25.468  21.335  23.046  1.00  0.00    -0.001 C 
HETATM   11  C   LIG     1      23.973  21.707  22.870  1.00  0.00     0.003 C 
HETATM   12  C   LIG     1      23.052  20.722  23.645  1.00  0.00     0.007 C 
HETATM   13  C   LIG     1      23.318  20.754  25.181  1.00  0.00     0.011 C 
HETATM   14  C   LIG     1      24.799  21.088  25.569  1.00  0.00    -0.030 C 
HETATM   15  C   LIG     1      24.942  22.594  25.959  1.00  0.00     0.016 C 
HETATM   16  C   LIG     1      25.733  20.667  24.423  1.00  0.00    -0.001 C 
HETATM   17  C   LIG     1      27.136  20.640  25.015  1.00  0.00     0.006 C 
HETATM   18  C   LIG     1      26.914  20.249  26.488  1.00  0.00     0.013 C 
HETATM   19  C   LIG     1      25.377  20.208  26.709  1.00  0.00     0.063 C 
ENDROOT
BRANCH  19  20
HETATM   20  C   LIG     1      24.887  20.568  28.104  1.00  0.00     0.128 C 
HETATM   21  C   LIG     1      25.773  21.193  29.144  1.00  0.00     0.091 C 
HETATM   22  O   LIG     1      23.723  20.336  28.392  1.00  0.00    -0.298 OA
ENDBRANCH  19  20
BRANCH   1  23
HETATM   23  O   LIG     1      22.806  22.070  18.002  1.00  0.00    -0.395 OA
HETATM   24  H   LIG     1      22.601  23.029  18.155  1.00  0.00     0.210 HD
ENDBRANCH   1  23
TORSDOF 2
ENDMDL
MODEL 7
REMARK VINA RESULT:      -5.2      8.968     12.477
REMARK  2 active torsions:
REMARK  status: ('A' for Active; 'I' for Inactive)
REMARK    1  A    between atoms: O_1  and  C_2 
REMARK    2  A    between atoms: C_20  and  C_21 
ROOT
HETATM    1  C   LIG     1      26.438  21.648  28.208  1.00  0.00     0.122 C 
HETATM    2  C   LIG     1      24.950  21.990  27.944  1.00  0.00     0.066 C 
HETATM    3  C   LIG     1      27.114  20.982  26.992  1.00  0.00     0.033 C 
HETATM    4  C   LIG     1      27.027  21.843  25.711  1.00  0.00     0.016 C 
HETATM    5  C   LIG     1      25.632  22.529  25.476  1.00  0.00    -0.017 C 
HETATM    6  C   LIG     1      25.745  24.049  25.777  1.00  0.00     0.020 C 
HETATM    7  C   LIG     1      24.609  21.929  26.465  1.00  0.00    -0.072 C 
HETATM    8  C   LIG     1      23.543  21.181  26.069  1.00  0.00    -0.023 C 
HETATM    9  C   LIG     1      23.254  20.826  24.629  1.00  0.00     0.033 C 
HETATM   10  C   LIG     1      24.539  20.932  23.801  1.00  0.00    -0.001 C 
HETATM   11  C   LIG     1      25.125  22.355  23.999  1.00  0.00     0.003 C 
HETATM   12  C   LIG     1      26.116  22.720  22.857  1.00  0.00     0.007 C 
HETATM   13  C   LIG     1      25.422  22.739  21.461  1.00  0.00     0.011 C 
HETATM   14  C   LIG     1      24.230  21.732  21.322  1.00  0.00    -0.030 C 
HETATM   15  C   LIG     1      22.863  22.462  21.520  1.00  0.00     0.016 C 
HETATM   16  C   LIG     1      24.438  20.560  22.296  1.00  0.00    -0.001 C 
HETATM   17  C   LIG     1      23.495  19.458  21.831  1.00  0.00     0.006 C 
HETATM   18  C   LIG     1      23.414  19.653  20.305  1.00  0.00     0.013 C 
HETATM   19  C   LIG     1      24.203  20.951  19.981  1.00  0.00     0.063 C 
ENDROOT
BRANCH  19  20
HETATM   20  C   LIG     1      23.716  21.756  18.784  1.00  0.00     0.128 C 
HETATM   21  C   LIG     1      24.564  22.787  18.095  1.00  0.00     0.091 C 
HETATM   22  O   LIG     1      22.585  21.557  18.368  1.00  0.00    -0.298 OA
ENDBRANCH  19  20
BRANCH   1  23
HETATM   23  O   LIG     1      27.140  22.810  28.573  1.00  0.00    -0.395 OA
HETATM   24  H   LIG     1      27.492  23.210  27.736  1.00  0.00     0.210 HD
ENDBRANCH   1  23
TORSDOF 2
ENDMDL
MODEL 8
REMARK VINA RESULT:      -5.2     14.237     16.233
REMARK  2 active torsions:
REMARK  status: ('A' for Active; 'I' for Inactive)
REMARK    1  A    between atoms: O_1  and  C_2 
REMARK    2  A    between atoms: C_20  and  C_21 
ROOT
HETATM    1  C   LIG     1      22.506  19.310  18.990  1.00  0.00     0.122 C 
HETATM    2  C   LIG     1      23.199  19.683  20.326  1.00  0.00     0.066 C 
HETATM    3  C   LIG     1      22.821  20.315  17.863  1.00  0.00     0.033 C 
HETATM    4  C   LIG     1      24.337  20.471  17.605  1.00  0.00     0.016 C 
HETATM    5  C   LIG     1      25.219  20.543  18.904  1.00  0.00    -0.017 C 
HETATM    6  C   LIG     1      25.990  19.206  19.081  1.00  0.00     0.020 C 
HETATM    7  C   LIG     1      24.293  20.717  20.127  1.00  0.00    -0.072 C 
HETATM    8  C   LIG     1      24.279  21.841  20.895  1.00  0.00    -0.023 C 
HETATM    9  C   LIG     1      25.140  23.053  20.626  1.00  0.00     0.033 C 
HETATM   10  C   LIG     1      25.575  23.065  19.157  1.00  0.00    -0.001 C 
HETATM   11  C   LIG     1      26.267  21.712  18.847  1.00  0.00     0.003 C 
HETATM   12  C   LIG     1      27.156  21.813  17.574  1.00  0.00     0.007 C 
HETATM   13  C   LIG     1      28.307  22.849  17.741  1.00  0.00     0.011 C 
HETATM   14  C   LIG     1      27.959  24.050  18.684  1.00  0.00    -0.030 C 
HETATM   15  C   LIG     1      28.552  23.823  20.112  1.00  0.00     0.016 C 
HETATM   16  C   LIG     1      26.437  24.270  18.689  1.00  0.00    -0.001 C 
HETATM   17  C   LIG     1      26.216  25.657  19.277  1.00  0.00     0.006 C 
HETATM   18  C   LIG     1      27.466  26.449  18.850  1.00  0.00     0.013 C 
HETATM   19  C   LIG     1      28.417  25.436  18.156  1.00  0.00     0.063 C 
ENDROOT
BRANCH  19  20
HETATM   20  C   LIG     1      29.909  25.709  18.292  1.00  0.00     0.128 C 
HETATM   21  C   LIG     1      30.468  26.726  19.246  1.00  0.00     0.091 C 
HETATM   22  O   LIG     1      30.684  25.075  17.593  1.00  0.00    -0.298 OA
ENDBRANCH  19  20
BRANCH   1  23
HETATM   23  O   LIG     1      22.884  18.014  18.599  1.00  0.00    -0.395 OA
HETATM   24  H   LIG     1      22.047  17.505  18.434  1.00  0.00     0.210 HD
ENDBRANCH   1  23
TORSDOF 2
ENDMDL
MODEL 9
REMARK VINA RESULT:      -5.2     12.602     14.739
REMARK  2 active torsions:
REMARK  status: ('A' for Active; 'I' for Inactive)
REMARK    1  A    between atoms: O_1  and  C_2 
REMARK    2  A    between atoms: C_20  and  C_21 
ROOT
HETATM    1  C   LIG     1      22.931  21.308  22.729  1.00  0.00     0.122 C 
HETATM    2  C   LIG     1      24.415  21.224  23.170  1.00  0.00     0.066 C 
HETATM    3  C   LIG     1      22.703  22.366  21.630  1.00  0.00     0.033 C 
HETATM    4  C   LIG     1      23.576  22.128  20.377  1.00  0.00     0.016 C 
HETATM    5  C   LIG     1      25.061  21.714  20.682  1.00  0.00    -0.017 C 
HETATM    6  C   LIG     1      25.252  20.204  20.372  1.00  0.00     0.020 C 
HETATM    7  C   LIG     1      25.338  21.924  22.187  1.00  0.00    -0.072 C 
HETATM    8  C   LIG     1      26.217  22.849  22.659  1.00  0.00    -0.023 C 
HETATM    9  C   LIG     1      26.998  23.794  21.775  1.00  0.00     0.033 C 
HETATM   10  C   LIG     1      26.291  23.944  20.424  1.00  0.00    -0.001 C 
HETATM   11  C   LIG     1      26.094  22.528  19.822  1.00  0.00     0.003 C 
HETATM   12  C   LIG     1      25.848  22.596  18.288  1.00  0.00     0.007 C 
HETATM   13  C   LIG     1      27.058  23.216  17.525  1.00  0.00     0.011 C 
HETATM   14  C   LIG     1      27.861  24.279  18.351  1.00  0.00    -0.030 C 
HETATM   15  C   LIG     1      29.146  23.641  18.972  1.00  0.00     0.016 C 
HETATM   16  C   LIG     1      26.934  24.917  19.398  1.00  0.00    -0.001 C 
HETATM   17  C   LIG     1      27.641  26.182  19.867  1.00  0.00     0.006 C 
HETATM   18  C   LIG     1      28.433  26.649  18.631  1.00  0.00     0.013 C 
HETATM   19  C   LIG     1      28.257  25.547  17.549  1.00  0.00     0.063 C 
ENDROOT
BRANCH  19  20
HETATM   20  C   LIG     1      29.420  25.357  16.586  1.00  0.00     0.128 C 
HETATM   21  C   LIG     1      29.274  24.674  15.256  1.00  0.00     0.091 C 
HETATM   22  O   LIG     1      30.521  25.774  16.910  1.00  0.00    -0.298 OA
ENDBRANCH  19  20
BRANCH   1  23
HETATM   23  O   LIG     1      22.491  20.049  22.285  1.00  0.00    -0.395 OA
HETATM   24  H   LIG     1      23.088  19.371  22.697  1.00  0.00     0.210 HD
ENDBRANCH   1  23
TORSDOF 2
ENDMDL
MODEL 10
REMARK VINA RESULT:      -4.9      2.028      7.602
REMARK  2 active torsions:
REMARK  status: ('A' for Active; 'I' for Inactive)
REMARK    1  A    between atoms: O_1  and  C_2 
REMARK    2  A    between atoms: C_20  and  C_21 
ROOT
HETATM    1  C   LIG     1      26.881  22.825  27.071  1.00  0.00     0.122 C 
HETATM    2  C   LIG     1      28.062  22.571  28.043  1.00  0.00     0.066 C 
HETATM    3  C   LIG     1      25.887  23.872  27.614  1.00  0.00     0.033 C 
HETATM    4  C   LIG     1      26.559  25.226  27.937  1.00  0.00     0.016 C 
HETATM    5  C   LIG     1      27.953  25.111  28.657  1.00  0.00    -0.017 C 
HETATM    6  C   LIG     1      29.085  25.464  27.654  1.00  0.00     0.020 C 
HETATM    7  C   LIG     1      28.161  23.649  29.107  1.00  0.00    -0.072 C 
HETATM    8  C   LIG     1      28.221  23.275  30.415  1.00  0.00    -0.023 C 
HETATM    9  C   LIG     1      28.060  24.235  31.571  1.00  0.00     0.033 C 
HETATM   10  C   LIG     1      27.309  25.487  31.106  1.00  0.00    -0.001 C 
HETATM   11  C   LIG     1      28.067  26.080  29.889  1.00  0.00     0.003 C 
HETATM   12  C   LIG     1      27.688  27.571  29.662  1.00  0.00     0.007 C 
HETATM   13  C   LIG     1      28.073  28.467  30.878  1.00  0.00     0.011 C 
HETATM   14  C   LIG     1      28.019  27.732  32.260  1.00  0.00    -0.030 C 
HETATM   15  C   LIG     1      29.448  27.282  32.704  1.00  0.00     0.016 C 
HETATM   16  C   LIG     1      27.016  26.570  32.180  1.00  0.00    -0.001 C 
HETATM   17  C   LIG     1      26.718  26.174  33.620  1.00  0.00     0.006 C 
HETATM   18  C   LIG     1      26.856  27.490  34.407  1.00  0.00     0.013 C 
HETATM   19  C   LIG     1      27.367  28.557  33.401  1.00  0.00     0.063 C 
ENDROOT
BRANCH  19  20
HETATM   20  C   LIG     1      28.247  29.659  33.975  1.00  0.00     0.128 C 
HETATM   21  C   LIG     1      28.514  30.949  33.254  1.00  0.00     0.091 C 
HETATM   22  O   LIG     1      28.762  29.484  35.069  1.00  0.00    -0.298 OA
ENDBRANCH  19  20
BRANCH   1  23
HETATM   23  O   LIG     1      27.370  23.230  25.817  1.00  0.00    -0.395 OA
HETATM   24  H   LIG     1      26.823  24.007  25.530  1.00  0.00     0.210 HD
ENDBRANCH   1  23
TORSDOF 2
ENDMDL
MODEL 11
REMARK VINA RESULT:      -4.9     13.021     15.495
REMARK  2 active torsions:
REMARK  status: ('A' for Active; 'I' for Inactive)
REMARK    1  A    between atoms: O_1  and  C_2 
REMARK    2  A    between atoms: C_20  and  C_21 
ROOT
HETATM    1  C   LIG     1      28.893  26.071  19.328  1.00  0.00     0.122 C 
HETATM    2  C   LIG     1      28.060  25.890  20.623  1.00  0.00     0.066 C 
HETATM    3  C   LIG     1      28.906  24.801  18.454  1.00  0.00     0.033 C 
HETATM    4  C   LIG     1      27.487  24.328  18.063  1.00  0.00     0.016 C 
HETATM    5  C   LIG     1      26.431  24.394  19.225  1.00  0.00    -0.017 C 
HETATM    6  C   LIG     1      25.459  25.580  18.977  1.00  0.00     0.020 C 
HETATM    7  C   LIG     1      27.169  24.661  20.555  1.00  0.00    -0.072 C 
HETATM    8  C   LIG     1      27.222  23.758  21.571  1.00  0.00    -0.023 C 
HETATM    9  C   LIG     1      26.595  22.384  21.507  1.00  0.00     0.033 C 
HETATM   10  C   LIG     1      26.402  21.969  20.045  1.00  0.00    -0.001 C 
HETATM   11  C   LIG     1      25.582  23.076  19.333  1.00  0.00     0.003 C 
HETATM   12  C   LIG     1      24.928  22.540  18.027  1.00  0.00     0.007 C 
HETATM   13  C   LIG     1      23.923  21.381  18.305  1.00  0.00     0.011 C 
HETATM   14  C   LIG     1      24.287  20.501  19.549  1.00  0.00    -0.030 C 
HETATM   15  C   LIG     1      23.451  20.933  20.796  1.00  0.00     0.016 C 
HETATM   16  C   LIG     1      25.805  20.558  19.788  1.00  0.00    -0.001 C 
HETATM   17  C   LIG     1      26.126  19.397  20.720  1.00  0.00     0.006 C 
HETATM   18  C   LIG     1      25.084  18.324  20.355  1.00  0.00     0.013 C 
HETATM   19  C   LIG     1      24.119  18.974  19.326  1.00  0.00     0.063 C 
ENDROOT
BRANCH  19  20
HETATM   20  C   LIG     1      22.679  18.481  19.347  1.00  0.00     0.128 C 
HETATM   21  C   LIG     1      21.779  18.539  18.145  1.00  0.00     0.091 C 
HETATM   22  O   LIG     1      22.234  18.021  20.387  1.00  0.00    -0.298 OA
ENDBRANCH  19  20
BRANCH   1  23
HETATM   23  O   LIG     1      28.401  27.161  18.590  1.00  0.00    -0.395 OA
HETATM   24  H   LIG     1      27.872  27.720  19.216  1.00  0.00     0.210 HD
ENDBRANCH   1  23
TORSDOF 2
ENDMDL
MODEL 12
REMARK VINA RESULT:      -4.9     10.530     13.442
REMARK  2 active torsions:
REMARK  status: ('A' for Active; 'I' for Inactive)
REMARK    1  A    between atoms: O_1  and  C_2 
REMARK    2  A    between atoms: C_20  and  C_21 
ROOT
HETATM    1  C   LIG     1      23.078  20.527  28.252  1.00  0.00     0.122 C 
HETATM    2  C   LIG     1      24.413  20.985  27.612  1.00  0.00     0.066 C 
HETATM    3  C   LIG     1      21.914  20.515  27.239  1.00  0.00     0.033 C 
HETATM    4  C   LIG     1      22.200  19.625  26.008  1.00  0.00     0.016 C 
HETATM    5  C   LIG     1      23.658  19.752  25.432  1.00  0.00    -0.017 C 
HETATM    6  C   LIG     1      24.472  18.481  25.797  1.00  0.00     0.020 C 
HETATM    7  C   LIG     1      24.352  20.962  26.095  1.00  0.00    -0.072 C 
HETATM    8  C   LIG     1      24.715  22.079  25.408  1.00  0.00    -0.023 C 
HETATM    9  C   LIG     1      24.456  22.279  23.932  1.00  0.00     0.033 C 
HETATM   10  C   LIG     1      23.310  21.369  23.478  1.00  0.00    -0.001 C 
HETATM   11  C   LIG     1      23.668  19.911  23.869  1.00  0.00     0.003 C 
HETATM   12  C   LIG     1      22.838  18.887  23.042  1.00  0.00     0.007 C 
HETATM   13  C   LIG     1      23.122  18.998  21.514  1.00  0.00     0.011 C 
HETATM   14  C   LIG     1      23.495  20.441  21.033  1.00  0.00    -0.030 C 
HETATM   15  C   LIG     1      25.043  20.591  20.882  1.00  0.00     0.016 C 
HETATM   16  C   LIG     1      22.877  21.473  21.990  1.00  0.00    -0.001 C 
HETATM   17  C   LIG     1      22.930  22.808  21.258  1.00  0.00     0.006 C 
HETATM   18  C   LIG     1      22.792  22.426  19.772  1.00  0.00     0.013 C 
HETATM   19  C   LIG     1      22.810  20.874  19.709  1.00  0.00     0.063 C 
ENDROOT
BRANCH  19  20
HETATM   20  C   LIG     1      23.404  20.257  18.451  1.00  0.00     0.128 C 
HETATM   21  C   LIG     1      23.069  18.868  17.987  1.00  0.00     0.091 C 
HETATM   22  O   LIG     1      24.190  20.919  17.791  1.00  0.00    -0.298 OA
ENDBRANCH  19  20
BRANCH   1  23
HETATM   23  O   LIG     1      23.231  19.254  28.825  1.00  0.00    -0.395 OA
HETATM   24  H   LIG     1      23.074  19.354  29.800  1.00  0.00     0.210 HD
ENDBRANCH   1  23
TORSDOF 2
ENDMDL
MODEL 13
REMARK VINA RESULT:      -4.9      8.027     12.028
REMARK  2 active torsions:
REMARK  status: ('A' for Active; 'I' for Inactive)
REMARK    1  A    between atoms: O_1  and  C_2 
REMARK    2  A    between atoms: C_20  and  C_21 
ROOT
HETATM    1  C   LIG     1      27.103  23.851  27.446  1.00  0.00     0.122 C 
HETATM    2  C   LIG     1      27.954  22.779  26.717  1.00  0.00     0.066 C 
HETATM    3  C   LIG     1      26.243  24.682  26.471  1.00  0.00     0.033 C 
HETATM    4  C   LIG     1      25.302  23.809  25.610  1.00  0.00     0.016 C 
HETATM    5  C   LIG     1      25.956  22.492  25.053  1.00  0.00    -0.017 C 
HETATM    6  C   LIG     1      25.403  21.269  25.834  1.00  0.00     0.020 C 
HETATM    7  C   LIG     1      27.480  22.553  25.292  1.00  0.00    -0.072 C 
HETATM    8  C   LIG     1      28.389  22.622  24.282  1.00  0.00    -0.023 C 
HETATM    9  C   LIG     1      28.016  22.677  22.818  1.00  0.00     0.033 C 
HETATM   10  C   LIG     1      26.578  23.184  22.668  1.00  0.00    -0.001 C 
HETATM   11  C   LIG     1      25.655  22.279  23.525  1.00  0.00     0.003 C 
HETATM   12  C   LIG     1      24.173  22.391  23.068  1.00  0.00     0.007 C 
HETATM   13  C   LIG     1      23.975  21.923  21.595  1.00  0.00     0.011 C 
HETATM   14  C   LIG     1      25.217  22.167  20.671  1.00  0.00    -0.030 C 
HETATM   15  C   LIG     1      26.053  20.857  20.510  1.00  0.00     0.016 C 
HETATM   16  C   LIG     1      26.037  23.345  21.221  1.00  0.00    -0.001 C 
HETATM   17  C   LIG     1      26.962  23.775  20.090  1.00  0.00     0.006 C 
HETATM   18  C   LIG     1      26.164  23.459  18.812  1.00  0.00     0.013 C 
HETATM   19  C   LIG     1      24.871  22.727  19.266  1.00  0.00     0.063 C 
ENDROOT
BRANCH  19  20
HETATM   20  C   LIG     1      24.298  21.705  18.294  1.00  0.00     0.128 C 
HETATM   21  C   LIG     1      22.843  21.333  18.266  1.00  0.00     0.091 C 
HETATM   22  O   LIG     1      25.055  21.161  17.505  1.00  0.00    -0.298 OA
ENDBRANCH  19  20
BRANCH   1  23
HETATM   23  O   LIG     1      26.285  23.240  28.411  1.00  0.00    -0.395 OA
HETATM   24  H   LIG     1      26.274  23.839  29.203  1.00  0.00     0.210 HD
ENDBRANCH   1  23
TORSDOF 2
ENDMDL
MODEL 14
REMARK VINA RESULT:      -4.9      7.086     11.954
REMARK  2 active torsions:
REMARK  status: ('A' for Active; 'I' for Inactive)
REMARK    1  A    between atoms: O_1  and  C_2 
REMARK    2  A    between atoms: C_20  and  C_21 
ROOT
HETATM    1  C   LIG     1      22.570  21.691  21.376  1.00  0.00     0.122 C 
HETATM    2  C   LIG     1      22.984  20.737  22.526  1.00  0.00     0.066 C 
HETATM    3  C   LIG     1      23.062  23.135  21.604  1.00  0.00     0.033 C 
HETATM    4  C   LIG     1      24.594  23.224  21.790  1.00  0.00     0.016 C 
HETATM    5  C   LIG     1      25.210  22.099  22.700  1.00  0.00    -0.017 C 
HETATM    6  C   LIG     1      25.974  21.077  21.814  1.00  0.00     0.020 C 
HETATM    7  C   LIG     1      24.063  21.344  23.405  1.00  0.00    -0.072 C 
HETATM    8  C   LIG     1      23.868  21.378  24.752  1.00  0.00    -0.023 C 
HETATM    9  C   LIG     1      24.727  22.177  25.705  1.00  0.00     0.033 C 
HETATM   10  C   LIG     1      25.433  23.305  24.947  1.00  0.00    -0.001 C 
HETATM   11  C   LIG     1      26.213  22.676  23.763  1.00  0.00     0.003 C 
HETATM   12  C   LIG     1      27.324  23.636  23.248  1.00  0.00     0.007 C 
HETATM   13  C   LIG     1      28.390  23.942  24.343  1.00  0.00     0.011 C 
HETATM   14  C   LIG     1      27.831  23.926  25.806  1.00  0.00    -0.030 C 
HETATM   15  C   LIG     1      28.148  22.564  26.504  1.00  0.00     0.016 C 
HETATM   16  C   LIG     1      26.330  24.259  25.782  1.00  0.00    -0.001 C 
HETATM   17  C   LIG     1      25.958  24.619  27.214  1.00  0.00     0.006 C 
HETATM   18  C   LIG     1      27.242  25.247  27.788  1.00  0.00     0.013 C 
HETATM   19  C   LIG     1      28.339  25.088  26.700  1.00  0.00     0.063 C 
ENDROOT
BRANCH  19  20
HETATM   20  C   LIG     1      29.768  24.931  27.201  1.00  0.00     0.128 C 
HETATM   21  C   LIG     1      30.101  24.637  28.635  1.00  0.00     0.091 C 
HETATM   22  O   LIG     1      30.683  25.053  26.402  1.00  0.00    -0.298 OA
ENDBRANCH  19  20
BRANCH   1  23
HETATM   23  O   LIG     1      23.055  21.204  20.151  1.00  0.00    -0.395 OA
HETATM   24  H   LIG     1      23.656  21.901  19.779  1.00  0.00     0.210 HD
ENDBRANCH   1  23
TORSDOF 2
ENDMDL
MODEL 15
REMARK VINA RESULT:      -4.8      7.801     11.863
REMARK  2 active torsions:
REMARK  status: ('A' for Active; 'I' for Inactive)
REMARK    1  A    between atoms: O_1  and  C_2 
REMARK    2  A    between atoms: C_20  and  C_21 
ROOT
HETATM    1  C   LIG     1      28.295  23.871  27.571  1.00  0.00     0.122 C 
HETATM    2  C   LIG     1      26.909  24.485  27.250  1.00  0.00     0.066 C 
HETATM    3  C   LIG     1      28.634  22.675  26.657  1.00  0.00     0.033 C 
HETATM    4  C   LIG     1      28.593  23.037  25.155  1.00  0.00     0.016 C 
HETATM    5  C   LIG     1      27.382  23.947  24.734  1.00  0.00    -0.017 C 
HETATM    6  C   LIG     1      27.889  25.390  24.459  1.00  0.00     0.020 C 
HETATM    7  C   LIG     1      26.379  24.016  25.906  1.00  0.00    -0.072 C 
HETATM    8  C   LIG     1      25.125  23.491  25.844  1.00  0.00    -0.023 C 
HETATM    9  C   LIG     1      24.581  22.756  24.640  1.00  0.00     0.033 C 
HETATM   10  C   LIG     1      25.739  22.228  23.788  1.00  0.00    -0.001 C 
HETATM   11  C   LIG     1      26.666  23.421  23.438  1.00  0.00     0.003 C 
HETATM   12  C   LIG     1      27.563  23.098  22.209  1.00  0.00     0.007 C 
HETATM   13  C   LIG     1      26.723  22.823  20.925  1.00  0.00     0.011 C 
HETATM   14  C   LIG     1      25.319  22.185  21.200  1.00  0.00    -0.030 C 
HETATM   15  C   LIG     1      24.199  23.275  21.164  1.00  0.00     0.016 C 
HETATM   16  C   LIG     1      25.363  21.406  22.524  1.00  0.00    -0.001 C 
HETATM   17  C   LIG     1      24.136  20.504  22.521  1.00  0.00     0.006 C 
HETATM   18  C   LIG     1      23.911  20.182  21.032  1.00  0.00     0.013 C 
HETATM   19  C   LIG     1      24.938  21.031  20.234  1.00  0.00     0.063 C 
ENDROOT
BRANCH  19  20
HETATM   20  C   LIG     1      24.508  21.478  18.844  1.00  0.00     0.128 C 
HETATM   21  C   LIG     1      23.083  21.423  18.373  1.00  0.00     0.091 C 
HETATM   22  O   LIG     1      25.361  21.897  18.076  1.00  0.00    -0.298 OA
ENDBRANCH  19  20
BRANCH   1  23
HETATM   23  O   LIG     1      29.292  24.855  27.467  1.00  0.00    -0.395 OA
HETATM   24  H   LIG     1      29.430  25.027  26.499  1.00  0.00     0.210 HD
ENDBRANCH   1  23
TORSDOF 2
ENDMDL
MODEL 16
REMARK VINA RESULT:      -4.8      7.251     13.041
REMARK  2 active torsions:
REMARK  status: ('A' for Active; 'I' for Inactive)
REMARK    1  A    between atoms: O_1  and  C_2 
REMARK    2  A    between atoms: C_20  and  C_21 
ROOT
HETATM    1  C   LIG     1      24.162  21.102  19.042  1.00  0.00     0.122 C 
HETATM    2  C   LIG     1      24.821  22.505  19.060  1.00  0.00     0.066 C 
HETATM    3  C   LIG     1      24.566  20.248  20.262  1.00  0.00     0.033 C 
HETATM    4  C   LIG     1      24.235  20.930  21.608  1.00  0.00     0.016 C 
HETATM    5  C   LIG     1      24.564  22.467  21.663  1.00  0.00    -0.017 C 
HETATM    6  C   LIG     1      23.243  23.282  21.604  1.00  0.00     0.020 C 
HETATM    7  C   LIG     1      25.403  22.841  20.421  1.00  0.00    -0.072 C 
HETATM    8  C   LIG     1      26.697  23.255  20.496  1.00  0.00    -0.023 C 
HETATM    9  C   LIG     1      27.470  23.368  21.790  1.00  0.00     0.033 C 
HETATM   10  C   LIG     1      26.828  22.476  22.857  1.00  0.00    -0.001 C 
HETATM   11  C   LIG     1      25.331  22.865  22.975  1.00  0.00     0.003 C 
HETATM   12  C   LIG     1      24.728  22.384  24.327  1.00  0.00     0.007 C 
HETATM   13  C   LIG     1      25.434  23.041  25.551  1.00  0.00     0.011 C 
HETATM   14  C   LIG     1      26.946  23.380  25.316  1.00  0.00    -0.030 C 
HETATM   15  C   LIG     1      27.126  24.891  24.962  1.00  0.00     0.016 C 
HETATM   16  C   LIG     1      27.519  22.434  24.248  1.00  0.00    -0.001 C 
HETATM   17  C   LIG     1      29.034  22.541  24.364  1.00  0.00     0.006 C 
HETATM   18  C   LIG     1      29.276  22.831  25.858  1.00  0.00     0.013 C 
HETATM   19  C   LIG     1      27.876  23.020  26.505  1.00  0.00     0.063 C 
ENDROOT
BRANCH  19  20
HETATM   20  C   LIG     1      27.803  23.978  27.685  1.00  0.00     0.128 C 
HETATM   21  C   LIG     1      26.620  24.048  28.607  1.00  0.00     0.091 C 
HETATM   22  O   LIG     1      28.747  24.726  27.890  1.00  0.00    -0.298 OA
ENDBRANCH  19  20
BRANCH   1  23
HETATM   23  O   LIG     1      22.763  21.229  18.985  1.00  0.00    -0.395 OA
HETATM   24  H   LIG     1      22.499  21.098  18.037  1.00  0.00     0.210 HD
ENDBRANCH   1  23
TORSDOF 2
ENDMDL
MODEL 17
REMARK VINA RESULT:      -4.7      8.088     13.900
REMARK  2 active torsions:
REMARK  status: ('A' for Active; 'I' for Inactive)
REMARK    1  A    between atoms: O_1  and  C_2 
REMARK    2  A    between atoms: C_20  and  C_21 
ROOT
HETATM    1  C   LIG     1      22.809  20.538  18.923  1.00  0.00     0.122 C 
HETATM    2  C   LIG     1      23.362  19.536  19.969  1.00  0.00     0.066 C 
HETATM    3  C   LIG     1      22.880  21.999  19.414  1.00  0.00     0.033 C 
HETATM    4  C   LIG     1      24.312  22.433  19.802  1.00  0.00     0.016 C 
HETATM    5  C   LIG     1      25.125  21.359  20.613  1.00  0.00    -0.017 C 
HETATM    6  C   LIG     1      26.205  20.724  19.694  1.00  0.00     0.020 C 
HETATM    7  C   LIG     1      24.163  20.235  21.054  1.00  0.00    -0.072 C 
HETATM    8  C   LIG     1      23.852  19.990  22.357  1.00  0.00    -0.023 C 
HETATM    9  C   LIG     1      24.385  20.804  23.514  1.00  0.00     0.033 C 
HETATM   10  C   LIG     1      24.828  22.183  23.018  1.00  0.00    -0.001 C 
HETATM   11  C   LIG     1      25.845  21.979  21.865  1.00  0.00     0.003 C 
HETATM   12  C   LIG     1      26.701  23.257  21.635  1.00  0.00     0.007 C 
HETATM   13  C   LIG     1      27.551  23.628  22.887  1.00  0.00     0.011 C 
HETATM   14  C   LIG     1      26.894  23.226  24.252  1.00  0.00    -0.030 C 
HETATM   15  C   LIG     1      27.500  21.887  24.784  1.00  0.00     0.016 C 
HETATM   16  C   LIG     1      25.366  23.175  24.086  1.00  0.00    -0.001 C 
HETATM   17  C   LIG     1      24.792  23.183  25.497  1.00  0.00     0.006 C 
HETATM   18  C   LIG     1      25.809  24.004  26.311  1.00  0.00     0.013 C 
HETATM   19  C   LIG     1      26.997  24.309  25.358  1.00  0.00     0.063 C 
ENDROOT
BRANCH  19  20
HETATM   20  C   LIG     1      28.369  24.429  26.007  1.00  0.00     0.128 C 
HETATM   21  C   LIG     1      28.645  23.992  27.418  1.00  0.00     0.091 C 
HETATM   22  O   LIG     1      29.285  24.904  25.354  1.00  0.00    -0.298 OA
ENDBRANCH  19  20
BRANCH   1  23
HETATM   23  O   LIG     1      23.509  20.402  17.712  1.00  0.00    -0.395 OA
HETATM   24  H   LIG     1      23.675  19.432  17.581  1.00  0.00     0.210 HD
ENDBRANCH   1  23
TORSDOF 2
ENDMDL
MODEL 18
REMARK VINA RESULT:      -4.5      8.396     13.071
REMARK  2 active torsions:
REMARK  status: ('A' for Active; 'I' for Inactive)
REMARK    1  A    between atoms: O_1  and  C_2 
REMARK    2  A    between atoms: C_20  and  C_21 
ROOT
HETATM    1  C   LIG     1      27.342  24.562  17.947  1.00  0.00     0.122 C 
HETATM    2  C   LIG     1      27.701  23.136  18.438  1.00  0.00     0.066 C 
HETATM    3  C   LIG     1      26.536  25.359  18.993  1.00  0.00     0.033 C 
HETATM    4  C   LIG     1      27.266  25.475  20.351  1.00  0.00     0.016 C 
HETATM    5  C   LIG     1      27.967  24.153  20.833  1.00  0.00    -0.017 C 
HETATM    6  C   LIG     1      29.506  24.292  20.668  1.00  0.00     0.020 C 
HETATM    7  C   LIG     1      27.501  22.986  19.936  1.00  0.00    -0.072 C 
HETATM    8  C   LIG     1      26.750  21.948  20.395  1.00  0.00    -0.023 C 
HETATM    9  C   LIG     1      26.261  21.832  21.821  1.00  0.00     0.033 C 
HETATM   10  C   LIG     1      26.244  23.216  22.478  1.00  0.00    -0.001 C 
HETATM   11  C   LIG     1      27.661  23.833  22.341  1.00  0.00     0.003 C 
HETATM   12  C   LIG     1      27.879  24.977  23.371  1.00  0.00     0.007 C 
HETATM   13  C   LIG     1      27.779  24.471  24.842  1.00  0.00     0.011 C 
HETATM   14  C   LIG     1      26.799  23.264  25.040  1.00  0.00    -0.030 C 
HETATM   15  C   LIG     1      27.587  21.916  25.096  1.00  0.00     0.016 C 
HETATM   16  C   LIG     1      25.725  23.293  23.940  1.00  0.00    -0.001 C 
HETATM   17  C   LIG     1      24.611  22.371  24.418  1.00  0.00     0.006 C 
HETATM   18  C   LIG     1      24.655  22.495  25.953  1.00  0.00     0.013 C 
HETATM   19  C   LIG     1      25.889  23.376  26.292  1.00  0.00     0.063 C 
ENDROOT
BRANCH  19  20
HETATM   20  C   LIG     1      26.583  23.082  27.614  1.00  0.00     0.128 C 
HETATM   21  C   LIG     1      26.246  21.891  28.466  1.00  0.00     0.091 C 
HETATM   22  O   LIG     1      27.450  23.850  28.002  1.00  0.00    -0.298 OA
ENDBRANCH  19  20
BRANCH   1  23
HETATM   23  O   LIG     1      28.512  25.260  17.605  1.00  0.00    -0.395 OA
HETATM   24  H   LIG     1      29.272  24.634  17.732  1.00  0.00     0.210 HD
ENDBRANCH   1  23
TORSDOF 2
ENDMDL
MODEL 19
REMARK VINA RESULT:      -4.5     10.840     15.338
REMARK  2 active torsions:
REMARK  status: ('A' for Active; 'I' for Inactive)
REMARK    1  A    between atoms: O_1  and  C_2 
REMARK    2  A    between atoms: C_20  and  C_21 
ROOT
HETATM    1  C   LIG     1      26.668  22.250  24.850  1.00  0.00     0.122 C 
HETATM    2  C   LIG     1      25.396  22.949  24.307  1.00  0.00     0.066 C 
HETATM    3  C   LIG     1      26.907  20.873  24.197  1.00  0.00     0.033 C 
HETATM    4  C   LIG     1      27.008  20.950  22.657  1.00  0.00     0.016 C 
HETATM    5  C   LIG     1      25.954  21.898  21.977  1.00  0.00    -0.017 C 
HETATM    6  C   LIG     1      26.659  23.196  21.494  1.00  0.00     0.020 C 
HETATM    7  C   LIG     1      24.896  22.301  23.027  1.00  0.00    -0.072 C 
HETATM    8  C   LIG     1      23.591  21.922  22.952  1.00  0.00    -0.023 C 
HETATM    9  C   LIG     1      23.034  21.043  21.856  1.00  0.00     0.033 C 
HETATM   10  C   LIG     1      24.166  20.233  21.214  1.00  0.00    -0.001 C 
HETATM   11  C   LIG     1      25.259  21.225  20.739  1.00  0.00     0.003 C 
HETATM   12  C   LIG     1      26.183  20.575  19.669  1.00  0.00     0.007 C 
HETATM   13  C   LIG     1      25.398  20.164  18.387  1.00  0.00     0.011 C 
HETATM   14  C   LIG     1      23.908  19.755  18.649  1.00  0.00    -0.030 C 
HETATM   15  C   LIG     1      22.944  20.941  18.324  1.00  0.00     0.016 C 
HETATM   16  C   LIG     1      23.768  19.238  20.090  1.00  0.00    -0.001 C 
HETATM   17  C   LIG     1      22.436  18.500  20.142  1.00  0.00     0.006 C 
HETATM   18  C   LIG     1      22.267  17.933  18.720  1.00  0.00     0.013 C 
HETATM   19  C   LIG     1      23.444  18.493  17.875  1.00  0.00     0.063 C 
ENDROOT
BRANCH  19  20
HETATM   20  C   LIG     1      23.164  18.717  16.396  1.00  0.00     0.128 C 
HETATM   21  C   LIG     1      24.254  18.826  15.367  1.00  0.00     0.091 C 
HETATM   22  O   LIG     1      22.004  18.817  16.030  1.00  0.00    -0.298 OA
ENDBRANCH  19  20
BRANCH   1  23
HETATM   23  O   LIG     1      27.788  23.076  24.659  1.00  0.00    -0.395 OA
HETATM   24  H   LIG     1      28.002  23.055  23.690  1.00  0.00     0.210 HD
ENDBRANCH   1  23
TORSDOF 2
ENDMDL
MODEL 20
REMARK VINA RESULT:      -4.4     11.415     15.655
REMARK  2 active torsions:
REMARK  status: ('A' for Active; 'I' for Inactive)
REMARK    1  A    between atoms: O_1  and  C_2 
REMARK    2  A    between atoms: C_20  and  C_21 
ROOT
HETATM    1  C   LIG     1      22.801  19.645  18.338  1.00  0.00     0.122 C 
HETATM    2  C   LIG     1      24.044  18.984  18.987  1.00  0.00     0.066 C 
HETATM    3  C   LIG     1      22.723  21.159  18.625  1.00  0.00     0.033 C 
HETATM    4  C   LIG     1      23.984  21.922  18.161  1.00  0.00     0.016 C 
HETATM    5  C   LIG     1      25.343  21.197  18.477  1.00  0.00    -0.017 C 
HETATM    6  C   LIG     1      25.937  20.615  17.165  1.00  0.00     0.020 C 
HETATM    7  C   LIG     1      25.066  20.015  19.432  1.00  0.00    -0.072 C 
HETATM    8  C   LIG     1      25.529  19.968  20.711  1.00  0.00    -0.023 C 
HETATM    9  C   LIG     1      26.336  21.073  21.353  1.00  0.00     0.033 C 
HETATM   10  C   LIG     1      26.091  22.392  20.613  1.00  0.00    -0.001 C 
HETATM   11  C   LIG     1      26.403  22.168  19.110  1.00  0.00     0.003 C 
HETATM   12  C   LIG     1      26.659  23.518  18.381  1.00  0.00     0.007 C 
HETATM   13  C   LIG     1      27.891  24.275  18.961  1.00  0.00     0.011 C 
HETATM   14  C   LIG     1      28.141  24.023  20.487  1.00  0.00    -0.030 C 
HETATM   15  C   LIG     1      29.258  22.950  20.695  1.00  0.00     0.016 C 
HETATM   16  C   LIG     1      26.812  23.652  21.166  1.00  0.00    -0.001 C 
HETATM   17  C   LIG     1      27.045  23.820  22.662  1.00  0.00     0.006 C 
HETATM   18  C   LIG     1      28.078  24.958  22.755  1.00  0.00     0.013 C 
HETATM   19  C   LIG     1      28.498  25.296  21.298  1.00  0.00     0.063 C 
ENDROOT
BRANCH  19  20
HETATM   20  C   LIG     1      29.923  25.796  21.106  1.00  0.00     0.128 C 
HETATM   21  C   LIG     1      30.436  26.315  19.793  1.00  0.00     0.091 C 
HETATM   22  O   LIG     1      30.684  25.771  22.061  1.00  0.00    -0.298 OA
ENDBRANCH  19  20
BRANCH   1  23
HETATM   23  O   LIG     1      22.804  19.416  16.952  1.00  0.00    -0.395 OA
HETATM   24  H   LIG     1      23.456  20.050  16.555  1.00  0.00     0.210 HD
ENDBRANCH   1  23
TORSDOF 2
ENDMDL
