REMARK  5 active torsions:
REMARK  status: ('A' for Active; 'I' for Inactive)
REMARK    1  A    between atoms: N_2  and  C_3 
REMARK    2  A    between atoms: C_3  and  C_4 
REMARK    3  A    between atoms: C_4  and  C_5 
REMARK    4  A    between atoms: C_5  and  N_6 
REMARK    5  A    between atoms: C_17  and  C_18 
ROOT
HETATM    1  N   LIG     1      -0.710  -0.740  -0.236  1.00  0.00    -0.345 N 
HETATM    2  C   LIG     1      -1.298  -2.056  -0.156  1.00  0.00     0.052 A 
HETATM    3  C   LIG     1      -1.199  -2.960  -1.228  1.00  0.00     0.031 A 
HETATM    4  C   LIG     1      -1.913  -4.163  -1.202  1.00  0.00     0.002 A 
HETATM    5  C   LIG     1      -2.746  -4.462  -0.121  1.00  0.00     0.002 A 
HETATM    6  C   LIG     1      -2.859  -3.566   0.945  1.00  0.00     0.021 A 
HETATM    7  C   LIG     1      -2.128  -2.374   0.936  1.00  0.00     0.032 A 
HETATM    8  S   LIG     1      -2.184  -1.268   2.349  1.00  0.00    -0.086 SA
HETATM    9  C   LIG     1      -2.356   0.201   1.331  1.00  0.00     0.032 A 
HETATM   10  C   LIG     1      -1.511   0.374   0.220  1.00  0.00     0.053 A 
HETATM   11  C   LIG     1      -1.570   1.575  -0.508  1.00  0.00     0.047 A 
HETATM   12  C   LIG     1      -2.458   2.599  -0.130  1.00  0.00     0.050 A 
HETATM   13  C   LIG     1      -3.333   2.382   0.949  1.00  0.00     0.017 A 
HETATM   14  C   LIG     1      -3.277   1.192   1.678  1.00  0.00     0.022 A 
ENDROOT
BRANCH   1  15
HETATM   15  C   LIG     1       0.648  -0.546  -0.767  1.00  0.00     0.131 C 
BRANCH  15  16
HETATM   16  C   LIG     1       1.545   0.134   0.275  1.00  0.00     0.050 C 
BRANCH  16  17
HETATM   17  C   LIG     1       2.986   0.272  -0.236  1.00  0.00     0.273 C 
BRANCH  17  18
HETATM   18  N   LIG     1       3.806   1.051   0.717  1.00  0.00     0.080 N 
HETATM   19  C   LIG     1       4.949   1.664   0.021  1.00  0.00     0.309 C 
HETATM   20  C   LIG     1       4.303   0.197   1.812  1.00  0.00     0.309 C 
ENDBRANCH  17  18
ENDBRANCH  16  17
ENDBRANCH  15  16
ENDBRANCH   1  15
BRANCH  12  21
HETATM   21  C   LIG     1      -2.551   3.864  -0.946  1.00  0.00     0.417 C 
HETATM   22  F   LIG     1      -2.982   4.921  -0.164  1.00  0.00    -0.166 F 
HETATM   23  F   LIG     1      -3.448   3.673  -1.980  1.00  0.00    -0.166 F 
HETATM   24  F   LIG     1      -1.315   4.194  -1.475  1.00  0.00    -0.166 F 
ENDBRANCH  12  21
TORSDOF 5
