MODEL 1
REMARK VINA RESULT:      -9.3      0.000      0.000
REMARK  5 active torsions:
REMARK  status: ('A' for Active; 'I' for Inactive)
REMARK    1  A    between atoms: N_2  and  C_3 
REMARK    2  A    between atoms: C_3  and  C_4 
REMARK    3  A    between atoms: C_4  and  C_5 
REMARK    4  A    between atoms: C_5  and  N_6 
REMARK    5  A    between atoms: C_17  and  C_18 
ROOT
HETATM    1  N   LIG     1      17.392  36.308  21.706  1.00  0.00    -0.345 N 
HETATM    2  C   LIG     1      18.078  37.232  20.835  1.00  0.00     0.052 A 
HETATM    3  C   LIG     1      19.007  36.777  19.883  1.00  0.00     0.031 A 
HETATM    4  C   LIG     1      19.783  37.692  19.164  1.00  0.00     0.002 A 
HETATM    5  C   LIG     1      19.657  39.062  19.405  1.00  0.00     0.002 A 
HETATM    6  C   LIG     1      18.744  39.525  20.356  1.00  0.00     0.021 A 
HETATM    7  C   LIG     1      17.947  38.616  21.059  1.00  0.00     0.032 A 
HETATM    8  S   LIG     1      16.697  39.206  22.205  1.00  0.00    -0.086 SA
HETATM    9  C   LIG     1      17.130  38.005  23.467  1.00  0.00     0.032 A 
HETATM   10  C   LIG     1      17.303  36.657  23.107  1.00  0.00     0.053 A 
HETATM   11  C   LIG     1      17.530  35.700  24.112  1.00  0.00     0.047 A 
HETATM   12  C   LIG     1      17.577  36.081  25.465  1.00  0.00     0.050 A 
HETATM   13  C   LIG     1      17.458  37.442  25.798  1.00  0.00     0.017 A 
HETATM   14  C   LIG     1      17.230  38.396  24.804  1.00  0.00     0.022 A 
ENDROOT
BRANCH   1  15
HETATM   15  C   LIG     1      16.815  35.059  21.185  1.00  0.00     0.131 C 
BRANCH  15  16
HETATM   16  C   LIG     1      15.282  35.113  21.227  1.00  0.00     0.050 C 
BRANCH  16  17
HETATM   17  C   LIG     1      14.672  33.713  21.073  1.00  0.00     0.273 C 
BRANCH  17  18
HETATM   18  N   LIG     1      15.394  32.939  20.039  1.00  0.00     0.080 N 
HETATM   19  C   LIG     1      15.139  33.510  18.707  1.00  0.00     0.309 C 
HETATM   20  C   LIG     1      14.980  31.523  20.050  1.00  0.00     0.309 C 
ENDBRANCH  17  18
ENDBRANCH  16  17
ENDBRANCH  15  16
ENDBRANCH   1  15
BRANCH  12  21
HETATM   21  C   LIG     1      17.871  35.057  26.533  1.00  0.00     0.417 C 
HETATM   22  F   LIG     1      16.761  34.267  26.773  1.00  0.00    -0.166 F 
HETATM   23  F   LIG     1      18.223  35.707  27.701  1.00  0.00    -0.166 F 
HETATM   24  F   LIG     1      18.912  34.232  26.143  1.00  0.00    -0.166 F 
ENDBRANCH  12  21
TORSDOF 5
ENDMDL
