MODEL 1
REMARK VINA RESULT:      -5.0      0.000      0.000
REMARK  3 active torsions:
REMARK  status: ('A' for Active; 'I' for Inactive)
REMARK    1  A    between atoms: C_2  and  C_3 
REMARK    2  A    between atoms: C_3  and  C_4 
REMARK    3  A    between atoms: C_4  and  C_5 
ROOT
HETATM    1  C   LIG     1      17.295  37.692  25.321  1.00  0.00     0.026 C 
ENDROOT
BRANCH   1   2
HETATM    2  C   LIG     1      17.802  38.200  23.961  1.00  0.00     0.003 C 
BRANCH   2   3
HETATM    3  C   LIG     1      16.905  37.805  22.774  1.00  0.00    -0.004 C 
HETATM    4  C   LIG     1      16.822  36.292  22.572  1.00  0.00     0.005 C 
ENDBRANCH   2   3
ENDBRANCH   1   2
BRANCH   1   5
HETATM    5  C   LIG     1      18.391  37.053  26.141  1.00  0.00    -0.031 C 
HETATM    6  C   LIG     1      18.421  35.740  26.422  1.00  0.00    -0.035 C 
HETATM    7  C   LIG     1      17.366  34.776  25.963  1.00  0.00     0.035 C 
ENDBRANCH   1   5
TORSDOF 3
ENDMDL
MODEL 2
REMARK VINA RESULT:      -5.0      0.741      3.413
REMARK  3 active torsions:
REMARK  status: ('A' for Active; 'I' for Inactive)
REMARK    1  A    between atoms: C_2  and  C_3 
REMARK    2  A    between atoms: C_3  and  C_4 
REMARK    3  A    between atoms: C_4  and  C_5 
ROOT
HETATM    1  C   LIG     1      16.906  37.277  24.670  1.00  0.00     0.026 C 
ENDROOT
BRANCH   1   2
HETATM    2  C   LIG     1      18.215  37.340  25.474  1.00  0.00     0.003 C 
BRANCH   2   3
HETATM    3  C   LIG     1      18.332  36.258  26.563  1.00  0.00    -0.004 C 
HETATM    4  C   LIG     1      17.828  34.892  26.097  1.00  0.00     0.005 C 
ENDBRANCH   2   3
ENDBRANCH   1   2
BRANCH   1   5
HETATM    5  C   LIG     1      17.107  37.629  23.215  1.00  0.00    -0.031 C 
HETATM    6  C   LIG     1      17.087  36.712  22.234  1.00  0.00    -0.035 C 
HETATM    7  C   LIG     1      16.874  35.247  22.480  1.00  0.00     0.035 C 
ENDBRANCH   1   5
TORSDOF 3
ENDMDL
MODEL 3
REMARK VINA RESULT:      -4.9      1.354      2.249
REMARK  3 active torsions:
REMARK  status: ('A' for Active; 'I' for Inactive)
REMARK    1  A    between atoms: C_2  and  C_3 
REMARK    2  A    between atoms: C_3  and  C_4 
REMARK    3  A    between atoms: C_4  and  C_5 
ROOT
HETATM    1  C   LIG     1      17.115  35.847  24.077  1.00  0.00     0.026 C 
ENDROOT
BRANCH   1   2
HETATM    2  C   LIG     1      16.948  35.174  22.705  1.00  0.00     0.003 C 
BRANCH   2   3
HETATM    3  C   LIG     1      17.145  36.130  21.514  1.00  0.00    -0.004 C 
HETATM    4  C   LIG     1      17.286  37.590  21.942  1.00  0.00     0.005 C 
ENDBRANCH   2   3
ENDBRANCH   1   2
BRANCH   1   5
HETATM    5  C   LIG     1      17.422  34.853  25.172  1.00  0.00    -0.031 C 
HETATM    6  C   LIG     1      18.071  35.187  26.300  1.00  0.00    -0.035 C 
HETATM    7  C   LIG     1      18.566  36.575  26.584  1.00  0.00     0.035 C 
ENDBRANCH   1   5
TORSDOF 3
ENDMDL
MODEL 4
REMARK VINA RESULT:      -4.5      2.664      4.899
REMARK  3 active torsions:
REMARK  status: ('A' for Active; 'I' for Inactive)
REMARK    1  A    between atoms: C_2  and  C_3 
REMARK    2  A    between atoms: C_3  and  C_4 
REMARK    3  A    between atoms: C_4  and  C_5 
ROOT
HETATM    1  C   LIG     1      18.676  38.960  21.938  1.00  0.00     0.026 C 
ENDROOT
BRANCH   1   2
HETATM    2  C   LIG     1      17.184  38.932  22.307  1.00  0.00     0.003 C 
BRANCH   2   3
HETATM    3  C   LIG     1      16.773  37.714  23.154  1.00  0.00    -0.004 C 
HETATM    4  C   LIG     1      17.139  37.868  24.631  1.00  0.00     0.005 C 
ENDBRANCH   2   3
ENDBRANCH   1   2
BRANCH   1   5
HETATM    5  C   LIG     1      18.910  39.433  20.523  1.00  0.00    -0.031 C 
HETATM    6  C   LIG     1      19.088  38.591  19.492  1.00  0.00    -0.035 C 
HETATM    7  C   LIG     1      19.082  37.097  19.640  1.00  0.00     0.035 C 
ENDBRANCH   1   5
TORSDOF 3
ENDMDL
MODEL 5
REMARK VINA RESULT:      -4.4      2.431      3.588
REMARK  3 active torsions:
REMARK  status: ('A' for Active; 'I' for Inactive)
REMARK    1  A    between atoms: C_2  and  C_3 
REMARK    2  A    between atoms: C_3  and  C_4 
REMARK    3  A    between atoms: C_4  and  C_5 
ROOT
HETATM    1  C   LIG     1      17.407  38.492  21.818  1.00  0.00     0.026 C 
ENDROOT
BRANCH   1   2
HETATM    2  C   LIG     1      18.800  39.132  21.698  1.00  0.00     0.003 C 
BRANCH   2   3
HETATM    3  C   LIG     1      19.451  38.953  20.314  1.00  0.00    -0.004 C 
HETATM    4  C   LIG     1      19.088  37.622  19.656  1.00  0.00     0.005 C 
ENDBRANCH   2   3
ENDBRANCH   1   2
BRANCH   1   5
HETATM    5  C   LIG     1      17.231  37.735  23.113  1.00  0.00    -0.031 C 
HETATM    6  C   LIG     1      17.035  36.407  23.161  1.00  0.00    -0.035 C 
HETATM    7  C   LIG     1      16.959  35.542  21.936  1.00  0.00     0.035 C 
ENDBRANCH   1   5
TORSDOF 3
ENDMDL
MODEL 6
REMARK VINA RESULT:      -4.3      1.975      2.871
REMARK  3 active torsions:
REMARK  status: ('A' for Active; 'I' for Inactive)
REMARK    1  A    between atoms: C_2  and  C_3 
REMARK    2  A    between atoms: C_3  and  C_4 
REMARK    3  A    between atoms: C_4  and  C_5 
ROOT
HETATM    1  C   LIG     1      17.079  35.059  23.390  1.00  0.00     0.026 C 
ENDROOT
BRANCH   1   2
HETATM    2  C   LIG     1      16.579  35.451  21.990  1.00  0.00     0.003 C 
BRANCH   2   3
HETATM    3  C   LIG     1      15.348  34.653  21.521  1.00  0.00    -0.004 C 
HETATM    4  C   LIG     1      15.656  33.727  20.345  1.00  0.00     0.005 C 
ENDBRANCH   2   3
ENDBRANCH   1   2
BRANCH   1   5
HETATM    5  C   LIG     1      17.303  36.259  24.279  1.00  0.00    -0.031 C 
HETATM    6  C   LIG     1      17.751  36.160  25.541  1.00  0.00    -0.035 C 
HETATM    7  C   LIG     1      18.064  34.849  26.202  1.00  0.00     0.035 C 
ENDBRANCH   1   5
TORSDOF 3
ENDMDL
MODEL 7
REMARK VINA RESULT:      -4.3      1.788      4.357
REMARK  3 active torsions:
REMARK  status: ('A' for Active; 'I' for Inactive)
REMARK    1  A    between atoms: C_2  and  C_3 
REMARK    2  A    between atoms: C_3  and  C_4 
REMARK    3  A    between atoms: C_4  and  C_5 
ROOT
HETATM    1  C   LIG     1      17.495  38.338  23.080  1.00  0.00     0.026 C 
ENDROOT
BRANCH   1   2
HETATM    2  C   LIG     1      16.706  37.572  24.155  1.00  0.00     0.003 C 
BRANCH   2   3
HETATM    3  C   LIG     1      17.584  36.990  25.277  1.00  0.00    -0.004 C 
HETATM    4  C   LIG     1      17.485  35.468  25.378  1.00  0.00     0.005 C 
ENDBRANCH   2   3
ENDBRANCH   1   2
BRANCH   1   5
HETATM    5  C   LIG     1      17.542  37.598  21.764  1.00  0.00    -0.031 C 
HETATM    6  C   LIG     1      18.225  38.047  20.699  1.00  0.00    -0.035 C 
HETATM    7  C   LIG     1      19.002  39.332  20.701  1.00  0.00     0.035 C 
ENDBRANCH   1   5
TORSDOF 3
ENDMDL
MODEL 8
REMARK VINA RESULT:      -4.2      3.487      4.884
REMARK  3 active torsions:
REMARK  status: ('A' for Active; 'I' for Inactive)
REMARK    1  A    between atoms: C_2  and  C_3 
REMARK    2  A    between atoms: C_3  and  C_4 
REMARK    3  A    between atoms: C_4  and  C_5 
ROOT
HETATM    1  C   LIG     1      17.623  36.712  20.907  1.00  0.00     0.026 C 
ENDROOT
BRANCH   1   2
HETATM    2  C   LIG     1      17.127  35.470  21.666  1.00  0.00     0.003 C 
BRANCH   2   3
HETATM    3  C   LIG     1      15.683  35.062  21.319  1.00  0.00    -0.004 C 
HETATM    4  C   LIG     1      15.615  33.803  20.454  1.00  0.00     0.005 C 
ENDBRANCH   2   3
ENDBRANCH   1   2
BRANCH   1   5
HETATM    5  C   LIG     1      17.569  37.962  21.752  1.00  0.00    -0.031 C 
HETATM    6  C   LIG     1      18.318  39.047  21.499  1.00  0.00    -0.035 C 
HETATM    7  C   LIG     1      19.293  39.126  20.360  1.00  0.00     0.035 C 
ENDBRANCH   1   5
TORSDOF 3
ENDMDL
MODEL 9
REMARK VINA RESULT:      -4.2     10.310     11.935
REMARK  3 active torsions:
REMARK  status: ('A' for Active; 'I' for Inactive)
REMARK    1  A    between atoms: C_2  and  C_3 
REMARK    2  A    between atoms: C_3  and  C_4 
REMARK    3  A    between atoms: C_4  and  C_5 
ROOT
HETATM    1  C   LIG     1      15.017  30.072  14.684  1.00  0.00     0.026 C 
ENDROOT
BRANCH   1   2
HETATM    2  C   LIG     1      15.423  30.861  13.428  1.00  0.00     0.003 C 
BRANCH   2   3
HETATM    3  C   LIG     1      16.114  32.203  13.731  1.00  0.00    -0.004 C 
HETATM    4  C   LIG     1      16.744  32.245  15.123  1.00  0.00     0.005 C 
ENDBRANCH   2   3
ENDBRANCH   1   2
BRANCH   1   5
HETATM    5  C   LIG     1      13.528  30.109  14.931  1.00  0.00    -0.031 C 
HETATM    6  C   LIG     1      12.980  30.714  15.997  1.00  0.00    -0.035 C 
HETATM    7  C   LIG     1      13.788  31.405  17.057  1.00  0.00     0.035 C 
ENDBRANCH   1   5
TORSDOF 3
ENDMDL
MODEL 10
REMARK VINA RESULT:      -4.1     10.625     12.299
REMARK  3 active torsions:
REMARK  status: ('A' for Active; 'I' for Inactive)
REMARK    1  A    between atoms: C_2  and  C_3 
REMARK    2  A    between atoms: C_3  and  C_4 
REMARK    3  A    between atoms: C_4  and  C_5 
ROOT
HETATM    1  C   LIG     1      15.176  30.067  14.517  1.00  0.00     0.026 C 
ENDROOT
BRANCH   1   2
HETATM    2  C   LIG     1      13.675  29.747  14.608  1.00  0.00     0.003 C 
BRANCH   2   3
HETATM    3  C   LIG     1      12.921  30.585  15.657  1.00  0.00    -0.004 C 
HETATM    4  C   LIG     1      13.827  31.077  16.785  1.00  0.00     0.005 C 
ENDBRANCH   2   3
ENDBRANCH   1   2
BRANCH   1   5
HETATM    5  C   LIG     1      15.491  31.039  13.404  1.00  0.00    -0.031 C 
HETATM    6  C   LIG     1      16.161  32.185  13.605  1.00  0.00    -0.035 C 
HETATM    7  C   LIG     1      16.656  32.624  14.952  1.00  0.00     0.035 C 
ENDBRANCH   1   5
TORSDOF 3
ENDMDL
MODEL 11
REMARK VINA RESULT:      -4.1      8.029      9.969
REMARK  3 active torsions:
REMARK  status: ('A' for Active; 'I' for Inactive)
REMARK    1  A    between atoms: C_2  and  C_3 
REMARK    2  A    between atoms: C_3  and  C_4 
REMARK    3  A    between atoms: C_4  and  C_5 
ROOT
HETATM    1  C   LIG     1      14.039  31.698  17.341  1.00  0.00     0.026 C 
ENDROOT
BRANCH   1   2
HETATM    2  C   LIG     1      14.476  31.485  15.882  1.00  0.00     0.003 C 
BRANCH   2   3
HETATM    3  C   LIG     1      13.727  30.345  15.167  1.00  0.00    -0.004 C 
HETATM    4  C   LIG     1      14.596  29.619  14.139  1.00  0.00     0.005 C 
ENDBRANCH   2   3
ENDBRANCH   1   2
BRANCH   1   5
HETATM    5  C   LIG     1      15.006  32.567  18.110  1.00  0.00    -0.031 C 
HETATM    6  C   LIG     1      15.358  32.317  19.382  1.00  0.00    -0.035 C 
HETATM    7  C   LIG     1      14.821  31.159  20.172  1.00  0.00     0.035 C 
ENDBRANCH   1   5
TORSDOF 3
ENDMDL
MODEL 12
REMARK VINA RESULT:      -4.1      2.521      4.048
REMARK  3 active torsions:
REMARK  status: ('A' for Active; 'I' for Inactive)
REMARK    1  A    between atoms: C_2  and  C_3 
REMARK    2  A    between atoms: C_3  and  C_4 
REMARK    3  A    between atoms: C_4  and  C_5 
ROOT
HETATM    1  C   LIG     1      16.940  36.201  22.838  1.00  0.00     0.026 C 
ENDROOT
BRANCH   1   2
HETATM    2  C   LIG     1      17.214  37.685  23.133  1.00  0.00     0.003 C 
BRANCH   2   3
HETATM    3  C   LIG     1      17.350  38.558  21.873  1.00  0.00    -0.004 C 
HETATM    4  C   LIG     1      18.727  39.209  21.748  1.00  0.00     0.005 C 
ENDBRANCH   2   3
ENDBRANCH   1   2
BRANCH   1   5
HETATM    5  C   LIG     1      17.130  35.860  21.379  1.00  0.00    -0.031 C 
HETATM    6  C   LIG     1      16.283  35.073  20.697  1.00  0.00    -0.035 C 
HETATM    7  C   LIG     1      15.069  34.442  21.314  1.00  0.00     0.035 C 
ENDBRANCH   1   5
TORSDOF 3
ENDMDL
MODEL 13
REMARK VINA RESULT:      -4.0      9.539     11.935
REMARK  3 active torsions:
REMARK  status: ('A' for Active; 'I' for Inactive)
REMARK    1  A    between atoms: C_2  and  C_3 
REMARK    2  A    between atoms: C_3  and  C_4 
REMARK    3  A    between atoms: C_4  and  C_5 
ROOT
HETATM    1  C   LIG     1      13.426  30.262  15.289  1.00  0.00     0.026 C 
ENDROOT
BRANCH   1   2
HETATM    2  C   LIG     1      13.163  31.116  16.540  1.00  0.00     0.003 C 
BRANCH   2   3
HETATM    3  C   LIG     1      14.371  31.962  16.983  1.00  0.00    -0.004 C 
HETATM    4  C   LIG     1      14.590  31.934  18.496  1.00  0.00     0.005 C 
ENDBRANCH   2   3
ENDBRANCH   1   2
BRANCH   1   5
HETATM    5  C   LIG     1      14.672  30.690  14.551  1.00  0.00    -0.031 C 
HETATM    6  C   LIG     1      15.445  29.833  13.865  1.00  0.00    -0.035 C 
HETATM    7  C   LIG     1      15.158  28.362  13.769  1.00  0.00     0.035 C 
ENDBRANCH   1   5
TORSDOF 3
ENDMDL
MODEL 14
REMARK VINA RESULT:      -3.9      3.208      5.293
REMARK  3 active torsions:
REMARK  status: ('A' for Active; 'I' for Inactive)
REMARK    1  A    between atoms: C_2  and  C_3 
REMARK    2  A    between atoms: C_3  and  C_4 
REMARK    3  A    between atoms: C_4  and  C_5 
ROOT
HETATM    1  C   LIG     1      18.216  36.505  20.990  1.00  0.00     0.026 C 
ENDROOT
BRANCH   1   2
HETATM    2  C   LIG     1      16.694  36.458  21.206  1.00  0.00     0.003 C 
BRANCH   2   3
HETATM    3  C   LIG     1      16.230  37.111  22.520  1.00  0.00    -0.004 C 
HETATM    4  C   LIG     1      16.610  38.589  22.614  1.00  0.00     0.005 C 
ENDBRANCH   2   3
ENDBRANCH   1   2
BRANCH   1   5
HETATM    5  C   LIG     1      18.585  36.859  19.569  1.00  0.00    -0.031 C 
HETATM    6  C   LIG     1      19.132  38.038  19.229  1.00  0.00    -0.035 C 
HETATM    7  C   LIG     1      19.422  39.127  20.221  1.00  0.00     0.035 C 
ENDBRANCH   1   5
TORSDOF 3
ENDMDL
MODEL 15
REMARK VINA RESULT:      -3.9      9.402     11.235
REMARK  3 active torsions:
REMARK  status: ('A' for Active; 'I' for Inactive)
REMARK    1  A    between atoms: C_2  and  C_3 
REMARK    2  A    between atoms: C_3  and  C_4 
REMARK    3  A    between atoms: C_4  and  C_5 
ROOT
HETATM    1  C   LIG     1      14.052  30.980  16.712  1.00  0.00     0.026 C 
ENDROOT
BRANCH   1   2
HETATM    2  C   LIG     1      12.907  30.584  15.765  1.00  0.00     0.003 C 
BRANCH   2   3
HETATM    3  C   LIG     1      13.351  29.702  14.584  1.00  0.00    -0.004 C 
HETATM    4  C   LIG     1      14.844  29.825  14.280  1.00  0.00     0.005 C 
ENDBRANCH   2   3
ENDBRANCH   1   2
BRANCH   1   5
HETATM    5  C   LIG     1      14.018  32.446  17.074  1.00  0.00    -0.031 C 
HETATM    6  C   LIG     1      14.938  33.325  16.644  1.00  0.00    -0.035 C 
HETATM    7  C   LIG     1      16.097  32.942  15.771  1.00  0.00     0.035 C 
ENDBRANCH   1   5
TORSDOF 3
ENDMDL
MODEL 16
REMARK VINA RESULT:      -3.9      2.772      4.574
REMARK  3 active torsions:
REMARK  status: ('A' for Active; 'I' for Inactive)
REMARK    1  A    between atoms: C_2  and  C_3 
REMARK    2  A    between atoms: C_3  and  C_4 
REMARK    3  A    between atoms: C_4  and  C_5 
ROOT
HETATM    1  C   LIG     1      16.851  35.759  22.043  1.00  0.00     0.026 C 
ENDROOT
BRANCH   1   2
HETATM    2  C   LIG     1      15.548  35.225  21.425  1.00  0.00     0.003 C 
BRANCH   2   3
HETATM    3  C   LIG     1      15.749  34.481  20.092  1.00  0.00    -0.004 C 
HETATM    4  C   LIG     1      15.321  33.015  20.162  1.00  0.00     0.005 C 
ENDBRANCH   2   3
ENDBRANCH   1   2
BRANCH   1   5
HETATM    5  C   LIG     1      17.415  36.930  21.273  1.00  0.00    -0.031 C 
HETATM    6  C   LIG     1      17.614  38.138  21.825  1.00  0.00    -0.035 C 
HETATM    7  C   LIG     1      17.288  38.452  23.256  1.00  0.00     0.035 C 
ENDBRANCH   1   5
TORSDOF 3
ENDMDL
MODEL 17
REMARK VINA RESULT:      -3.8     10.789     12.001
REMARK  3 active torsions:
REMARK  status: ('A' for Active; 'I' for Inactive)
REMARK    1  A    between atoms: C_2  and  C_3 
REMARK    2  A    between atoms: C_3  and  C_4 
REMARK    3  A    between atoms: C_4  and  C_5 
ROOT
HETATM    1  C   LIG     1      15.694  31.577  14.029  1.00  0.00     0.026 C 
ENDROOT
BRANCH   1   2
HETATM    2  C   LIG     1      15.291  30.144  14.412  1.00  0.00     0.003 C 
BRANCH   2   3
HETATM    3  C   LIG     1      13.781  29.963  14.652  1.00  0.00    -0.004 C 
HETATM    4  C   LIG     1      13.296  30.660  15.923  1.00  0.00     0.005 C 
ENDBRANCH   2   3
ENDBRANCH   1   2
BRANCH   1   5
HETATM    5  C   LIG     1      16.571  32.227  15.073  1.00  0.00    -0.031 C 
HETATM    6  C   LIG     1      17.521  33.126  14.771  1.00  0.00    -0.035 C 
HETATM    7  C   LIG     1      17.818  33.570  13.368  1.00  0.00     0.035 C 
ENDBRANCH   1   5
TORSDOF 3
ENDMDL
MODEL 18
REMARK VINA RESULT:      -3.7      5.791      8.309
REMARK  3 active torsions:
REMARK  status: ('A' for Active; 'I' for Inactive)
REMARK    1  A    between atoms: C_2  and  C_3 
REMARK    2  A    between atoms: C_3  and  C_4 
REMARK    3  A    between atoms: C_4  and  C_5 
ROOT
HETATM    1  C   LIG     1      15.013  31.941  19.174  1.00  0.00     0.026 C 
ENDROOT
BRANCH   1   2
HETATM    2  C   LIG     1      15.075  32.870  20.398  1.00  0.00     0.003 C 
BRANCH   2   3
HETATM    3  C   LIG     1      15.711  34.242  20.109  1.00  0.00    -0.004 C 
HETATM    4  C   LIG     1      16.387  34.852  21.337  1.00  0.00     0.005 C 
ENDBRANCH   2   3
ENDBRANCH   1   2
BRANCH   1   5
HETATM    5  C   LIG     1      15.063  32.703  17.870  1.00  0.00    -0.031 C 
HETATM    6  C   LIG     1      14.441  32.285  16.757  1.00  0.00    -0.035 C 
HETATM    7  C   LIG     1      13.644  31.015  16.687  1.00  0.00     0.035 C 
ENDBRANCH   1   5
TORSDOF 3
ENDMDL
MODEL 19
REMARK VINA RESULT:      -3.6     10.396     11.214
REMARK  3 active torsions:
REMARK  status: ('A' for Active; 'I' for Inactive)
REMARK    1  A    between atoms: C_2  and  C_3 
REMARK    2  A    between atoms: C_3  and  C_4 
REMARK    3  A    between atoms: C_4  and  C_5 
ROOT
HETATM    1  C   LIG     1      15.517  31.333  14.754  1.00  0.00     0.026 C 
ENDROOT
BRANCH   1   2
HETATM    2  C   LIG     1      16.228  32.334  13.828  1.00  0.00     0.003 C 
BRANCH   2   3
HETATM    3  C   LIG     1      17.357  33.124  14.514  1.00  0.00    -0.004 C 
HETATM    4  C   LIG     1      18.373  33.688  13.520  1.00  0.00     0.005 C 
ENDBRANCH   2   3
ENDBRANCH   1   2
BRANCH   1   5
HETATM    5  C   LIG     1      15.089  31.960  16.060  1.00  0.00    -0.031 C 
HETATM    6  C   LIG     1      13.929  31.662  16.666  1.00  0.00    -0.035 C 
HETATM    7  C   LIG     1      12.935  30.686  16.107  1.00  0.00     0.035 C 
ENDBRANCH   1   5
TORSDOF 3
ENDMDL
MODEL 20
REMARK VINA RESULT:      -3.6      7.355      9.875
REMARK  3 active torsions:
REMARK  status: ('A' for Active; 'I' for Inactive)
REMARK    1  A    between atoms: C_2  and  C_3 
REMARK    2  A    between atoms: C_3  and  C_4 
REMARK    3  A    between atoms: C_4  and  C_5 
ROOT
HETATM    1  C   LIG     1      14.180  31.316  17.923  1.00  0.00     0.026 C 
ENDROOT
BRANCH   1   2
HETATM    2  C   LIG     1      15.005  32.544  18.343  1.00  0.00     0.003 C 
BRANCH   2   3
HETATM    3  C   LIG     1      15.515  32.486  19.794  1.00  0.00    -0.004 C 
HETATM    4  C   LIG     1      15.645  33.870  20.432  1.00  0.00     0.005 C 
ENDBRANCH   2   3
ENDBRANCH   1   2
BRANCH   1   5
HETATM    5  C   LIG     1      13.138  31.652  16.882  1.00  0.00    -0.031 C 
HETATM    6  C   LIG     1      13.159  31.145  15.639  1.00  0.00    -0.035 C 
HETATM    7  C   LIG     1      14.223  30.205  15.151  1.00  0.00     0.035 C 
ENDBRANCH   1   5
TORSDOF 3
ENDMDL
