MODEL 1
REMARK VINA RESULT:      -7.5      0.000      0.000
REMARK  1 active torsions:
REMARK  status: ('A' for Active; 'I' for Inactive)
REMARK    1  A    between atoms: O_1  and  C_2 
ROOT
HETATM    1  C   LIG     1      17.477  37.592  25.588  1.00  0.00     0.095 A 
HETATM    2  C   LIG     1      17.098  36.996  24.371  1.00  0.00     0.099 A 
HETATM    3  N   LIG     1      16.577  37.748  23.363  1.00  0.00    -0.257 NA
HETATM    4  C   LIG     1      16.203  37.199  22.176  1.00  0.00     0.117 A 
HETATM    5  C   LIG     1      16.345  35.827  21.961  1.00  0.00     0.020 A 
HETATM    6  C   LIG     1      16.876  35.025  22.973  1.00  0.00     0.015 A 
HETATM    7  C   LIG     1      17.259  35.602  24.191  1.00  0.00    -0.005 A 
HETATM    8  C   LIG     1      17.795  34.822  25.225  1.00  0.00     0.014 A 
HETATM    9  C   LIG     1      18.168  35.422  26.431  1.00  0.00     0.004 A 
HETATM   10  C   LIG     1      18.010  36.799  26.611  1.00  0.00     0.039 A 
ENDROOT
BRANCH   1  11
HETATM   11  O   LIG     1      17.335  38.963  25.803  1.00  0.00    -0.358 OA
HETATM   12  H   LIG     1      17.524  39.647  25.080  1.00  0.00     0.217 HD
ENDBRANCH   1  11
TORSDOF 1
ENDMDL
MODEL 2
REMARK VINA RESULT:      -7.1      1.134      3.342
REMARK  1 active torsions:
REMARK  status: ('A' for Active; 'I' for Inactive)
REMARK    1  A    between atoms: O_1  and  C_2 
ROOT
HETATM    1  C   LIG     1      16.821  37.879  23.292  1.00  0.00     0.095 A 
HETATM    2  C   LIG     1      17.243  37.058  24.355  1.00  0.00     0.099 A 
HETATM    3  N   LIG     1      17.627  37.604  25.542  1.00  0.00    -0.257 NA
HETATM    4  C   LIG     1      18.039  36.837  26.586  1.00  0.00     0.117 A 
HETATM    5  C   LIG     1      18.080  35.447  26.463  1.00  0.00     0.020 A 
HETATM    6  C   LIG     1      17.694  34.853  25.260  1.00  0.00     0.015 A 
HETATM    7  C   LIG     1      17.270  35.653  24.192  1.00  0.00    -0.005 A 
HETATM    8  C   LIG     1      16.877  35.086  22.971  1.00  0.00     0.014 A 
HETATM    9  C   LIG     1      16.459  35.907  21.921  1.00  0.00     0.004 A 
HETATM   10  C   LIG     1      16.432  37.295  22.081  1.00  0.00     0.039 A 
ENDROOT
BRANCH   1  11
HETATM   11  O   LIG     1      16.781  39.268  23.415  1.00  0.00    -0.358 OA
HETATM   12  H   LIG     1      15.940  39.803  23.232  1.00  0.00     0.217 HD
ENDBRANCH   1  11
TORSDOF 1
ENDMDL
MODEL 3
REMARK VINA RESULT:      -6.9      2.143      4.092
REMARK  1 active torsions:
REMARK  status: ('A' for Active; 'I' for Inactive)
REMARK    1  A    between atoms: O_1  and  C_2 
ROOT
HETATM    1  C   LIG     1      16.757  36.018  22.782  1.00  0.00     0.095 A 
HETATM    2  C   LIG     1      17.236  36.024  24.106  1.00  0.00     0.099 A 
HETATM    3  N   LIG     1      17.329  34.865  24.815  1.00  0.00    -0.257 NA
HETATM    4  C   LIG     1      17.788  34.841  26.095  1.00  0.00     0.117 A 
HETATM    5  C   LIG     1      18.182  36.024  26.722  1.00  0.00     0.020 A 
HETATM    6  C   LIG     1      18.101  37.231  26.025  1.00  0.00     0.015 A 
HETATM    7  C   LIG     1      17.626  37.244  24.707  1.00  0.00    -0.005 A 
HETATM    8  C   LIG     1      17.533  38.440  23.982  1.00  0.00     0.014 A 
HETATM    9  C   LIG     1      17.056  38.426  22.669  1.00  0.00     0.004 A 
HETATM   10  C   LIG     1      16.670  37.222  22.073  1.00  0.00     0.039 A 
ENDROOT
BRANCH   1  11
HETATM   11  O   LIG     1      16.363  34.836  22.155  1.00  0.00    -0.358 OA
HETATM   12  H   LIG     1      17.017  34.089  21.949  1.00  0.00     0.217 HD
ENDBRANCH   1  11
TORSDOF 1
ENDMDL
MODEL 4
REMARK VINA RESULT:      -6.9      2.994      4.071
REMARK  1 active torsions:
REMARK  status: ('A' for Active; 'I' for Inactive)
REMARK    1  A    between atoms: O_1  and  C_2 
ROOT
HETATM    1  C   LIG     1      16.882  38.208  22.398  1.00  0.00     0.095 A 
HETATM    2  C   LIG     1      17.867  38.144  21.394  1.00  0.00     0.099 A 
HETATM    3  N   LIG     1      18.668  39.215  21.139  1.00  0.00    -0.257 NA
HETATM    4  C   LIG     1      19.627  39.182  20.175  1.00  0.00     0.117 A 
HETATM    5  C   LIG     1      19.814  38.029  19.411  1.00  0.00     0.020 A 
HETATM    6  C   LIG     1      19.011  36.912  19.644  1.00  0.00     0.015 A 
HETATM    7  C   LIG     1      18.026  36.957  20.640  1.00  0.00    -0.005 A 
HETATM    8  C   LIG     1      17.204  35.851  20.897  1.00  0.00     0.014 A 
HETATM    9  C   LIG     1      16.229  35.923  21.896  1.00  0.00     0.004 A 
HETATM   10  C   LIG     1      16.070  37.095  22.641  1.00  0.00     0.039 A 
ENDROOT
BRANCH   1  11
HETATM   11  O   LIG     1      16.695  39.360  23.162  1.00  0.00    -0.358 OA
HETATM   12  H   LIG     1      17.308  39.606  23.929  1.00  0.00     0.217 HD
ENDBRANCH   1  11
TORSDOF 1
ENDMDL
MODEL 5
REMARK VINA RESULT:      -6.7      3.058      4.491
REMARK  1 active torsions:
REMARK  status: ('A' for Active; 'I' for Inactive)
REMARK    1  A    between atoms: O_1  and  C_2 
ROOT
HETATM    1  C   LIG     1      18.802  39.100  21.138  1.00  0.00     0.095 A 
HETATM    2  C   LIG     1      17.911  38.032  21.355  1.00  0.00     0.099 A 
HETATM    3  N   LIG     1      16.957  38.111  22.324  1.00  0.00    -0.257 NA
HETATM    4  C   LIG     1      16.083  37.095  22.556  1.00  0.00     0.117 A 
HETATM    5  C   LIG     1      16.146  35.927  21.793  1.00  0.00     0.020 A 
HETATM    6  C   LIG     1      17.111  35.812  20.792  1.00  0.00     0.015 A 
HETATM    7  C   LIG     1      18.006  36.865  20.562  1.00  0.00    -0.005 A 
HETATM    8  C   LIG     1      18.986  36.778  19.563  1.00  0.00     0.014 A 
HETATM    9  C   LIG     1      19.867  37.842  19.354  1.00  0.00     0.004 A 
HETATM   10  C   LIG     1      19.775  38.996  20.137  1.00  0.00     0.039 A 
ENDROOT
BRANCH   1  11
HETATM   11  O   LIG     1      18.740  40.267  21.900  1.00  0.00    -0.358 OA
HETATM   12  H   LIG     1      19.122  40.323  22.836  1.00  0.00     0.217 HD
ENDBRANCH   1  11
TORSDOF 1
ENDMDL
MODEL 6
REMARK VINA RESULT:      -6.6      3.648      4.818
REMARK  1 active torsions:
REMARK  status: ('A' for Active; 'I' for Inactive)
REMARK    1  A    between atoms: O_1  and  C_2 
ROOT
HETATM    1  C   LIG     1      16.826  36.180  21.189  1.00  0.00     0.095 A 
HETATM    2  C   LIG     1      17.828  37.078  20.776  1.00  0.00     0.099 A 
HETATM    3  N   LIG     1      18.706  36.733  19.794  1.00  0.00    -0.257 NA
HETATM    4  C   LIG     1      19.684  37.580  19.375  1.00  0.00     0.117 A 
HETATM    5  C   LIG     1      19.813  38.844  19.953  1.00  0.00     0.020 A 
HETATM    6  C   LIG     1      18.930  39.231  20.963  1.00  0.00     0.015 A 
HETATM    7  C   LIG     1      17.926  38.350  21.386  1.00  0.00    -0.005 A 
HETATM    8  C   LIG     1      17.025  38.710  22.398  1.00  0.00     0.014 A 
HETATM    9  C   LIG     1      16.033  37.813  22.802  1.00  0.00     0.004 A 
HETATM   10  C   LIG     1      15.935  36.555  22.201  1.00  0.00     0.039 A 
ENDROOT
BRANCH   1  11
HETATM   11  O   LIG     1      16.697  34.916  20.612  1.00  0.00    -0.358 OA
HETATM   12  H   LIG     1      16.002  34.714  19.903  1.00  0.00     0.217 HD
ENDBRANCH   1  11
TORSDOF 1
ENDMDL
MODEL 7
REMARK VINA RESULT:      -6.3      8.597      9.982
REMARK  1 active torsions:
REMARK  status: ('A' for Active; 'I' for Inactive)
REMARK    1  A    between atoms: O_1  and  C_2 
ROOT
HETATM    1  C   LIG     1      14.952  32.806  17.211  1.00  0.00     0.095 A 
HETATM    2  C   LIG     1      15.619  32.774  15.972  1.00  0.00     0.099 A 
HETATM    3  N   LIG     1      16.578  33.694  15.677  1.00  0.00    -0.257 NA
HETATM    4  C   LIG     1      17.238  33.689  14.488  1.00  0.00     0.117 A 
HETATM    5  C   LIG     1      16.942  32.722  13.525  1.00  0.00     0.020 A 
HETATM    6  C   LIG     1      15.964  31.763  13.793  1.00  0.00     0.015 A 
HETATM    7  C   LIG     1      15.291  31.779  15.021  1.00  0.00    -0.005 A 
HETATM    8  C   LIG     1      14.303  30.829  15.319  1.00  0.00     0.014 A 
HETATM    9  C   LIG     1      13.646  30.867  16.551  1.00  0.00     0.004 A 
HETATM   10  C   LIG     1      13.968  31.850  17.491  1.00  0.00     0.039 A 
ENDROOT
BRANCH   1  11
HETATM   11  O   LIG     1      15.247  33.772  18.173  1.00  0.00    -0.358 OA
HETATM   12  H   LIG     1      16.185  34.129  18.311  1.00  0.00     0.217 HD
ENDBRANCH   1  11
TORSDOF 1
ENDMDL
MODEL 8
REMARK VINA RESULT:      -6.3      1.788      2.558
REMARK  1 active torsions:
REMARK  status: ('A' for Active; 'I' for Inactive)
REMARK    1  A    between atoms: O_1  and  C_2 
ROOT
HETATM    1  C   LIG     1      17.482  35.890  25.330  1.00  0.00     0.095 A 
HETATM    2  C   LIG     1      17.219  36.017  23.953  1.00  0.00     0.099 A 
HETATM    3  N   LIG     1      17.051  34.914  23.174  1.00  0.00    -0.257 NA
HETATM    4  C   LIG     1      16.796  35.007  21.841  1.00  0.00     0.117 A 
HETATM    5  C   LIG     1      16.700  36.259  21.230  1.00  0.00     0.020 A 
HETATM    6  C   LIG     1      16.866  37.412  21.999  1.00  0.00     0.015 A 
HETATM    7  C   LIG     1      17.128  37.304  23.371  1.00  0.00    -0.005 A 
HETATM    8  C   LIG     1      17.300  38.444  24.168  1.00  0.00     0.014 A 
HETATM    9  C   LIG     1      17.561  38.308  25.534  1.00  0.00     0.004 A 
HETATM   10  C   LIG     1      17.652  37.038  26.111  1.00  0.00     0.039 A 
ENDROOT
BRANCH   1  11
HETATM   11  O   LIG     1      17.579  34.639  25.940  1.00  0.00    -0.358 OA
HETATM   12  H   LIG     1      16.997  33.856  25.665  1.00  0.00     0.217 HD
ENDBRANCH   1  11
TORSDOF 1
ENDMDL
MODEL 9
REMARK VINA RESULT:      -6.3      3.407      5.159
REMARK  1 active torsions:
REMARK  status: ('A' for Active; 'I' for Inactive)
REMARK    1  A    between atoms: O_1  and  C_2 
ROOT
HETATM    1  C   LIG     1      17.780  36.635  20.106  1.00  0.00     0.095 A 
HETATM    2  C   LIG     1      17.588  37.321  21.319  1.00  0.00     0.099 A 
HETATM    3  N   LIG     1      16.663  36.890  22.221  1.00  0.00    -0.257 NA
HETATM    4  C   LIG     1      16.456  37.534  23.401  1.00  0.00     0.117 A 
HETATM    5  C   LIG     1      17.199  38.672  23.720  1.00  0.00     0.020 A 
HETATM    6  C   LIG     1      18.156  39.142  22.819  1.00  0.00     0.015 A 
HETATM    7  C   LIG     1      18.361  38.471  21.607  1.00  0.00    -0.005 A 
HETATM    8  C   LIG     1      19.314  38.920  20.682  1.00  0.00     0.014 A 
HETATM    9  C   LIG     1      19.499  38.232  19.480  1.00  0.00     0.004 A 
HETATM   10  C   LIG     1      18.736  37.097  19.194  1.00  0.00     0.039 A 
ENDROOT
BRANCH   1  11
HETATM   11  O   LIG     1      17.037  35.498  19.786  1.00  0.00    -0.358 OA
HETATM   12  H   LIG     1      17.314  34.570  20.085  1.00  0.00     0.217 HD
ENDBRANCH   1  11
TORSDOF 1
ENDMDL
MODEL 10
REMARK VINA RESULT:      -6.0      9.046     11.101
REMARK  1 active torsions:
REMARK  status: ('A' for Active; 'I' for Inactive)
REMARK    1  A    between atoms: O_1  and  C_2 
ROOT
HETATM    1  C   LIG     1      15.843  31.555  13.816  1.00  0.00     0.095 A 
HETATM    2  C   LIG     1      15.431  32.122  15.037  1.00  0.00     0.099 A 
HETATM    3  N   LIG     1      15.940  33.314  15.454  1.00  0.00    -0.257 NA
HETATM    4  C   LIG     1      15.561  33.885  16.629  1.00  0.00     0.117 A 
HETATM    5  C   LIG     1      14.626  33.250  17.449  1.00  0.00     0.020 A 
HETATM    6  C   LIG     1      14.084  32.027  17.052  1.00  0.00     0.015 A 
HETATM    7  C   LIG     1      14.481  31.449  15.840  1.00  0.00    -0.005 A 
HETATM    8  C   LIG     1      13.954  30.221  15.415  1.00  0.00     0.014 A 
HETATM    9  C   LIG     1      14.368  29.665  14.202  1.00  0.00     0.004 A 
HETATM   10  C   LIG     1      15.307  30.329  13.407  1.00  0.00     0.039 A 
ENDROOT
BRANCH   1  11
HETATM   11  O   LIG     1      16.777  32.189  12.996  1.00  0.00    -0.358 OA
HETATM   12  H   LIG     1      17.763  31.957  13.020  1.00  0.00     0.217 HD
ENDBRANCH   1  11
TORSDOF 1
ENDMDL
MODEL 11
REMARK VINA RESULT:      -6.0      3.434      4.578
REMARK  1 active torsions:
REMARK  status: ('A' for Active; 'I' for Inactive)
REMARK    1  A    between atoms: O_1  and  C_2 
ROOT
HETATM    1  C   LIG     1      18.552  37.977  20.027  1.00  0.00     0.095 A 
HETATM    2  C   LIG     1      17.766  37.066  20.758  1.00  0.00     0.099 A 
HETATM    3  N   LIG     1      17.354  35.898  20.193  1.00  0.00    -0.257 NA
HETATM    4  C   LIG     1      16.594  34.999  20.876  1.00  0.00     0.117 A 
HETATM    5  C   LIG     1      16.213  35.259  22.193  1.00  0.00     0.020 A 
HETATM    6  C   LIG     1      16.618  36.447  22.804  1.00  0.00     0.015 A 
HETATM    7  C   LIG     1      17.401  37.365  22.091  1.00  0.00    -0.005 A 
HETATM    8  C   LIG     1      17.822  38.567  22.677  1.00  0.00     0.014 A 
HETATM    9  C   LIG     1      18.602  39.466  21.945  1.00  0.00     0.004 A 
HETATM   10  C   LIG     1      18.964  39.172  20.627  1.00  0.00     0.039 A 
ENDROOT
BRANCH   1  11
HETATM   11  O   LIG     1      18.932  37.718  18.710  1.00  0.00    -0.358 OA
HETATM   12  H   LIG     1      18.904  36.787  18.312  1.00  0.00     0.217 HD
ENDBRANCH   1  11
TORSDOF 1
ENDMDL
MODEL 12
REMARK VINA RESULT:      -5.9      8.553     10.698
REMARK  1 active torsions:
REMARK  status: ('A' for Active; 'I' for Inactive)
REMARK    1  A    between atoms: O_1  and  C_2 
ROOT
HETATM    1  C   LIG     1      16.269  32.584  14.465  1.00  0.00     0.095 A 
HETATM    2  C   LIG     1      15.547  32.330  15.646  1.00  0.00     0.099 A 
HETATM    3  N   LIG     1      15.694  33.135  16.735  1.00  0.00    -0.257 NA
HETATM    4  C   LIG     1      15.011  32.913  17.889  1.00  0.00     0.117 A 
HETATM    5  C   LIG     1      14.127  31.836  17.987  1.00  0.00     0.020 A 
HETATM    6  C   LIG     1      13.952  30.991  16.890  1.00  0.00     0.015 A 
HETATM    7  C   LIG     1      14.661  31.229  15.706  1.00  0.00    -0.005 A 
HETATM    8  C   LIG     1      14.506  30.397  14.588  1.00  0.00     0.014 A 
HETATM    9  C   LIG     1      15.226  30.656  13.419  1.00  0.00     0.004 A 
HETATM   10  C   LIG     1      16.102  31.744  13.358  1.00  0.00     0.039 A 
ENDROOT
BRANCH   1  11
HETATM   11  O   LIG     1      17.152  33.660  14.367  1.00  0.00    -0.358 OA
HETATM   12  H   LIG     1      17.459  34.183  15.179  1.00  0.00     0.217 HD
ENDBRANCH   1  11
TORSDOF 1
ENDMDL
MODEL 13
REMARK VINA RESULT:      -5.8      9.283     10.866
REMARK  1 active torsions:
REMARK  status: ('A' for Active; 'I' for Inactive)
REMARK    1  A    between atoms: O_1  and  C_2 
ROOT
HETATM    1  C   LIG     1      16.018  32.561  15.714  1.00  0.00     0.095 A 
HETATM    2  C   LIG     1      15.385  31.444  15.137  1.00  0.00     0.099 A 
HETATM    3  N   LIG     1      15.976  30.761  14.118  1.00  0.00    -0.257 NA
HETATM    4  C   LIG     1      15.388  29.680  13.542  1.00  0.00     0.117 A 
HETATM    5  C   LIG     1      14.141  29.237  13.988  1.00  0.00     0.020 A 
HETATM    6  C   LIG     1      13.506  29.914  15.031  1.00  0.00     0.015 A 
HETATM    7  C   LIG     1      14.121  31.026  15.617  1.00  0.00    -0.005 A 
HETATM    8  C   LIG     1      13.507  31.726  16.666  1.00  0.00     0.014 A 
HETATM    9  C   LIG     1      14.143  32.834  17.233  1.00  0.00     0.004 A 
HETATM   10  C   LIG     1      15.391  33.248  16.760  1.00  0.00     0.039 A 
ENDROOT
BRANCH   1  11
HETATM   11  O   LIG     1      17.264  33.004  15.268  1.00  0.00    -0.358 OA
HETATM   12  H   LIG     1      17.910  33.499  15.871  1.00  0.00     0.217 HD
ENDBRANCH   1  11
TORSDOF 1
ENDMDL
MODEL 14
REMARK VINA RESULT:      -5.7     10.053     11.355
REMARK  1 active torsions:
REMARK  status: ('A' for Active; 'I' for Inactive)
REMARK    1  A    between atoms: O_1  and  C_2 
ROOT
HETATM    1  C   LIG     1      14.631  30.212  14.324  1.00  0.00     0.095 A 
HETATM    2  C   LIG     1      15.352  31.352  14.725  1.00  0.00     0.099 A 
HETATM    3  N   LIG     1      16.463  31.746  14.042  1.00  0.00    -0.257 NA
HETATM    4  C   LIG     1      17.179  32.842  14.407  1.00  0.00     0.117 A 
HETATM    5  C   LIG     1      16.786  33.604  15.509  1.00  0.00     0.020 A 
HETATM    6  C   LIG     1      15.652  33.229  16.233  1.00  0.00     0.015 A 
HETATM    7  C   LIG     1      14.922  32.098  15.848  1.00  0.00    -0.005 A 
HETATM    8  C   LIG     1      13.780  31.697  16.555  1.00  0.00     0.014 A 
HETATM    9  C   LIG     1      13.069  30.564  16.150  1.00  0.00     0.004 A 
HETATM   10  C   LIG     1      13.493  29.826  15.042  1.00  0.00     0.039 A 
ENDROOT
BRANCH   1  11
HETATM   11  O   LIG     1      15.024  29.451  13.223  1.00  0.00    -0.358 OA
HETATM   12  H   LIG     1      15.983  29.427  12.896  1.00  0.00     0.217 HD
ENDBRANCH   1  11
TORSDOF 1
ENDMDL
MODEL 15
REMARK VINA RESULT:      -5.7      1.945      2.465
REMARK  1 active torsions:
REMARK  status: ('A' for Active; 'I' for Inactive)
REMARK    1  A    between atoms: O_1  and  C_2 
ROOT
HETATM    1  C   LIG     1      18.013  38.574  22.839  1.00  0.00     0.095 A 
HETATM    2  C   LIG     1      17.553  37.355  22.306  1.00  0.00     0.099 A 
HETATM    3  N   LIG     1      17.571  37.135  20.962  1.00  0.00    -0.257 NA
HETATM    4  C   LIG     1      17.133  35.968  20.419  1.00  0.00     0.117 A 
HETATM    5  C   LIG     1      16.645  34.950  21.242  1.00  0.00     0.020 A 
HETATM    6  C   LIG     1      16.611  35.141  22.624  1.00  0.00     0.015 A 
HETATM    7  C   LIG     1      17.066  36.348  23.172  1.00  0.00    -0.005 A 
HETATM    8  C   LIG     1      17.044  36.569  24.556  1.00  0.00     0.014 A 
HETATM    9  C   LIG     1      17.503  37.781  25.078  1.00  0.00     0.004 A 
HETATM   10  C   LIG     1      17.984  38.778  24.223  1.00  0.00     0.039 A 
ENDROOT
BRANCH   1  11
HETATM   11  O   LIG     1      18.500  39.591  22.017  1.00  0.00    -0.358 OA
HETATM   12  H   LIG     1      18.830  40.474  22.388  1.00  0.00     0.217 HD
ENDBRANCH   1  11
TORSDOF 1
ENDMDL
MODEL 16
REMARK VINA RESULT:      -5.6      9.284     10.956
REMARK  1 active torsions:
REMARK  status: ('A' for Active; 'I' for Inactive)
REMARK    1  A    between atoms: O_1  and  C_2 
ROOT
HETATM    1  C   LIG     1      13.828  32.054  16.702  1.00  0.00     0.095 A 
HETATM    2  C   LIG     1      14.081  31.120  15.679  1.00  0.00     0.099 A 
HETATM    3  N   LIG     1      13.199  30.115  15.425  1.00  0.00    -0.257 NA
HETATM    4  C   LIG     1      13.417  29.199  14.444  1.00  0.00     0.117 A 
HETATM    5  C   LIG     1      14.572  29.270  13.661  1.00  0.00     0.020 A 
HETATM    6  C   LIG     1      15.498  30.288  13.894  1.00  0.00     0.015 A 
HETATM    7  C   LIG     1      15.262  31.226  14.908  1.00  0.00    -0.005 A 
HETATM    8  C   LIG     1      16.174  32.259  15.166  1.00  0.00     0.014 A 
HETATM    9  C   LIG     1      15.915  33.182  16.183  1.00  0.00     0.004 A 
HETATM   10  C   LIG     1      14.749  33.079  16.946  1.00  0.00     0.039 A 
ENDROOT
BRANCH   1  11
HETATM   11  O   LIG     1      12.674  31.983  17.484  1.00  0.00    -0.358 OA
HETATM   12  H   LIG     1      11.892  31.387  17.242  1.00  0.00     0.217 HD
ENDBRANCH   1  11
TORSDOF 1
ENDMDL
MODEL 17
REMARK VINA RESULT:      -5.4      2.016      2.771
REMARK  1 active torsions:
REMARK  status: ('A' for Active; 'I' for Inactive)
REMARK    1  A    between atoms: O_1  and  C_2 
ROOT
HETATM    1  C   LIG     1      17.060  35.314  24.365  1.00  0.00     0.095 A 
HETATM    2  C   LIG     1      17.331  36.589  23.834  1.00  0.00     0.099 A 
HETATM    3  N   LIG     1      16.908  36.924  22.583  1.00  0.00    -0.257 NA
HETATM    4  C   LIG     1      17.155  38.148  22.045  1.00  0.00     0.117 A 
HETATM    5  C   LIG     1      17.861  39.106  22.775  1.00  0.00     0.020 A 
HETATM    6  C   LIG     1      18.309  38.798  24.060  1.00  0.00     0.015 A 
HETATM    7  C   LIG     1      18.049  37.534  24.604  1.00  0.00    -0.005 A 
HETATM    8  C   LIG     1      18.487  37.195  25.892  1.00  0.00     0.014 A 
HETATM    9  C   LIG     1      18.214  35.927  26.412  1.00  0.00     0.004 A 
HETATM   10  C   LIG     1      17.505  34.992  25.652  1.00  0.00     0.039 A 
ENDROOT
BRANCH   1  11
HETATM   11  O   LIG     1      16.355  34.356  23.636  1.00  0.00    -0.358 OA
HETATM   12  H   LIG     1      16.742  33.444  23.425  1.00  0.00     0.217 HD
ENDBRANCH   1  11
TORSDOF 1
ENDMDL
MODEL 18
REMARK VINA RESULT:      -5.1      5.740      7.860
REMARK  1 active torsions:
REMARK  status: ('A' for Active; 'I' for Inactive)
REMARK    1  A    between atoms: O_1  and  C_2 
ROOT
HETATM    1  C   LIG     1      15.384  33.725  16.829  1.00  0.00     0.095 A 
HETATM    2  C   LIG     1      15.413  33.840  18.231  1.00  0.00     0.099 A 
HETATM    3  N   LIG     1      15.892  34.968  18.824  1.00  0.00    -0.257 NA
HETATM    4  C   LIG     1      15.932  35.108  20.177  1.00  0.00     0.117 A 
HETATM    5  C   LIG     1      15.476  34.078  21.002  1.00  0.00     0.020 A 
HETATM    6  C   LIG     1      14.978  32.907  20.428  1.00  0.00     0.015 A 
HETATM    7  C   LIG     1      14.941  32.776  19.034  1.00  0.00    -0.005 A 
HETATM    8  C   LIG     1      14.447  31.611  18.429  1.00  0.00     0.014 A 
HETATM    9  C   LIG     1      14.421  31.505  17.036  1.00  0.00     0.004 A 
HETATM   10  C   LIG     1      14.887  32.556  16.241  1.00  0.00     0.039 A 
ENDROOT
BRANCH   1  11
HETATM   11  O   LIG     1      15.840  34.754  16.003  1.00  0.00    -0.358 OA
HETATM   12  H   LIG     1      16.682  35.278  16.208  1.00  0.00     0.217 HD
ENDBRANCH   1  11
TORSDOF 1
ENDMDL
MODEL 19
REMARK VINA RESULT:      -5.1     16.503     16.874
REMARK  1 active torsions:
REMARK  status: ('A' for Active; 'I' for Inactive)
REMARK    1  A    between atoms: O_1  and  C_2 
ROOT
HETATM    1  C   LIG     1       4.422  41.822  35.179  1.00  0.00     0.095 A 
HETATM    2  C   LIG     1       3.998  41.675  33.844  1.00  0.00     0.099 A 
HETATM    3  N   LIG     1       3.769  42.767  33.065  1.00  0.00    -0.257 NA
HETATM    4  C   LIG     1       3.359  42.655  31.773  1.00  0.00     0.117 A 
HETATM    5  C   LIG     1       3.160  41.394  31.207  1.00  0.00     0.020 A 
HETATM    6  C   LIG     1       3.385  40.252  31.977  1.00  0.00     0.015 A 
HETATM    7  C   LIG     1       3.808  40.380  33.306  1.00  0.00    -0.005 A 
HETATM    8  C   LIG     1       4.042  39.252  34.104  1.00  0.00     0.014 A 
HETATM    9  C   LIG     1       4.462  39.407  35.428  1.00  0.00     0.004 A 
HETATM   10  C   LIG     1       4.651  40.685  35.961  1.00  0.00     0.039 A 
ENDROOT
BRANCH   1  11
HETATM   11  O   LIG     1       4.621  43.082  35.745  1.00  0.00    -0.358 OA
HETATM   12  H   LIG     1       5.356  43.262  36.418  1.00  0.00     0.217 HD
ENDBRANCH   1  11
TORSDOF 1
ENDMDL
MODEL 20
REMARK VINA RESULT:      -4.9     16.577     17.130
REMARK  1 active torsions:
REMARK  status: ('A' for Active; 'I' for Inactive)
REMARK    1  A    between atoms: O_1  and  C_2 
ROOT
HETATM    1  C   LIG     1       3.909  42.927  33.162  1.00  0.00     0.095 A 
HETATM    2  C   LIG     1       4.086  41.741  33.899  1.00  0.00     0.099 A 
HETATM    3  N   LIG     1       4.530  41.784  35.185  1.00  0.00    -0.257 NA
HETATM    4  C   LIG     1       4.711  40.655  35.921  1.00  0.00     0.117 A 
HETATM    5  C   LIG     1       4.440  39.404  35.365  1.00  0.00     0.020 A 
HETATM    6  C   LIG     1       3.984  39.322  34.048  1.00  0.00     0.015 A 
HETATM    7  C   LIG     1       3.801  40.492  33.300  1.00  0.00    -0.005 A 
HETATM    8  C   LIG     1       3.344  40.441  31.975  1.00  0.00     0.014 A 
HETATM    9  C   LIG     1       3.171  41.623  31.250  1.00  0.00     0.004 A 
HETATM   10  C   LIG     1       3.452  42.859  31.840  1.00  0.00     0.039 A 
ENDROOT
BRANCH   1  11
HETATM   11  O   LIG     1       4.179  44.178  33.718  1.00  0.00    -0.358 OA
HETATM   12  H   LIG     1       4.604  44.927  33.184  1.00  0.00     0.217 HD
ENDBRANCH   1  11
TORSDOF 1
ENDMDL
