REMARK  1 active torsions:
REMARK  status: ('A' for Active; 'I' for Inactive)
REMARK    1  A    between atoms: O_1  and  C_2 
ROOT
HETATM    1  C   LIG     1       1.258   1.165   0.300  1.00  0.00     0.095 A 
HETATM    2  C   LIG     1      -0.027   0.634   0.080  1.00  0.00     0.099 A 
HETATM    3  N   LIG     1      -1.119   1.447   0.060  1.00  0.00    -0.257 NA
HETATM    4  C   LIG     1      -2.372   0.962  -0.150  1.00  0.00     0.117 A 
HETATM    5  C   LIG     1      -2.571  -0.405  -0.353  1.00  0.00     0.020 A 
HETATM    6  C   LIG     1      -1.474  -1.268  -0.339  1.00  0.00     0.015 A 
HETATM    7  C   LIG     1      -0.188  -0.757  -0.122  1.00  0.00    -0.005 A 
HETATM    8  C   LIG     1       0.933  -1.599  -0.102  1.00  0.00     0.014 A 
HETATM    9  C   LIG     1       2.205  -1.064   0.117  1.00  0.00     0.004 A 
HETATM   10  C   LIG     1       2.366   0.310   0.317  1.00  0.00     0.039 A 
ENDROOT
BRANCH   1  11
HETATM   11  O   LIG     1       1.457   2.531   0.503  1.00  0.00    -0.358 OA
HETATM   12  H   LIG     1       0.692   3.195   0.502  1.00  0.00     0.217 HD
ENDBRANCH   1  11
TORSDOF 1
