REMARK  1 active torsions:
REMARK  status: ('A' for Active; 'I' for Inactive)
REMARK    1  A    between atoms: S_1  and  C_2 
ROOT
HETATM    1  C   LIG     1       2.334  -0.687   0.048  1.00  0.00     0.133 A 
HETATM    2  N   LIG     1       1.689   0.293   0.724  1.00  0.00    -0.234 NA
HETATM    3  C   LIG     1       0.363   0.283   0.435  1.00  0.00     0.075 A 
HETATM    4  C   LIG     1      -0.569   1.172   0.974  1.00  0.00     0.033 A 
HETATM    5  C   LIG     1      -1.916   1.052   0.590  1.00  0.00     0.002 A 
HETATM    6  C   LIG     1      -2.313   0.053  -0.321  1.00  0.00     0.002 A 
HETATM    7  C   LIG     1      -1.367  -0.835  -0.857  1.00  0.00     0.021 A 
HETATM    8  C   LIG     1      -0.040  -0.696  -0.461  1.00  0.00     0.036 A 
HETATM    9  S   LIG     1       1.295  -1.600  -0.928  1.00  0.00    -0.061 SA
ENDROOT
BRANCH   1  10
HETATM   10  S   LIG     1       4.091  -0.974   0.180  1.00  0.00    -0.116 SA
HETATM   11  H   LIG     1       4.366  -0.098  -0.887  1.00  0.00     0.109 HD
ENDBRANCH   1  10
TORSDOF 1
