MODEL 1
REMARK VINA RESULT:      -6.2      0.000      0.000
REMARK  1 active torsions:
REMARK  status: ('A' for Active; 'I' for Inactive)
REMARK    1  A    between atoms: S_1  and  C_2 
ROOT
HETATM    1  C   LIG     1      16.483  35.798  22.154  1.00  0.00     0.133 A 
HETATM    2  N   LIG     1      16.833  34.899  23.105  1.00  0.00    -0.234 NA
HETATM    3  C   LIG     1      17.246  35.530  24.233  1.00  0.00     0.075 A 
HETATM    4  C   LIG     1      17.672  34.878  25.392  1.00  0.00     0.033 A 
HETATM    5  C   LIG     1      18.074  35.653  26.493  1.00  0.00     0.002 A 
HETATM    6  C   LIG     1      18.046  37.060  26.425  1.00  0.00     0.002 A 
HETATM    7  C   LIG     1      17.616  37.705  25.255  1.00  0.00     0.021 A 
HETATM    8  C   LIG     1      17.222  36.916  24.178  1.00  0.00     0.036 A 
HETATM    9  S   LIG     1      16.668  37.399  22.669  1.00  0.00    -0.061 SA
ENDROOT
BRANCH   1  10
HETATM   10  S   LIG     1      15.892  35.330  20.536  1.00  0.00    -0.116 SA
HETATM   11  H   LIG     1      16.294  33.993  20.719  1.00  0.00     0.109 HD
ENDBRANCH   1  10
TORSDOF 1
ENDMDL
MODEL 2
REMARK VINA RESULT:      -6.0      3.540      4.432
REMARK  1 active torsions:
REMARK  status: ('A' for Active; 'I' for Inactive)
REMARK    1  A    between atoms: S_1  and  C_2 
ROOT
HETATM    1  C   LIG     1      16.347  35.693  21.156  1.00  0.00     0.133 A 
HETATM    2  N   LIG     1      17.256  35.739  20.154  1.00  0.00    -0.234 NA
HETATM    3  C   LIG     1      18.031  36.849  20.259  1.00  0.00     0.075 A 
HETATM    4  C   LIG     1      19.059  37.180  19.374  1.00  0.00     0.033 A 
HETATM    5  C   LIG     1      19.787  38.362  19.599  1.00  0.00     0.002 A 
HETATM    6  C   LIG     1      19.481  39.192  20.696  1.00  0.00     0.002 A 
HETATM    7  C   LIG     1      18.445  38.849  21.578  1.00  0.00     0.021 A 
HETATM    8  C   LIG     1      17.739  37.674  21.335  1.00  0.00     0.036 A 
HETATM    9  S   LIG     1      16.465  37.015  22.206  1.00  0.00    -0.061 SA
ENDROOT
BRANCH   1  10
HETATM   10  S   LIG     1      15.157  34.375  21.338  1.00  0.00    -0.116 SA
HETATM   11  H   LIG     1      15.984  33.684  22.243  1.00  0.00     0.109 HD
ENDBRANCH   1  10
TORSDOF 1
ENDMDL
MODEL 3
REMARK VINA RESULT:      -5.7      1.756      2.575
REMARK  1 active torsions:
REMARK  status: ('A' for Active; 'I' for Inactive)
REMARK    1  A    between atoms: S_1  and  C_2 
ROOT
HETATM    1  C   LIG     1      17.633  38.048  22.935  1.00  0.00     0.133 A 
HETATM    2  N   LIG     1      18.197  38.245  24.150  1.00  0.00    -0.234 NA
HETATM    3  C   LIG     1      18.041  37.149  24.935  1.00  0.00     0.075 A 
HETATM    4  C   LIG     1      18.513  37.042  26.245  1.00  0.00     0.033 A 
HETATM    5  C   LIG     1      18.283  35.848  26.950  1.00  0.00     0.002 A 
HETATM    6  C   LIG     1      17.591  34.781  26.342  1.00  0.00     0.002 A 
HETATM    7  C   LIG     1      17.121  34.900  25.024  1.00  0.00     0.021 A 
HETATM    8  C   LIG     1      17.361  36.092  24.348  1.00  0.00     0.036 A 
HETATM    9  S   LIG     1      16.924  36.518  22.784  1.00  0.00    -0.061 SA
ENDROOT
BRANCH   1  10
HETATM   10  S   LIG     1      17.643  39.277  21.641  1.00  0.00    -0.116 SA
HETATM   11  H   LIG     1      17.168  40.274  22.514  1.00  0.00     0.109 HD
ENDBRANCH   1  10
TORSDOF 1
ENDMDL
MODEL 4
REMARK VINA RESULT:      -5.4      3.454      5.320
REMARK  1 active torsions:
REMARK  status: ('A' for Active; 'I' for Inactive)
REMARK    1  A    between atoms: S_1  and  C_2 
ROOT
HETATM    1  C   LIG     1      17.595  37.970  23.432  1.00  0.00     0.133 A 
HETATM    2  N   LIG     1      18.296  38.903  22.745  1.00  0.00    -0.234 NA
HETATM    3  C   LIG     1      18.487  38.509  21.460  1.00  0.00     0.075 A 
HETATM    4  C   LIG     1      19.174  39.255  20.500  1.00  0.00     0.033 A 
HETATM    5  C   LIG     1      19.300  38.731  19.202  1.00  0.00     0.002 A 
HETATM    6  C   LIG     1      18.741  37.478  18.880  1.00  0.00     0.002 A 
HETATM    7  C   LIG     1      18.052  36.737  19.853  1.00  0.00     0.021 A 
HETATM    8  C   LIG     1      17.941  37.277  21.131  1.00  0.00     0.036 A 
HETATM    9  S   LIG     1      17.185  36.630  22.482  1.00  0.00    -0.061 SA
ENDROOT
BRANCH   1  10
HETATM   10  S   LIG     1      17.158  38.147  25.154  1.00  0.00    -0.116 SA
HETATM   11  H   LIG     1      16.900  39.522  25.000  1.00  0.00     0.109 HD
ENDBRANCH   1  10
TORSDOF 1
ENDMDL
MODEL 5
REMARK VINA RESULT:      -5.3      8.891     10.041
REMARK  1 active torsions:
REMARK  status: ('A' for Active; 'I' for Inactive)
REMARK    1  A    between atoms: S_1  and  C_2 
ROOT
HETATM    1  C   LIG     1      16.979  33.024  14.173  1.00  0.00     0.133 A 
HETATM    2  N   LIG     1      16.635  33.389  15.431  1.00  0.00    -0.234 NA
HETATM    3  C   LIG     1      15.634  32.603  15.902  1.00  0.00     0.075 A 
HETATM    4  C   LIG     1      15.059  32.730  17.168  1.00  0.00     0.033 A 
HETATM    5  C   LIG     1      14.027  31.848  17.532  1.00  0.00     0.002 A 
HETATM    6  C   LIG     1      13.584  30.857  16.634  1.00  0.00     0.002 A 
HETATM    7  C   LIG     1      14.169  30.738  15.363  1.00  0.00     0.021 A 
HETATM    8  C   LIG     1      15.189  31.623  15.026  1.00  0.00     0.036 A 
HETATM    9  S   LIG     1      16.065  31.721  13.598  1.00  0.00    -0.061 SA
ENDROOT
BRANCH   1  10
HETATM   10  S   LIG     1      18.261  33.839  13.234  1.00  0.00    -0.116 SA
HETATM   11  H   LIG     1      18.997  32.646  13.108  1.00  0.00     0.109 HD
ENDBRANCH   1  10
TORSDOF 1
ENDMDL
MODEL 6
REMARK VINA RESULT:      -5.2      9.786     10.893
REMARK  1 active torsions:
REMARK  status: ('A' for Active; 'I' for Inactive)
REMARK    1  A    between atoms: S_1  and  C_2 
ROOT
HETATM    1  C   LIG     1      17.071  32.851  14.082  1.00  0.00     0.133 A 
HETATM    2  N   LIG     1      16.500  31.777  13.487  1.00  0.00    -0.234 NA
HETATM    3  C   LIG     1      15.483  31.292  14.244  1.00  0.00     0.075 A 
HETATM    4  C   LIG     1      14.700  30.189  13.900  1.00  0.00     0.033 A 
HETATM    5  C   LIG     1      13.675  29.790  14.776  1.00  0.00     0.002 A 
HETATM    6  C   LIG     1      13.447  30.493  15.976  1.00  0.00     0.002 A 
HETATM    7  C   LIG     1      14.241  31.601  16.311  1.00  0.00     0.021 A 
HETATM    8  C   LIG     1      15.249  31.976  15.428  1.00  0.00     0.036 A 
HETATM    9  S   LIG     1      16.343  33.242  15.560  1.00  0.00    -0.061 SA
ENDROOT
BRANCH   1  10
HETATM   10  S   LIG     1      18.442  33.748  13.374  1.00  0.00    -0.116 SA
HETATM   11  H   LIG     1      18.326  33.062  12.150  1.00  0.00     0.109 HD
ENDBRANCH   1  10
TORSDOF 1
ENDMDL
MODEL 7
REMARK VINA RESULT:      -4.8      1.333      2.087
REMARK  1 active torsions:
REMARK  status: ('A' for Active; 'I' for Inactive)
REMARK    1  A    between atoms: S_1  and  C_2 
ROOT
HETATM    1  C   LIG     1      16.411  35.862  21.789  1.00  0.00     0.133 A 
HETATM    2  N   LIG     1      16.431  37.143  22.226  1.00  0.00    -0.234 NA
HETATM    3  C   LIG     1      16.877  37.206  23.507  1.00  0.00     0.075 A 
HETATM    4  C   LIG     1      17.012  38.387  24.239  1.00  0.00     0.033 A 
HETATM    5  C   LIG     1      17.487  38.311  25.559  1.00  0.00     0.002 A 
HETATM    6  C   LIG     1      17.820  37.066  26.129  1.00  0.00     0.002 A 
HETATM    7  C   LIG     1      17.681  35.885  25.384  1.00  0.00     0.021 A 
HETATM    8  C   LIG     1      17.208  35.986  24.078  1.00  0.00     0.036 A 
HETATM    9  S   LIG     1      16.941  34.762  22.961  1.00  0.00    -0.061 SA
ENDROOT
BRANCH   1  10
HETATM   10  S   LIG     1      15.878  35.396  20.149  1.00  0.00    -0.116 SA
HETATM   11  H   LIG     1      14.548  35.224  20.575  1.00  0.00     0.109 HD
ENDBRANCH   1  10
TORSDOF 1
ENDMDL
MODEL 8
REMARK VINA RESULT:      -4.8      1.770      2.058
REMARK  1 active torsions:
REMARK  status: ('A' for Active; 'I' for Inactive)
REMARK    1  A    between atoms: S_1  and  C_2 
ROOT
HETATM    1  C   LIG     1      16.660  37.982  23.484  1.00  0.00     0.133 A 
HETATM    2  N   LIG     1      16.604  36.634  23.600  1.00  0.00    -0.234 NA
HETATM    3  C   LIG     1      17.295  36.217  24.691  1.00  0.00     0.075 A 
HETATM    4  C   LIG     1      17.424  34.882  25.080  1.00  0.00     0.033 A 
HETATM    5  C   LIG     1      18.170  34.585  26.235  1.00  0.00     0.002 A 
HETATM    6  C   LIG     1      18.773  35.618  26.980  1.00  0.00     0.002 A 
HETATM    7  C   LIG     1      18.637  36.956  26.579  1.00  0.00     0.021 A 
HETATM    8  C   LIG     1      17.894  37.224  25.433  1.00  0.00     0.036 A 
HETATM    9  S   LIG     1      17.562  38.707  24.720  1.00  0.00    -0.061 SA
ENDROOT
BRANCH   1  10
HETATM   10  S   LIG     1      15.866  38.885  22.165  1.00  0.00    -0.116 SA
HETATM   11  H   LIG     1      16.418  38.040  21.185  1.00  0.00     0.109 HD
ENDBRANCH   1  10
TORSDOF 1
ENDMDL
MODEL 9
REMARK VINA RESULT:      -4.6      2.760      3.562
REMARK  1 active torsions:
REMARK  status: ('A' for Active; 'I' for Inactive)
REMARK    1  A    between atoms: S_1  and  C_2 
ROOT
HETATM    1  C   LIG     1      18.509  38.215  20.251  1.00  0.00     0.133 A 
HETATM    2  N   LIG     1      18.345  38.874  21.423  1.00  0.00    -0.234 NA
HETATM    3  C   LIG     1      17.811  38.055  22.364  1.00  0.00     0.075 A 
HETATM    4  C   LIG     1      17.522  38.440  23.674  1.00  0.00     0.033 A 
HETATM    5  C   LIG     1      16.970  37.490  24.551  1.00  0.00     0.002 A 
HETATM    6  C   LIG     1      16.716  36.176  24.112  1.00  0.00     0.002 A 
HETATM    7  C   LIG     1      17.010  35.799  22.792  1.00  0.00     0.021 A 
HETATM    8  C   LIG     1      17.556  36.758  21.943  1.00  0.00     0.036 A 
HETATM    9  S   LIG     1      18.005  36.601  20.334  1.00  0.00    -0.061 SA
ENDROOT
BRANCH   1  10
HETATM   10  S   LIG     1      19.186  38.978  18.786  1.00  0.00    -0.116 SA
HETATM   11  H   LIG     1      19.826  37.786  18.399  1.00  0.00     0.109 HD
ENDBRANCH   1  10
TORSDOF 1
ENDMDL
MODEL 10
REMARK VINA RESULT:      -4.5      8.179     10.631
REMARK  1 active torsions:
REMARK  status: ('A' for Active; 'I' for Inactive)
REMARK    1  A    between atoms: S_1  and  C_2 
ROOT
HETATM    1  C   LIG     1      15.062  33.059  16.916  1.00  0.00     0.133 A 
HETATM    2  N   LIG     1      13.974  32.253  16.903  1.00  0.00    -0.234 NA
HETATM    3  C   LIG     1      14.069  31.334  15.909  1.00  0.00     0.075 A 
HETATM    4  C   LIG     1      13.104  30.362  15.638  1.00  0.00     0.033 A 
HETATM    5  C   LIG     1      13.327  29.468  14.576  1.00  0.00     0.002 A 
HETATM    6  C   LIG     1      14.502  29.556  13.803  1.00  0.00     0.002 A 
HETATM    7  C   LIG     1      15.465  30.538  14.084  1.00  0.00     0.021 A 
HETATM    8  C   LIG     1      15.221  31.411  15.141  1.00  0.00     0.036 A 
HETATM    9  S   LIG     1      16.178  32.669  15.704  1.00  0.00    -0.061 SA
ENDROOT
BRANCH   1  10
HETATM   10  S   LIG     1      15.282  34.388  18.088  1.00  0.00    -0.116 SA
HETATM   11  H   LIG     1      16.597  34.628  17.646  1.00  0.00     0.109 HD
ENDBRANCH   1  10
TORSDOF 1
ENDMDL
MODEL 11
REMARK VINA RESULT:      -4.5      9.485     10.744
REMARK  1 active torsions:
REMARK  status: ('A' for Active; 'I' for Inactive)
REMARK    1  A    between atoms: S_1  and  C_2 
ROOT
HETATM    1  C   LIG     1      13.768  29.259  14.368  1.00  0.00     0.133 A 
HETATM    2  N   LIG     1      13.263  29.942  15.422  1.00  0.00    -0.234 NA
HETATM    3  C   LIG     1      14.036  31.019  15.712  1.00  0.00     0.075 A 
HETATM    4  C   LIG     1      13.778  31.920  16.747  1.00  0.00     0.033 A 
HETATM    5  C   LIG     1      14.661  32.996  16.940  1.00  0.00     0.002 A 
HETATM    6  C   LIG     1      15.783  33.159  16.102  1.00  0.00     0.002 A 
HETATM    7  C   LIG     1      16.032  32.247  15.065  1.00  0.00     0.021 A 
HETATM    8  C   LIG     1      15.144  31.190  14.895  1.00  0.00     0.036 A 
HETATM    9  S   LIG     1      15.183  29.958  13.755  1.00  0.00    -0.061 SA
ENDROOT
BRANCH   1  10
HETATM   10  S   LIG     1      13.015  27.783  13.705  1.00  0.00    -0.116 SA
HETATM   11  H   LIG     1      14.109  27.546  12.851  1.00  0.00     0.109 HD
ENDBRANCH   1  10
TORSDOF 1
ENDMDL
MODEL 12
REMARK VINA RESULT:      -4.1      2.620      4.092
REMARK  1 active torsions:
REMARK  status: ('A' for Active; 'I' for Inactive)
REMARK    1  A    between atoms: S_1  and  C_2 
ROOT
HETATM    1  C   LIG     1      17.338  35.802  24.804  1.00  0.00     0.133 A 
HETATM    2  N   LIG     1      17.756  37.089  24.846  1.00  0.00    -0.234 NA
HETATM    3  C   LIG     1      17.813  37.616  23.597  1.00  0.00     0.075 A 
HETATM    4  C   LIG     1      18.209  38.924  23.310  1.00  0.00     0.033 A 
HETATM    5  C   LIG     1      18.223  39.345  21.969  1.00  0.00     0.002 A 
HETATM    6  C   LIG     1      17.844  38.462  20.938  1.00  0.00     0.002 A 
HETATM    7  C   LIG     1      17.448  37.149  21.239  1.00  0.00     0.021 A 
HETATM    8  C   LIG     1      17.443  36.756  22.574  1.00  0.00     0.036 A 
HETATM    9  S   LIG     1      17.023  35.268  23.229  1.00  0.00    -0.061 SA
ENDROOT
BRANCH   1  10
HETATM   10  S   LIG     1      17.144  34.788  26.261  1.00  0.00    -0.116 SA
HETATM   11  H   LIG     1      17.676  33.659  25.608  1.00  0.00     0.109 HD
ENDBRANCH   1  10
TORSDOF 1
ENDMDL
MODEL 13
REMARK VINA RESULT:      -4.1      2.037      4.026
REMARK  1 active torsions:
REMARK  status: ('A' for Active; 'I' for Inactive)
REMARK    1  A    between atoms: S_1  and  C_2 
ROOT
HETATM    1  C   LIG     1      17.704  36.341  25.191  1.00  0.00     0.133 A 
HETATM    2  N   LIG     1      17.321  35.236  24.508  1.00  0.00    -0.234 NA
HETATM    3  C   LIG     1      17.093  35.534  23.203  1.00  0.00     0.075 A 
HETATM    4  C   LIG     1      16.685  34.607  22.242  1.00  0.00     0.033 A 
HETATM    5  C   LIG     1      16.484  35.047  20.923  1.00  0.00     0.002 A 
HETATM    6  C   LIG     1      16.692  36.399  20.581  1.00  0.00     0.002 A 
HETATM    7  C   LIG     1      17.101  37.322  21.556  1.00  0.00     0.021 A 
HETATM    8  C   LIG     1      17.294  36.861  22.855  1.00  0.00     0.036 A 
HETATM    9  S   LIG     1      17.776  37.721  24.214  1.00  0.00    -0.061 SA
ENDROOT
BRANCH   1  10
HETATM   10  S   LIG     1      18.088  36.329  26.935  1.00  0.00    -0.116 SA
HETATM   11  H   LIG     1      17.773  34.962  27.047  1.00  0.00     0.109 HD
ENDBRANCH   1  10
TORSDOF 1
ENDMDL
MODEL 14
REMARK VINA RESULT:      -4.0      9.686     10.994
REMARK  1 active torsions:
REMARK  status: ('A' for Active; 'I' for Inactive)
REMARK    1  A    between atoms: S_1  and  C_2 
ROOT
HETATM    1  C   LIG     1      14.119  29.795  14.366  1.00  0.00     0.133 A 
HETATM    2  N   LIG     1      15.063  30.291  13.532  1.00  0.00    -0.234 NA
HETATM    3  C   LIG     1      15.647  31.392  14.067  1.00  0.00     0.075 A 
HETATM    4  C   LIG     1      16.657  32.130  13.448  1.00  0.00     0.033 A 
HETATM    5  C   LIG     1      17.178  33.253  14.114  1.00  0.00     0.002 A 
HETATM    6  C   LIG     1      16.687  33.623  15.382  1.00  0.00     0.002 A 
HETATM    7  C   LIG     1      15.671  32.873  15.996  1.00  0.00     0.021 A 
HETATM    8  C   LIG     1      15.172  31.766  15.316  1.00  0.00     0.036 A 
HETATM    9  S   LIG     1      13.972  30.694  15.793  1.00  0.00    -0.061 SA
ENDROOT
BRANCH   1  10
HETATM   10  S   LIG     1      13.142  28.349  13.991  1.00  0.00    -0.116 SA
HETATM   11  H   LIG     1      11.988  28.918  14.560  1.00  0.00     0.109 HD
ENDBRANCH   1  10
TORSDOF 1
ENDMDL
MODEL 15
REMARK VINA RESULT:      -3.9      5.664      6.921
REMARK  1 active torsions:
REMARK  status: ('A' for Active; 'I' for Inactive)
REMARK    1  A    between atoms: S_1  and  C_2 
ROOT
HETATM    1  C   LIG     1      14.295  31.727  16.913  1.00  0.00     0.133 A 
HETATM    2  N   LIG     1      14.314  31.478  18.244  1.00  0.00    -0.234 NA
HETATM    3  C   LIG     1      14.811  32.541  18.924  1.00  0.00     0.075 A 
HETATM    4  C   LIG     1      14.959  32.592  20.312  1.00  0.00     0.033 A 
HETATM    5  C   LIG     1      15.488  33.758  20.892  1.00  0.00     0.002 A 
HETATM    6  C   LIG     1      15.861  34.851  20.085  1.00  0.00     0.002 A 
HETATM    7  C   LIG     1      15.709  34.789  18.691  1.00  0.00     0.021 A 
HETATM    8  C   LIG     1      15.182  33.624  18.141  1.00  0.00     0.036 A 
HETATM    9  S   LIG     1      14.889  33.264  16.528  1.00  0.00    -0.061 SA
ENDROOT
BRANCH   1  10
HETATM   10  S   LIG     1      13.706  30.551  15.706  1.00  0.00    -0.116 SA
HETATM   11  H   LIG     1      14.247  31.296  14.641  1.00  0.00     0.109 HD
ENDBRANCH   1  10
TORSDOF 1
ENDMDL
MODEL 16
REMARK VINA RESULT:      -3.4     11.565     12.835
REMARK  1 active torsions:
REMARK  status: ('A' for Active; 'I' for Inactive)
REMARK    1  A    between atoms: S_1  and  C_2 
ROOT
HETATM    1  C   LIG     1      12.896  27.350  13.304  1.00  0.00     0.133 A 
HETATM    2  N   LIG     1      12.337  28.326  14.059  1.00  0.00    -0.234 NA
HETATM    3  C   LIG     1      13.277  29.217  14.464  1.00  0.00     0.075 A 
HETATM    4  C   LIG     1      13.015  30.336  15.256  1.00  0.00     0.033 A 
HETATM    5  C   LIG     1      14.082  31.181  15.605  1.00  0.00     0.002 A 
HETATM    6  C   LIG     1      15.390  30.900  15.162  1.00  0.00     0.002 A 
HETATM    7  C   LIG     1      15.643  29.771  14.367  1.00  0.00     0.021 A 
HETATM    8  C   LIG     1      14.569  28.950  14.034  1.00  0.00     0.036 A 
HETATM    9  S   LIG     1      14.565  27.550  13.109  1.00  0.00    -0.061 SA
ENDROOT
BRANCH   1  10
HETATM   10  S   LIG     1      11.961  26.002  12.598  1.00  0.00    -0.116 SA
HETATM   11  H   LIG     1      12.848  25.044  13.125  1.00  0.00     0.109 HD
ENDBRANCH   1  10
TORSDOF 1
ENDMDL
MODEL 17
REMARK VINA RESULT:      -3.4     16.189     16.780
REMARK  1 active torsions:
REMARK  status: ('A' for Active; 'I' for Inactive)
REMARK    1  A    between atoms: S_1  and  C_2 
ROOT
HETATM    1  C   LIG     1      27.628  29.360  34.375  1.00  0.00     0.133 A 
HETATM    2  N   LIG     1      26.524  29.588  35.125  1.00  0.00    -0.234 NA
HETATM    3  C   LIG     1      26.798  30.459  36.129  1.00  0.00     0.075 A 
HETATM    4  C   LIG     1      25.866  30.893  37.074  1.00  0.00     0.033 A 
HETATM    5  C   LIG     1      26.281  31.800  38.064  1.00  0.00     0.002 A 
HETATM    6  C   LIG     1      27.612  32.260  38.099  1.00  0.00     0.002 A 
HETATM    7  C   LIG     1      28.541  31.817  37.144  1.00  0.00     0.021 A 
HETATM    8  C   LIG     1      28.106  30.919  36.174  1.00  0.00     0.036 A 
HETATM    9  S   LIG     1      28.978  30.224  34.920  1.00  0.00    -0.061 SA
ENDROOT
BRANCH   1  10
HETATM   10  S   LIG     1      27.644  28.265  32.965  1.00  0.00    -0.116 SA
HETATM   11  H   LIG     1      27.223  29.291  32.098  1.00  0.00     0.109 HD
ENDBRANCH   1  10
TORSDOF 1
ENDMDL
MODEL 18
REMARK VINA RESULT:      -3.3     16.008     17.157
REMARK  1 active torsions:
REMARK  status: ('A' for Active; 'I' for Inactive)
REMARK    1  A    between atoms: S_1  and  C_2 
ROOT
HETATM    1  C   LIG     1      27.282  27.271  35.403  1.00  0.00     0.133 A 
HETATM    2  N   LIG     1      27.184  27.642  36.702  1.00  0.00    -0.234 NA
HETATM    3  C   LIG     1      26.785  28.935  36.803  1.00  0.00     0.075 A 
HETATM    4  C   LIG     1      26.592  29.609  38.011  1.00  0.00     0.033 A 
HETATM    5  C   LIG     1      26.176  30.951  37.975  1.00  0.00     0.002 A 
HETATM    6  C   LIG     1      25.958  31.599  36.742  1.00  0.00     0.002 A 
HETATM    7  C   LIG     1      26.156  30.911  35.534  1.00  0.00     0.021 A 
HETATM    8  C   LIG     1      26.568  29.583  35.597  1.00  0.00     0.036 A 
HETATM    9  S   LIG     1      26.880  28.521  34.335  1.00  0.00    -0.061 SA
ENDROOT
BRANCH   1  10
HETATM   10  S   LIG     1      27.782  25.637  34.887  1.00  0.00    -0.116 SA
HETATM   11  H   LIG     1      28.675  26.157  33.930  1.00  0.00     0.109 HD
ENDBRANCH   1  10
TORSDOF 1
ENDMDL
