REMARK  7 active torsions:
REMARK  status: ('A' for Active; 'I' for Inactive)
REMARK    1  A    between atoms: O_1  and  C_2 
REMARK    2  A    between atoms: C_2  and  C_3 
REMARK    3  A    between atoms: C_3  and  C_5 
REMARK    4  A    between atoms: C_3  and  O_4 
REMARK    5  A    between atoms: C_5  and  C_6 
REMARK    6  A    between atoms: C_5  and  O_8 
REMARK    7  A    between atoms: C_6  and  O_7 
ROOT
HETATM    1  C   LIG     1       0.456   0.289  -0.861  1.00  0.00     0.172 C 
ENDROOT
BRANCH   1   2
HETATM    2  C   LIG     1       1.459   0.649   0.254  1.00  0.00     0.198 C 
BRANCH   2   3
HETATM    3  O   LIG     1       2.047  -0.500   0.804  1.00  0.00    -0.398 OA
HETATM    4  H   LIG     1       2.734  -0.807   0.156  1.00  0.00     0.209 HD
ENDBRANCH   2   3
ENDBRANCH   1   2
BRANCH   1   5
HETATM    5  C   LIG     1      -0.633  -0.709  -0.402  1.00  0.00     0.172 C 
BRANCH   5   6
HETATM    6  C   LIG     1      -1.509  -0.172   0.747  1.00  0.00     0.198 C 
BRANCH   6   7
HETATM    7  O   LIG     1      -2.182   0.998   0.364  1.00  0.00    -0.398 OA
HETATM    8  H   LIG     1      -1.611   1.762   0.637  1.00  0.00     0.209 HD
ENDBRANCH   6   7
ENDBRANCH   5   6
BRANCH   5   9
HETATM    9  O   LIG     1      -1.452  -1.021  -1.500  1.00  0.00    -0.391 OA
HETATM   10  H   LIG     1      -1.914  -1.873  -1.286  1.00  0.00     0.210 HD
ENDBRANCH   5   9
ENDBRANCH   1   5
BRANCH   1  11
HETATM   11  O   LIG     1       1.150  -0.271  -1.948  1.00  0.00    -0.391 OA
HETATM   12  H   LIG     1       1.608   0.476  -2.415  1.00  0.00     0.210 HD
ENDBRANCH   1  11
TORSDOF 7
