MODEL 1
REMARK VINA RESULT:      -6.3      0.000      0.000
REMARK  5 active torsions:
REMARK  status: ('A' for Active; 'I' for Inactive)
REMARK    1  A    between atoms: C_2  and  C_3 
REMARK    2  A    between atoms: C_2  and  O_12 
REMARK    3  A    between atoms: C_5  and  O_6 
REMARK    4  A    between atoms: C_7  and  O_8 
REMARK    5  A    between atoms: C_9  and  O_10 
ROOT
HETATM    1  C   LIG     1      17.688  37.926  22.801  1.00  0.00     0.043 A 
HETATM    2  C   LIG     1      17.228  36.849  22.025  1.00  0.00     0.057 A 
HETATM    3  C   LIG     1      17.612  36.717  20.687  1.00  0.00     0.102 A 
HETATM    4  C   LIG     1      18.467  37.668  20.105  1.00  0.00     0.132 A 
HETATM    5  C   LIG     1      18.933  38.749  20.874  1.00  0.00     0.102 A 
HETATM    6  C   LIG     1      18.543  38.874  22.214  1.00  0.00     0.057 A 
ENDROOT
BRANCH   1   7
HETATM    7  C   LIG     1      17.280  38.065  24.217  1.00  0.00     0.176 C 
HETATM    8  O   LIG     1      16.059  38.101  24.530  1.00  0.00    -0.646 OA
BRANCH   7   9
HETATM    9  O   LIG     1      18.242  38.156  25.220  1.00  0.00    -0.773 OA
HETATM   10  H   LIG     1      18.985  37.471  25.292  1.00  0.00     0.167 HD
ENDBRANCH   7   9
ENDBRANCH   1   7
BRANCH   5  11
HETATM   11  O   LIG     1      19.782  39.696  20.302  1.00  0.00    -0.358 OA
HETATM   12  H   LIG     1      20.550  40.104  20.823  1.00  0.00     0.217 HD
ENDBRANCH   5  11
BRANCH   3  13
HETATM   13  O   LIG     1      17.134  35.634  19.950  1.00  0.00    -0.358 OA
HETATM   14  H   LIG     1      16.920  35.705  18.963  1.00  0.00     0.217 HD
ENDBRANCH   3  13
BRANCH   4  15
HETATM   15  O   LIG     1      18.846  37.529  18.769  1.00  0.00    -0.356 OA
HETATM   16  H   LIG     1      19.817  37.506  18.482  1.00  0.00     0.218 HD
ENDBRANCH   4  15
TORSDOF 5
ENDMDL
MODEL 2
REMARK VINA RESULT:      -6.3      0.009      2.429
REMARK  5 active torsions:
REMARK  status: ('A' for Active; 'I' for Inactive)
REMARK    1  A    between atoms: C_2  and  C_3 
REMARK    2  A    between atoms: C_2  and  O_12 
REMARK    3  A    between atoms: C_5  and  O_6 
REMARK    4  A    between atoms: C_7  and  O_8 
REMARK    5  A    between atoms: C_9  and  O_10 
ROOT
HETATM    1  C   LIG     1      17.689  37.930  22.799  1.00  0.00     0.043 A 
HETATM    2  C   LIG     1      18.545  38.872  22.204  1.00  0.00     0.057 A 
HETATM    3  C   LIG     1      18.930  38.742  20.866  1.00  0.00     0.102 A 
HETATM    4  C   LIG     1      18.460  37.661  20.101  1.00  0.00     0.132 A 
HETATM    5  C   LIG     1      17.603  36.714  20.688  1.00  0.00     0.102 A 
HETATM    6  C   LIG     1      17.222  36.851  22.029  1.00  0.00     0.057 A 
ENDROOT
BRANCH   1   7
HETATM    7  C   LIG     1      17.283  38.068  24.215  1.00  0.00     0.176 C 
HETATM    8  O   LIG     1      16.061  38.102  24.529  1.00  0.00    -0.646 OA
BRANCH   7   9
HETATM    9  O   LIG     1      18.245  38.160  25.217  1.00  0.00    -0.773 OA
HETATM   10  H   LIG     1      18.855  38.967  25.280  1.00  0.00     0.167 HD
ENDBRANCH   7   9
ENDBRANCH   1   7
BRANCH   5  11
HETATM   11  O   LIG     1      17.133  35.639  19.934  1.00  0.00    -0.358 OA
HETATM   12  H   LIG     1      17.061  34.707  20.326  1.00  0.00     0.217 HD
ENDBRANCH   5  11
BRANCH   3  13
HETATM   13  O   LIG     1      19.781  39.698  20.312  1.00  0.00    -0.358 OA
HETATM   14  H   LIG     1      19.655  40.054  19.373  1.00  0.00     0.217 HD
ENDBRANCH   3  13
BRANCH   4  15
HETATM   15  O   LIG     1      18.849  37.539  18.766  1.00  0.00    -0.356 OA
HETATM   16  H   LIG     1      19.180  38.329  18.225  1.00  0.00     0.218 HD
ENDBRANCH   4  15
TORSDOF 5
ENDMDL
MODEL 3
REMARK VINA RESULT:      -6.3      8.451     10.538
REMARK  5 active torsions:
REMARK  status: ('A' for Active; 'I' for Inactive)
REMARK    1  A    between atoms: C_2  and  C_3 
REMARK    2  A    between atoms: C_2  and  O_12 
REMARK    3  A    between atoms: C_5  and  O_6 
REMARK    4  A    between atoms: C_7  and  O_8 
REMARK    5  A    between atoms: C_9  and  O_10 
ROOT
HETATM    1  C   LIG     1      15.679  31.947  14.884  1.00  0.00     0.043 A 
HETATM    2  C   LIG     1      15.194  32.340  16.142  1.00  0.00     0.057 A 
HETATM    3  C   LIG     1      14.100  31.689  16.721  1.00  0.00     0.102 A 
HETATM    4  C   LIG     1      13.473  30.630  16.043  1.00  0.00     0.132 A 
HETATM    5  C   LIG     1      13.952  30.230  14.783  1.00  0.00     0.102 A 
HETATM    6  C   LIG     1      15.049  30.887  14.210  1.00  0.00     0.057 A 
ENDROOT
BRANCH   1   7
HETATM    7  C   LIG     1      16.837  32.637  14.272  1.00  0.00     0.176 C 
HETATM    8  O   LIG     1      17.946  32.678  14.871  1.00  0.00    -0.646 OA
BRANCH   7   9
HETATM    9  O   LIG     1      16.713  33.248  13.027  1.00  0.00    -0.773 OA
HETATM   10  H   LIG     1      15.838  33.217  12.516  1.00  0.00     0.167 HD
ENDBRANCH   7   9
ENDBRANCH   1   7
BRANCH   5  11
HETATM   11  O   LIG     1      13.335  29.179  14.105  1.00  0.00    -0.358 OA
HETATM   12  H   LIG     1      12.565  28.662  14.514  1.00  0.00     0.217 HD
ENDBRANCH   5  11
BRANCH   3  13
HETATM   13  O   LIG     1      13.648  32.109  17.971  1.00  0.00    -0.358 OA
HETATM   14  H   LIG     1      12.713  32.471  18.114  1.00  0.00     0.217 HD
ENDBRANCH   3  13
BRANCH   4  15
HETATM   15  O   LIG     1      12.382  29.986  16.627  1.00  0.00    -0.356 OA
HETATM   16  H   LIG     1      12.493  29.258  17.322  1.00  0.00     0.218 HD
ENDBRANCH   4  15
TORSDOF 5
ENDMDL
MODEL 4
REMARK VINA RESULT:      -6.3      8.448     10.368
REMARK  5 active torsions:
REMARK  status: ('A' for Active; 'I' for Inactive)
REMARK    1  A    between atoms: C_2  and  C_3 
REMARK    2  A    between atoms: C_2  and  O_12 
REMARK    3  A    between atoms: C_5  and  O_6 
REMARK    4  A    between atoms: C_7  and  O_8 
REMARK    5  A    between atoms: C_9  and  O_10 
ROOT
HETATM    1  C   LIG     1      15.680  31.947  14.880  1.00  0.00     0.043 A 
HETATM    2  C   LIG     1      15.044  30.885  14.216  1.00  0.00     0.057 A 
HETATM    3  C   LIG     1      13.951  30.233  14.795  1.00  0.00     0.102 A 
HETATM    4  C   LIG     1      13.477  30.638  16.054  1.00  0.00     0.132 A 
HETATM    5  C   LIG     1      14.107  31.700  16.726  1.00  0.00     0.102 A 
HETATM    6  C   LIG     1      15.202  32.349  16.139  1.00  0.00     0.057 A 
ENDROOT
BRANCH   1   7
HETATM    7  C   LIG     1      16.838  32.637  14.267  1.00  0.00     0.176 C 
HETATM    8  O   LIG     1      17.948  32.676  14.864  1.00  0.00    -0.646 OA
BRANCH   7   9
HETATM    9  O   LIG     1      16.712  33.250  13.023  1.00  0.00    -0.773 OA
HETATM   10  H   LIG     1      17.496  33.290  12.381  1.00  0.00     0.167 HD
ENDBRANCH   7   9
ENDBRANCH   1   7
BRANCH   5  11
HETATM   11  O   LIG     1      13.642  32.108  17.976  1.00  0.00    -0.358 OA
HETATM   12  H   LIG     1      14.174  31.938  18.821  1.00  0.00     0.217 HD
ENDBRANCH   5  11
BRANCH   3  13
HETATM   13  O   LIG     1      13.348  29.182  14.104  1.00  0.00    -0.358 OA
HETATM   14  H   LIG     1      13.707  28.237  14.139  1.00  0.00     0.217 HD
ENDBRANCH   3  13
BRANCH   4  15
HETATM   15  O   LIG     1      12.386  29.982  16.625  1.00  0.00    -0.356 OA
HETATM   16  H   LIG     1      12.498  29.212  17.274  1.00  0.00     0.218 HD
ENDBRANCH   4  15
TORSDOF 5
ENDMDL
MODEL 5
REMARK VINA RESULT:      -6.2      2.302      4.763
REMARK  5 active torsions:
REMARK  status: ('A' for Active; 'I' for Inactive)
REMARK    1  A    between atoms: C_2  and  C_3 
REMARK    2  A    between atoms: C_2  and  O_12 
REMARK    3  A    between atoms: C_5  and  O_6 
REMARK    4  A    between atoms: C_7  and  O_8 
REMARK    5  A    between atoms: C_9  and  O_10 
ROOT
HETATM    1  C   LIG     1      16.797  35.826  22.231  1.00  0.00     0.043 A 
HETATM    2  C   LIG     1      17.076  35.030  23.354  1.00  0.00     0.057 A 
HETATM    3  C   LIG     1      17.238  35.608  24.617  1.00  0.00     0.102 A 
HETATM    4  C   LIG     1      17.122  37.000  24.773  1.00  0.00     0.132 A 
HETATM    5  C   LIG     1      16.843  37.804  23.655  1.00  0.00     0.102 A 
HETATM    6  C   LIG     1      16.682  37.217  22.393  1.00  0.00     0.057 A 
ENDROOT
BRANCH   1   7
HETATM    7  C   LIG     1      16.627  35.214  20.894  1.00  0.00     0.176 C 
HETATM    8  O   LIG     1      17.135  35.755  19.875  1.00  0.00    -0.646 OA
BRANCH   7   9
HETATM    9  O   LIG     1      15.903  34.033  20.749  1.00  0.00    -0.773 OA
HETATM   10  H   LIG     1      15.435  33.813  19.878  1.00  0.00     0.167 HD
ENDBRANCH   7   9
ENDBRANCH   1   7
BRANCH   5  11
HETATM   11  O   LIG     1      16.726  39.186  23.803  1.00  0.00    -0.358 OA
HETATM   12  H   LIG     1      15.844  39.621  24.045  1.00  0.00     0.217 HD
ENDBRANCH   5  11
BRANCH   3  13
HETATM   13  O   LIG     1      17.514  34.783  25.707  1.00  0.00    -0.358 OA
HETATM   14  H   LIG     1      17.342  35.074  26.661  1.00  0.00     0.217 HD
ENDBRANCH   3  13
BRANCH   4  15
HETATM   15  O   LIG     1      17.285  37.568  26.037  1.00  0.00    -0.356 OA
HETATM   16  H   LIG     1      17.311  37.010  26.882  1.00  0.00     0.218 HD
ENDBRANCH   4  15
TORSDOF 5
ENDMDL
MODEL 6
REMARK VINA RESULT:      -6.2      7.435      9.996
REMARK  5 active torsions:
REMARK  status: ('A' for Active; 'I' for Inactive)
REMARK    1  A    between atoms: C_2  and  C_3 
REMARK    2  A    between atoms: C_2  and  O_12 
REMARK    3  A    between atoms: C_5  and  O_6 
REMARK    4  A    between atoms: C_7  and  O_8 
REMARK    5  A    between atoms: C_9  and  O_10 
ROOT
HETATM    1  C   LIG     1      14.889  30.931  14.981  1.00  0.00     0.043 A 
HETATM    2  C   LIG     1      14.130  30.896  16.162  1.00  0.00     0.057 A 
HETATM    3  C   LIG     1      14.250  31.909  17.119  1.00  0.00     0.102 A 
HETATM    4  C   LIG     1      15.136  32.977  16.904  1.00  0.00     0.132 A 
HETATM    5  C   LIG     1      15.900  33.021  15.724  1.00  0.00     0.102 A 
HETATM    6  C   LIG     1      15.774  32.002  14.770  1.00  0.00     0.057 A 
ENDROOT
BRANCH   1   7
HETATM    7  C   LIG     1      14.762  29.858  13.969  1.00  0.00     0.176 C 
HETATM    8  O   LIG     1      15.719  29.599  13.190  1.00  0.00    -0.646 OA
BRANCH   7   9
HETATM    9  O   LIG     1      13.583  29.124  13.867  1.00  0.00    -0.773 OA
HETATM   10  H   LIG     1      13.592  28.170  13.526  1.00  0.00     0.167 HD
ENDBRANCH   7   9
ENDBRANCH   1   7
BRANCH   5  11
HETATM   11  O   LIG     1      16.781  34.079  15.504  1.00  0.00    -0.358 OA
HETATM   12  H   LIG     1      17.521  34.019  14.813  1.00  0.00     0.217 HD
ENDBRANCH   5  11
BRANCH   3  13
HETATM   13  O   LIG     1      13.479  31.837  18.279  1.00  0.00    -0.358 OA
HETATM   14  H   LIG     1      12.476  31.969  18.270  1.00  0.00     0.217 HD
ENDBRANCH   3  13
BRANCH   4  15
HETATM   15  O   LIG     1      15.250  33.984  17.863  1.00  0.00    -0.356 OA
HETATM   16  H   LIG     1      16.138  34.232  18.283  1.00  0.00     0.218 HD
ENDBRANCH   4  15
TORSDOF 5
ENDMDL
MODEL 7
REMARK VINA RESULT:      -6.1      7.441     10.210
REMARK  5 active torsions:
REMARK  status: ('A' for Active; 'I' for Inactive)
REMARK    1  A    between atoms: C_2  and  C_3 
REMARK    2  A    between atoms: C_2  and  O_12 
REMARK    3  A    between atoms: C_5  and  O_6 
REMARK    4  A    between atoms: C_7  and  O_8 
REMARK    5  A    between atoms: C_9  and  O_10 
ROOT
HETATM    1  C   LIG     1      14.893  30.927  14.974  1.00  0.00     0.043 A 
HETATM    2  C   LIG     1      15.774  32.003  14.774  1.00  0.00     0.057 A 
HETATM    3  C   LIG     1      15.894  33.016  15.731  1.00  0.00     0.102 A 
HETATM    4  C   LIG     1      15.127  32.965  16.907  1.00  0.00     0.132 A 
HETATM    5  C   LIG     1      14.242  31.893  17.116  1.00  0.00     0.102 A 
HETATM    6  C   LIG     1      14.128  30.882  16.152  1.00  0.00     0.057 A 
ENDROOT
BRANCH   1   7
HETATM    7  C   LIG     1      14.766  29.856  13.960  1.00  0.00     0.176 C 
HETATM    8  O   LIG     1      15.726  29.593  13.186  1.00  0.00    -0.646 OA
BRANCH   7   9
HETATM    9  O   LIG     1      13.586  29.126  13.853  1.00  0.00    -0.773 OA
HETATM   10  H   LIG     1      13.576  28.214  13.411  1.00  0.00     0.167 HD
ENDBRANCH   7   9
ENDBRANCH   1   7
BRANCH   5  11
HETATM   11  O   LIG     1      13.479  31.836  18.281  1.00  0.00    -0.358 OA
HETATM   12  H   LIG     1      12.796  31.103  18.433  1.00  0.00     0.217 HD
ENDBRANCH   5  11
BRANCH   3  13
HETATM   13  O   LIG     1      16.780  34.067  15.495  1.00  0.00    -0.358 OA
HETATM   14  H   LIG     1      16.463  34.985  15.209  1.00  0.00     0.217 HD
ENDBRANCH   3  13
BRANCH   4  15
HETATM   15  O   LIG     1      15.252  33.980  17.857  1.00  0.00    -0.356 OA
HETATM   16  H   LIG     1      14.447  34.428  18.278  1.00  0.00     0.218 HD
ENDBRANCH   4  15
TORSDOF 5
ENDMDL
MODEL 8
REMARK VINA RESULT:      -6.1      7.416      9.522
REMARK  5 active torsions:
REMARK  status: ('A' for Active; 'I' for Inactive)
REMARK    1  A    between atoms: C_2  and  C_3 
REMARK    2  A    between atoms: C_2  and  O_12 
REMARK    3  A    between atoms: C_5  and  O_6 
REMARK    4  A    between atoms: C_7  and  O_8 
REMARK    5  A    between atoms: C_9  and  O_10 
ROOT
HETATM    1  C   LIG     1      14.962  32.637  16.294  1.00  0.00     0.043 A 
HETATM    2  C   LIG     1      13.830  31.953  16.767  1.00  0.00     0.057 A 
HETATM    3  C   LIG     1      13.372  30.799  16.124  1.00  0.00     0.102 A 
HETATM    4  C   LIG     1      14.046  30.310  14.992  1.00  0.00     0.132 A 
HETATM    5  C   LIG     1      15.180  30.988  14.511  1.00  0.00     0.102 A 
HETATM    6  C   LIG     1      15.632  32.145  15.161  1.00  0.00     0.057 A 
ENDROOT
BRANCH   1   7
HETATM    7  C   LIG     1      15.445  33.859  16.974  1.00  0.00     0.176 C 
HETATM    8  O   LIG     1      16.038  34.761  16.322  1.00  0.00    -0.646 OA
BRANCH   7   9
HETATM    9  O   LIG     1      15.250  34.026  18.343  1.00  0.00    -0.773 OA
HETATM   10  H   LIG     1      15.930  33.682  19.011  1.00  0.00     0.167 HD
ENDBRANCH   7   9
ENDBRANCH   1   7
BRANCH   5  11
HETATM   11  O   LIG     1      15.854  30.509  13.389  1.00  0.00    -0.358 OA
HETATM   12  H   LIG     1      16.822  30.214  13.436  1.00  0.00     0.217 HD
ENDBRANCH   5  11
BRANCH   3  13
HETATM   13  O   LIG     1      12.244  30.149  16.625  1.00  0.00    -0.358 OA
HETATM   14  H   LIG     1      11.304  30.425  16.369  1.00  0.00     0.217 HD
ENDBRANCH   3  13
BRANCH   4  15
HETATM   15  O   LIG     1      13.583  29.158  14.356  1.00  0.00    -0.356 OA
HETATM   16  H   LIG     1      13.600  29.052  13.349  1.00  0.00     0.218 HD
ENDBRANCH   4  15
TORSDOF 5
ENDMDL
MODEL 9
REMARK VINA RESULT:      -6.1      7.386      9.622
REMARK  5 active torsions:
REMARK  status: ('A' for Active; 'I' for Inactive)
REMARK    1  A    between atoms: C_2  and  C_3 
REMARK    2  A    between atoms: C_2  and  O_12 
REMARK    3  A    between atoms: C_5  and  O_6 
REMARK    4  A    between atoms: C_7  and  O_8 
REMARK    5  A    between atoms: C_9  and  O_10 
ROOT
HETATM    1  C   LIG     1      14.988  32.670  16.292  1.00  0.00     0.043 A 
HETATM    2  C   LIG     1      15.659  32.161  15.168  1.00  0.00     0.057 A 
HETATM    3  C   LIG     1      15.205  31.004  14.528  1.00  0.00     0.102 A 
HETATM    4  C   LIG     1      14.064  30.337  15.007  1.00  0.00     0.132 A 
HETATM    5  C   LIG     1      13.386  30.840  16.131  1.00  0.00     0.102 A 
HETATM    6  C   LIG     1      13.848  32.000  16.767  1.00  0.00     0.057 A 
ENDROOT
BRANCH   1   7
HETATM    7  C   LIG     1      15.470  33.894  16.969  1.00  0.00     0.176 C 
HETATM    8  O   LIG     1      16.073  34.790  16.317  1.00  0.00    -0.646 OA
BRANCH   7   9
HETATM    9  O   LIG     1      15.261  34.071  18.334  1.00  0.00    -0.773 OA
HETATM   10  H   LIG     1      16.039  34.066  18.985  1.00  0.00     0.167 HD
ENDBRANCH   7   9
ENDBRANCH   1   7
BRANCH   5  11
HETATM   11  O   LIG     1      12.253  30.183  16.612  1.00  0.00    -0.358 OA
HETATM   12  H   LIG     1      12.307  29.529  17.383  1.00  0.00     0.217 HD
ENDBRANCH   5  11
BRANCH   3  13
HETATM   13  O   LIG     1      15.900  30.529  13.415  1.00  0.00    -0.358 OA
HETATM   14  H   LIG     1      15.534  30.612  12.475  1.00  0.00     0.217 HD
ENDBRANCH   3  13
BRANCH   4  15
HETATM   15  O   LIG     1      13.617  29.183  14.362  1.00  0.00    -0.356 OA
HETATM   16  H   LIG     1      13.020  28.505  14.820  1.00  0.00     0.218 HD
ENDBRANCH   4  15
TORSDOF 5
ENDMDL
MODEL 10
REMARK VINA RESULT:      -6.1      1.699      3.751
REMARK  5 active torsions:
REMARK  status: ('A' for Active; 'I' for Inactive)
REMARK    1  A    between atoms: C_2  and  C_3 
REMARK    2  A    between atoms: C_2  and  O_12 
REMARK    3  A    between atoms: C_5  and  O_6 
REMARK    4  A    between atoms: C_7  and  O_8 
REMARK    5  A    between atoms: C_9  and  O_10 
ROOT
HETATM    1  C   LIG     1      16.470  36.075  21.246  1.00  0.00     0.043 A 
HETATM    2  C   LIG     1      16.177  36.992  22.270  1.00  0.00     0.057 A 
HETATM    3  C   LIG     1      16.960  38.137  22.448  1.00  0.00     0.102 A 
HETATM    4  C   LIG     1      18.052  38.382  21.598  1.00  0.00     0.132 A 
HETATM    5  C   LIG     1      18.352  37.470  20.571  1.00  0.00     0.102 A 
HETATM    6  C   LIG     1      17.563  36.324  20.399  1.00  0.00     0.057 A 
ENDROOT
BRANCH   1   7
HETATM    7  C   LIG     1      15.642  34.863  21.059  1.00  0.00     0.176 C 
HETATM    8  O   LIG     1      16.114  33.851  20.472  1.00  0.00    -0.646 OA
BRANCH   7   9
HETATM    9  O   LIG     1      14.332  34.827  21.530  1.00  0.00    -0.773 OA
HETATM   10  H   LIG     1      13.864  33.944  21.700  1.00  0.00     0.167 HD
ENDBRANCH   7   9
ENDBRANCH   1   7
BRANCH   5  11
HETATM   11  O   LIG     1      19.434  37.706  19.724  1.00  0.00    -0.358 OA
HETATM   12  H   LIG     1      19.891  38.610  19.686  1.00  0.00     0.217 HD
ENDBRANCH   5  11
BRANCH   3  13
HETATM   13  O   LIG     1      16.637  39.023  23.476  1.00  0.00    -0.358 OA
HETATM   14  H   LIG     1      16.354  39.978  23.296  1.00  0.00     0.217 HD
ENDBRANCH   3  13
BRANCH   4  15
HETATM   15  O   LIG     1      18.827  39.527  21.782  1.00  0.00    -0.356 OA
HETATM   16  H   LIG     1      18.562  40.261  22.428  1.00  0.00     0.218 HD
ENDBRANCH   4  15
TORSDOF 5
ENDMDL
MODEL 11
REMARK VINA RESULT:      -6.1      8.470     10.943
REMARK  5 active torsions:
REMARK  status: ('A' for Active; 'I' for Inactive)
REMARK    1  A    between atoms: C_2  and  C_3 
REMARK    2  A    between atoms: C_2  and  O_12 
REMARK    3  A    between atoms: C_5  and  O_6 
REMARK    4  A    between atoms: C_7  and  O_8 
REMARK    5  A    between atoms: C_9  and  O_10 
ROOT
HETATM    1  C   LIG     1      14.042  29.968  14.735  1.00  0.00     0.043 A 
HETATM    2  C   LIG     1      13.438  30.505  15.884  1.00  0.00     0.057 A 
HETATM    3  C   LIG     1      13.993  31.613  16.531  1.00  0.00     0.102 A 
HETATM    4  C   LIG     1      15.168  32.202  16.034  1.00  0.00     0.132 A 
HETATM    5  C   LIG     1      15.780  31.671  14.885  1.00  0.00     0.102 A 
HETATM    6  C   LIG     1      15.217  30.560  14.242  1.00  0.00     0.057 A 
ENDROOT
BRANCH   1   7
HETATM    7  C   LIG     1      13.455  28.794  14.050  1.00  0.00     0.176 C 
HETATM    8  O   LIG     1      14.174  27.802  13.753  1.00  0.00    -0.646 OA
BRANCH   7   9
HETATM    9  O   LIG     1      12.100  28.775  13.728  1.00  0.00    -0.773 OA
HETATM   10  H   LIG     1      11.394  28.717  14.452  1.00  0.00     0.167 HD
ENDBRANCH   7   9
ENDBRANCH   1   7
BRANCH   5  11
HETATM   11  O   LIG     1      16.946  32.251  14.385  1.00  0.00    -0.358 OA
HETATM   12  H   LIG     1      17.075  32.414  13.393  1.00  0.00     0.217 HD
ENDBRANCH   5  11
BRANCH   3  13
HETATM   13  O   LIG     1      13.364  32.116  17.670  1.00  0.00    -0.358 OA
HETATM   14  H   LIG     1      13.630  32.998  18.088  1.00  0.00     0.217 HD
ENDBRANCH   3  13
BRANCH   4  15
HETATM   15  O   LIG     1      15.716  33.307  16.686  1.00  0.00    -0.356 OA
HETATM   16  H   LIG     1      15.140  34.034  17.093  1.00  0.00     0.218 HD
ENDBRANCH   4  15
TORSDOF 5
ENDMDL
MODEL 12
REMARK VINA RESULT:      -6.0      1.539      4.597
REMARK  5 active torsions:
REMARK  status: ('A' for Active; 'I' for Inactive)
REMARK    1  A    between atoms: C_2  and  C_3 
REMARK    2  A    between atoms: C_2  and  O_12 
REMARK    3  A    between atoms: C_5  and  O_6 
REMARK    4  A    between atoms: C_7  and  O_8 
REMARK    5  A    between atoms: C_9  and  O_10 
ROOT
HETATM    1  C   LIG     1      18.718  38.439  19.996  1.00  0.00     0.043 A 
HETATM    2  C   LIG     1      18.252  39.183  21.093  1.00  0.00     0.057 A 
HETATM    3  C   LIG     1      17.455  38.585  22.075  1.00  0.00     0.102 A 
HETATM    4  C   LIG     1      17.113  37.227  21.971  1.00  0.00     0.132 A 
HETATM    5  C   LIG     1      17.576  36.474  20.878  1.00  0.00     0.102 A 
HETATM    6  C   LIG     1      18.373  37.080  19.898  1.00  0.00     0.057 A 
ENDROOT
BRANCH   1   7
HETATM    7  C   LIG     1      19.561  39.072  18.957  1.00  0.00     0.176 C 
HETATM    8  O   LIG     1      19.055  39.441  17.863  1.00  0.00    -0.646 OA
BRANCH   7   9
HETATM    9  O   LIG     1      20.921  39.266  19.178  1.00  0.00    -0.773 OA
HETATM   10  H   LIG     1      21.257  40.087  19.670  1.00  0.00     0.167 HD
ENDBRANCH   7   9
ENDBRANCH   1   7
BRANCH   5  11
HETATM   11  O   LIG     1      17.240  35.125  20.769  1.00  0.00    -0.358 OA
HETATM   12  H   LIG     1      17.328  34.625  19.892  1.00  0.00     0.217 HD
ENDBRANCH   5  11
BRANCH   3  13
HETATM   13  O   LIG     1      17.011  39.359  23.147  1.00  0.00    -0.358 OA
HETATM   14  H   LIG     1      16.070  39.729  23.193  1.00  0.00     0.217 HD
ENDBRANCH   3  13
BRANCH   4  15
HETATM   15  O   LIG     1      16.318  36.638  22.955  1.00  0.00    -0.356 OA
HETATM   16  H   LIG     1      16.555  36.680  23.939  1.00  0.00     0.218 HD
ENDBRANCH   4  15
TORSDOF 5
ENDMDL
MODEL 13
REMARK VINA RESULT:      -6.0      1.537      4.097
REMARK  5 active torsions:
REMARK  status: ('A' for Active; 'I' for Inactive)
REMARK    1  A    between atoms: C_2  and  C_3 
REMARK    2  A    between atoms: C_2  and  O_12 
REMARK    3  A    between atoms: C_5  and  O_6 
REMARK    4  A    between atoms: C_7  and  O_8 
REMARK    5  A    between atoms: C_9  and  O_10 
ROOT
HETATM    1  C   LIG     1      18.720  38.439  19.994  1.00  0.00     0.043 A 
HETATM    2  C   LIG     1      18.368  37.082  19.904  1.00  0.00     0.057 A 
HETATM    3  C   LIG     1      17.572  36.484  20.886  1.00  0.00     0.102 A 
HETATM    4  C   LIG     1      17.114  37.241  21.977  1.00  0.00     0.132 A 
HETATM    5  C   LIG     1      17.461  38.600  22.075  1.00  0.00     0.102 A 
HETATM    6  C   LIG     1      18.259  39.192  21.087  1.00  0.00     0.057 A 
ENDROOT
BRANCH   1   7
HETATM    7  C   LIG     1      19.563  39.071  18.955  1.00  0.00     0.176 C 
HETATM    8  O   LIG     1      19.058  39.439  17.859  1.00  0.00    -0.646 OA
BRANCH   7   9
HETATM    9  O   LIG     1      20.924  39.267  19.177  1.00  0.00    -0.773 OA
HETATM   10  H   LIG     1      21.590  39.204  18.415  1.00  0.00     0.167 HD
ENDBRANCH   7   9
ENDBRANCH   1   7
BRANCH   5  11
HETATM   11  O   LIG     1      17.010  39.358  23.155  1.00  0.00    -0.358 OA
HETATM   12  H   LIG     1      16.552  40.252  23.022  1.00  0.00     0.217 HD
ENDBRANCH   5  11
BRANCH   3  13
HETATM   13  O   LIG     1      17.246  35.133  20.761  1.00  0.00    -0.358 OA
HETATM   14  H   LIG     1      17.762  34.407  21.241  1.00  0.00     0.217 HD
ENDBRANCH   3  13
BRANCH   4  15
HETATM   15  O   LIG     1      16.321  36.637  22.952  1.00  0.00    -0.356 OA
HETATM   16  H   LIG     1      16.137  35.640  22.959  1.00  0.00     0.218 HD
ENDBRANCH   4  15
TORSDOF 5
ENDMDL
MODEL 14
REMARK VINA RESULT:      -6.0      1.620      3.670
REMARK  5 active torsions:
REMARK  status: ('A' for Active; 'I' for Inactive)
REMARK    1  A    between atoms: C_2  and  C_3 
REMARK    2  A    between atoms: C_2  and  O_12 
REMARK    3  A    between atoms: C_5  and  O_6 
REMARK    4  A    between atoms: C_7  and  O_8 
REMARK    5  A    between atoms: C_9  and  O_10 
ROOT
HETATM    1  C   LIG     1      17.886  38.149  21.489  1.00  0.00     0.043 A 
HETATM    2  C   LIG     1      17.762  36.989  20.706  1.00  0.00     0.057 A 
HETATM    3  C   LIG     1      16.664  36.137  20.860  1.00  0.00     0.102 A 
HETATM    4  C   LIG     1      15.669  36.437  21.806  1.00  0.00     0.132 A 
HETATM    5  C   LIG     1      15.785  37.595  22.594  1.00  0.00     0.102 A 
HETATM    6  C   LIG     1      16.889  38.444  22.434  1.00  0.00     0.057 A 
ENDROOT
BRANCH   1   7
HETATM    7  C   LIG     1      19.049  39.050  21.325  1.00  0.00     0.176 C 
HETATM    8  O   LIG     1      19.288  39.588  20.210  1.00  0.00    -0.646 OA
BRANCH   7   9
HETATM    9  O   LIG     1      19.891  39.312  22.402  1.00  0.00    -0.773 OA
HETATM   10  H   LIG     1      19.620  39.965  23.128  1.00  0.00     0.167 HD
ENDBRANCH   7   9
ENDBRANCH   1   7
BRANCH   5  11
HETATM   11  O   LIG     1      14.802  37.899  23.535  1.00  0.00    -0.358 OA
HETATM   12  H   LIG     1      13.881  37.476  23.496  1.00  0.00     0.217 HD
ENDBRANCH   5  11
BRANCH   3  13
HETATM   13  O   LIG     1      16.577  34.995  20.064  1.00  0.00    -0.358 OA
HETATM   14  H   LIG     1      15.829  34.859  19.395  1.00  0.00     0.217 HD
ENDBRANCH   3  13
BRANCH   4  15
HETATM   15  O   LIG     1      14.577  35.581  21.954  1.00  0.00    -0.356 OA
HETATM   16  H   LIG     1      14.672  34.641  22.319  1.00  0.00     0.218 HD
ENDBRANCH   4  15
TORSDOF 5
ENDMDL
MODEL 15
REMARK VINA RESULT:      -5.9      8.014      9.542
REMARK  5 active torsions:
REMARK  status: ('A' for Active; 'I' for Inactive)
REMARK    1  A    between atoms: C_2  and  C_3 
REMARK    2  A    between atoms: C_2  and  O_12 
REMARK    3  A    between atoms: C_5  and  O_6 
REMARK    4  A    between atoms: C_7  and  O_8 
REMARK    5  A    between atoms: C_9  and  O_10 
ROOT
HETATM    1  C   LIG     1      14.590  31.762  16.254  1.00  0.00     0.043 A 
HETATM    2  C   LIG     1      15.480  32.847  16.195  1.00  0.00     0.057 A 
HETATM    3  C   LIG     1      16.320  33.023  15.090  1.00  0.00     0.102 A 
HETATM    4  C   LIG     1      16.279  32.108  14.024  1.00  0.00     0.132 A 
HETATM    5  C   LIG     1      15.391  31.019  14.075  1.00  0.00     0.102 A 
HETATM    6  C   LIG     1      14.553  30.850  15.186  1.00  0.00     0.057 A 
ENDROOT
BRANCH   1   7
HETATM    7  C   LIG     1      13.702  31.576  17.424  1.00  0.00     0.176 C 
HETATM    8  O   LIG     1      14.189  31.362  18.568  1.00  0.00    -0.646 OA
BRANCH   7   9
HETATM    9  O   LIG     1      12.319  31.637  17.273  1.00  0.00    -0.773 OA
HETATM   10  H   LIG     1      11.892  32.328  16.667  1.00  0.00     0.167 HD
ENDBRANCH   7   9
ENDBRANCH   1   7
BRANCH   5  11
HETATM   11  O   LIG     1      15.345  30.108  13.020  1.00  0.00    -0.358 OA
HETATM   12  H   LIG     1      15.572  29.130  13.154  1.00  0.00     0.217 HD
ENDBRANCH   5  11
BRANCH   3  13
HETATM   13  O   LIG     1      17.190  34.113  15.070  1.00  0.00    -0.358 OA
HETATM   14  H   LIG     1      16.973  34.966  14.570  1.00  0.00     0.217 HD
ENDBRANCH   3  13
BRANCH   4  15
HETATM   15  O   LIG     1      17.120  32.291  12.926  1.00  0.00    -0.356 OA
HETATM   16  H   LIG     1      16.839  32.048  11.984  1.00  0.00     0.218 HD
ENDBRANCH   4  15
TORSDOF 5
ENDMDL
MODEL 16
REMARK VINA RESULT:      -5.9      8.037     10.352
REMARK  5 active torsions:
REMARK  status: ('A' for Active; 'I' for Inactive)
REMARK    1  A    between atoms: C_2  and  C_3 
REMARK    2  A    between atoms: C_2  and  O_12 
REMARK    3  A    between atoms: C_5  and  O_6 
REMARK    4  A    between atoms: C_7  and  O_8 
REMARK    5  A    between atoms: C_9  and  O_10 
ROOT
HETATM    1  C   LIG     1      15.415  32.076  15.452  1.00  0.00     0.043 A 
HETATM    2  C   LIG     1      15.711  31.216  14.381  1.00  0.00     0.057 A 
HETATM    3  C   LIG     1      14.879  30.132  14.085  1.00  0.00     0.102 A 
HETATM    4  C   LIG     1      13.732  29.893  14.861  1.00  0.00     0.132 A 
HETATM    5  C   LIG     1      13.428  30.748  15.934  1.00  0.00     0.102 A 
HETATM    6  C   LIG     1      14.267  31.832  16.225  1.00  0.00     0.057 A 
ENDROOT
BRANCH   1   7
HETATM    7  C   LIG     1      16.296  33.223  15.766  1.00  0.00     0.176 C 
HETATM    8  O   LIG     1      15.823  34.265  16.295  1.00  0.00    -0.646 OA
BRANCH   7   9
HETATM    9  O   LIG     1      17.657  33.163  15.480  1.00  0.00    -0.773 OA
HETATM   10  H   LIG     1      18.065  32.333  15.065  1.00  0.00     0.167 HD
ENDBRANCH   7   9
ENDBRANCH   1   7
BRANCH   5  11
HETATM   11  O   LIG     1      12.291  30.517  16.708  1.00  0.00    -0.358 OA
HETATM   12  H   LIG     1      12.359  30.236  17.679  1.00  0.00     0.217 HD
ENDBRANCH   5  11
BRANCH   3  13
HETATM   13  O   LIG     1      15.208  29.301  13.014  1.00  0.00    -0.358 OA
HETATM   14  H   LIG     1      14.616  29.212  12.198  1.00  0.00     0.217 HD
ENDBRANCH   3  13
BRANCH   4  15
HETATM   15  O   LIG     1      12.908  28.809  14.558  1.00  0.00    -0.356 OA
HETATM   16  H   LIG     1      12.462  28.251  15.277  1.00  0.00     0.218 HD
ENDBRANCH   4  15
TORSDOF 5
ENDMDL
MODEL 17
REMARK VINA RESULT:      -5.9      2.643      5.057
REMARK  5 active torsions:
REMARK  status: ('A' for Active; 'I' for Inactive)
REMARK    1  A    between atoms: C_2  and  C_3 
REMARK    2  A    between atoms: C_2  and  O_12 
REMARK    3  A    between atoms: C_5  and  O_6 
REMARK    4  A    between atoms: C_7  and  O_8 
REMARK    5  A    between atoms: C_9  and  O_10 
ROOT
HETATM    1  C   LIG     1      16.336  35.883  22.376  1.00  0.00     0.043 A 
HETATM    2  C   LIG     1      16.295  37.284  22.467  1.00  0.00     0.057 A 
HETATM    3  C   LIG     1      16.773  37.941  23.605  1.00  0.00     0.102 A 
HETATM    4  C   LIG     1      17.302  37.199  24.674  1.00  0.00     0.132 A 
HETATM    5  C   LIG     1      17.348  35.796  24.592  1.00  0.00     0.102 A 
HETATM    6  C   LIG     1      16.867  35.146  23.448  1.00  0.00     0.057 A 
ENDROOT
BRANCH   1   7
HETATM    7  C   LIG     1      15.830  35.188  21.171  1.00  0.00     0.176 C 
HETATM    8  O   LIG     1      16.474  34.228  20.670  1.00  0.00    -0.646 OA
BRANCH   7   9
HETATM    9  O   LIG     1      14.635  35.589  20.579  1.00  0.00    -0.773 OA
HETATM   10  H   LIG     1      14.618  36.340  19.898  1.00  0.00     0.167 HD
ENDBRANCH   7   9
ENDBRANCH   1   7
BRANCH   5  11
HETATM   11  O   LIG     1      17.872  35.054  25.650  1.00  0.00    -0.358 OA
HETATM   12  H   LIG     1      18.872  34.982  25.804  1.00  0.00     0.217 HD
ENDBRANCH   5  11
BRANCH   3  13
HETATM   13  O   LIG     1      16.713  39.334  23.656  1.00  0.00    -0.358 OA
HETATM   14  H   LIG     1      16.933  39.852  24.498  1.00  0.00     0.217 HD
ENDBRANCH   3  13
BRANCH   4  15
HETATM   15  O   LIG     1      17.777  37.862  25.806  1.00  0.00    -0.356 OA
HETATM   16  H   LIG     1      17.255  37.892  26.674  1.00  0.00     0.218 HD
ENDBRANCH   4  15
TORSDOF 5
ENDMDL
MODEL 18
REMARK VINA RESULT:      -5.9      8.014      9.252
REMARK  5 active torsions:
REMARK  status: ('A' for Active; 'I' for Inactive)
REMARK    1  A    between atoms: C_2  and  C_3 
REMARK    2  A    between atoms: C_2  and  O_12 
REMARK    3  A    between atoms: C_5  and  O_6 
REMARK    4  A    between atoms: C_7  and  O_8 
REMARK    5  A    between atoms: C_9  and  O_10 
ROOT
HETATM    1  C   LIG     1      14.523  31.728  16.196  1.00  0.00     0.043 A 
HETATM    2  C   LIG     1      14.537  30.822  15.122  1.00  0.00     0.057 A 
HETATM    3  C   LIG     1      15.416  30.999  14.049  1.00  0.00     0.102 A 
HETATM    4  C   LIG     1      16.298  32.093  14.036  1.00  0.00     0.132 A 
HETATM    5  C   LIG     1      16.291  33.005  15.106  1.00  0.00     0.102 A 
HETATM    6  C   LIG     1      15.407  32.821  16.178  1.00  0.00     0.057 A 
ENDROOT
BRANCH   1   7
HETATM    7  C   LIG     1      13.593  31.540  17.331  1.00  0.00     0.176 C 
HETATM    8  O   LIG     1      12.361  31.361  17.125  1.00  0.00    -0.646 OA
BRANCH   7   9
HETATM    9  O   LIG     1      14.068  31.559  18.640  1.00  0.00    -0.773 OA
HETATM   10  H   LIG     1      14.809  30.933  18.933  1.00  0.00     0.167 HD
ENDBRANCH   7   9
ENDBRANCH   1   7
BRANCH   5  11
HETATM   11  O   LIG     1      17.164  34.093  15.099  1.00  0.00    -0.358 OA
HETATM   12  H   LIG     1      16.840  35.034  15.288  1.00  0.00     0.217 HD
ENDBRANCH   5  11
BRANCH   3  13
HETATM   13  O   LIG     1      15.398  30.078  13.002  1.00  0.00    -0.358 OA
HETATM   14  H   LIG     1      15.719  29.125  13.117  1.00  0.00     0.217 HD
ENDBRANCH   3  13
BRANCH   4  15
HETATM   15  O   LIG     1      17.171  32.263  12.961  1.00  0.00    -0.356 OA
HETATM   16  H   LIG     1      17.856  31.562  12.705  1.00  0.00     0.218 HD
ENDBRANCH   4  15
TORSDOF 5
ENDMDL
MODEL 19
REMARK VINA RESULT:      -5.8      1.705      2.723
REMARK  5 active torsions:
REMARK  status: ('A' for Active; 'I' for Inactive)
REMARK    1  A    between atoms: C_2  and  C_3 
REMARK    2  A    between atoms: C_2  and  O_12 
REMARK    3  A    between atoms: C_5  and  O_6 
REMARK    4  A    between atoms: C_7  and  O_8 
REMARK    5  A    between atoms: C_9  and  O_10 
ROOT
HETATM    1  C   LIG     1      16.886  37.140  22.474  1.00  0.00     0.043 A 
HETATM    2  C   LIG     1      15.720  36.358  22.507  1.00  0.00     0.057 A 
HETATM    3  C   LIG     1      15.353  35.574  21.409  1.00  0.00     0.102 A 
HETATM    4  C   LIG     1      16.155  35.563  20.255  1.00  0.00     0.132 A 
HETATM    5  C   LIG     1      17.325  36.342  20.213  1.00  0.00     0.102 A 
HETATM    6  C   LIG     1      17.685  37.125  21.318  1.00  0.00     0.057 A 
ENDROOT
BRANCH   1   7
HETATM    7  C   LIG     1      17.273  37.970  23.637  1.00  0.00     0.176 C 
HETATM    8  O   LIG     1      18.395  38.544  23.667  1.00  0.00    -0.646 OA
BRANCH   7   9
HETATM    9  O   LIG     1      16.400  38.125  24.711  1.00  0.00    -0.773 OA
HETATM   10  H   LIG     1      15.796  37.366  25.005  1.00  0.00     0.167 HD
ENDBRANCH   7   9
ENDBRANCH   1   7
BRANCH   5  11
HETATM   11  O   LIG     1      18.125  36.336  19.071  1.00  0.00    -0.358 OA
HETATM   12  H   LIG     1      17.790  35.964  18.190  1.00  0.00     0.217 HD
ENDBRANCH   5  11
BRANCH   3  13
HETATM   13  O   LIG     1      14.187  34.813  21.481  1.00  0.00    -0.358 OA
HETATM   14  H   LIG     1      13.731  34.445  20.655  1.00  0.00     0.217 HD
ENDBRANCH   3  13
BRANCH   4  15
HETATM   15  O   LIG     1      15.783  34.779  19.163  1.00  0.00    -0.356 OA
HETATM   16  H   LIG     1      15.914  35.086  18.206  1.00  0.00     0.218 HD
ENDBRANCH   4  15
TORSDOF 5
ENDMDL
MODEL 20
REMARK VINA RESULT:      -5.7      1.728      3.308
REMARK  5 active torsions:
REMARK  status: ('A' for Active; 'I' for Inactive)
REMARK    1  A    between atoms: C_2  and  C_3 
REMARK    2  A    between atoms: C_2  and  O_12 
REMARK    3  A    between atoms: C_5  and  O_6 
REMARK    4  A    between atoms: C_7  and  O_8 
REMARK    5  A    between atoms: C_9  and  O_10 
ROOT
HETATM    1  C   LIG     1      16.664  37.356  22.465  1.00  0.00     0.043 A 
HETATM    2  C   LIG     1      17.569  37.276  21.393  1.00  0.00     0.057 A 
HETATM    3  C   LIG     1      17.362  36.367  20.351  1.00  0.00     0.102 A 
HETATM    4  C   LIG     1      16.240  35.521  20.367  1.00  0.00     0.132 A 
HETATM    5  C   LIG     1      15.329  35.595  21.436  1.00  0.00     0.102 A 
HETATM    6  C   LIG     1      15.544  36.508  22.477  1.00  0.00     0.057 A 
ENDROOT
BRANCH   1   7
HETATM    7  C   LIG     1      16.884  38.318  23.568  1.00  0.00     0.176 C 
HETATM    8  O   LIG     1      16.719  39.554  23.380  1.00  0.00    -0.646 OA
BRANCH   7   9
HETATM    9  O   LIG     1      17.275  37.867  24.826  1.00  0.00    -0.773 OA
HETATM   10  H   LIG     1      16.689  38.021  25.639  1.00  0.00     0.167 HD
ENDBRANCH   7   9
ENDBRANCH   1   7
BRANCH   5  11
HETATM   11  O   LIG     1      14.214  34.759  21.459  1.00  0.00    -0.358 OA
HETATM   12  H   LIG     1      13.883  34.292  20.622  1.00  0.00     0.217 HD
ENDBRANCH   5  11
BRANCH   3  13
HETATM   13  O   LIG     1      18.284  36.317  19.305  1.00  0.00    -0.358 OA
HETATM   14  H   LIG     1      18.951  35.562  19.209  1.00  0.00     0.217 HD
ENDBRANCH   3  13
BRANCH   4  15
HETATM   15  O   LIG     1      16.042  34.617  19.324  1.00  0.00    -0.356 OA
HETATM   16  H   LIG     1      15.162  34.551  18.826  1.00  0.00     0.218 HD
ENDBRANCH   4  15
TORSDOF 5
ENDMDL
