REMARK  3 active torsions:
REMARK  status: ('A' for Active; 'I' for Inactive)
REMARK       I    between atoms: N_1  and  C_2 
REMARK       I    between atoms: C_2  and  N_3 
REMARK    1  A    between atoms: N_3  and  C_4 
REMARK    2  A    between atoms: C_7  and  O_8 
REMARK    3  A    between atoms: O_8  and  C_9 
ROOT
HETATM    1  C   LIG     1      -1.453  -0.361   0.372  1.00  0.00     0.036 A 
HETATM    2  C   LIG     1      -0.678   0.644  -0.233  1.00  0.00     0.032 A 
HETATM    3  C   LIG     1       0.654   0.400  -0.579  1.00  0.00     0.039 A 
HETATM    4  C   LIG     1       1.241  -0.851  -0.309  1.00  0.00     0.068 A 
HETATM    5  C   LIG     1       0.472  -1.843   0.309  1.00  0.00     0.039 A 
HETATM    6  C   LIG     1      -0.859  -1.599   0.656  1.00  0.00     0.032 A 
ENDROOT
BRANCH   1   7
HETATM    7  N   LIG     1      -2.818  -0.128   0.760  1.00  0.00    -0.309 N 
HETATM    8  C   LIG     1      -3.734   0.701   0.029  1.00  0.00     0.318 C 
HETATM    9  N   LIG     1      -5.002   1.029   0.597  1.00  0.00    -0.352 N 
HETATM   10  O   LIG     1      -3.449   1.113  -1.127  1.00  0.00    -0.247 OA
HETATM   11  H   LIG     1      -5.261   0.690   1.549  1.00  0.00     0.160 HD
HETATM   12  H   LIG     1      -5.681   1.617   0.065  1.00  0.00     0.160 HD
HETATM   13  H   LIG     1      -3.195  -0.663   1.575  1.00  0.00     0.170 HD
ENDBRANCH   1   7
BRANCH   4  14
HETATM   14  O   LIG     1       2.573  -1.155  -0.638  1.00  0.00    -0.352 OA
BRANCH  14  15
HETATM   15  C   LIG     1       3.527  -0.237  -1.173  1.00  0.00     0.171 C 
HETATM   16  C   LIG     1       4.045   0.699  -0.086  1.00  0.00     0.034 C 
ENDBRANCH  14  15
ENDBRANCH   4  14
TORSDOF 3
