MODEL 1
REMARK VINA RESULT:      -6.3      0.000      0.000
REMARK  3 active torsions:
REMARK  status: ('A' for Active; 'I' for Inactive)
REMARK    1  A    between atoms: O_1  and  C_2 
REMARK    2  A    between atoms: C_2  and  C_3 
REMARK    3  A    between atoms: C_6  and  N_7 
ROOT
HETATM    1  C   LIG     1      17.512  37.874  21.818  1.00  0.00     0.037 A 
HETATM    2  C   LIG     1      18.014  39.187  21.874  1.00  0.00     0.020 A 
HETATM    3  C   LIG     1      18.947  39.633  20.932  1.00  0.00     0.030 A 
HETATM    4  C   LIG     1      19.387  38.777  19.916  1.00  0.00     0.025 A 
HETATM    5  C   LIG     1      18.884  37.472  19.846  1.00  0.00     0.030 A 
HETATM    6  C   LIG     1      17.951  37.023  20.786  1.00  0.00     0.020 A 
ENDROOT
BRANCH   1   7
HETATM    7  C   LIG     1      16.520  37.417  22.821  1.00  0.00     0.176 C 
HETATM    8  O   LIG     1      16.785  36.428  23.556  1.00  0.00    -0.646 OA
BRANCH   7   9
HETATM    9  O   LIG     1      15.283  38.041  22.969  1.00  0.00    -0.773 OA
HETATM   10  H   LIG     1      14.527  37.919  22.308  1.00  0.00     0.167 HD
ENDBRANCH   7   9
ENDBRANCH   1   7
BRANCH   4  11
HETATM   11  N   LIG     1      20.341  39.234  18.952  1.00  0.00    -0.399 N 
HETATM   12  H   LIG     1      20.275  38.937  17.953  1.00  0.00     0.156 HD
HETATM   13  H   LIG     1      21.119  39.871  19.232  1.00  0.00     0.156 HD
ENDBRANCH   4  11
TORSDOF 3
ENDMDL
MODEL 2
REMARK VINA RESULT:      -6.3      0.416      1.585
REMARK  3 active torsions:
REMARK  status: ('A' for Active; 'I' for Inactive)
REMARK    1  A    between atoms: O_1  and  C_2 
REMARK    2  A    between atoms: C_2  and  C_3 
REMARK    3  A    between atoms: C_6  and  N_7 
ROOT
HETATM    1  C   LIG     1      17.588  37.703  21.560  1.00  0.00     0.037 A 
HETATM    2  C   LIG     1      18.123  36.904  20.534  1.00  0.00     0.020 A 
HETATM    3  C   LIG     1      19.066  37.427  19.643  1.00  0.00     0.030 A 
HETATM    4  C   LIG     1      19.495  38.753  19.768  1.00  0.00     0.025 A 
HETATM    5  C   LIG     1      18.977  39.552  20.795  1.00  0.00     0.030 A 
HETATM    6  C   LIG     1      18.034  39.032  21.687  1.00  0.00     0.020 A 
ENDROOT
BRANCH   1   7
HETATM    7  C   LIG     1      16.592  37.134  22.500  1.00  0.00     0.176 C 
HETATM    8  O   LIG     1      16.603  35.899  22.750  1.00  0.00    -0.646 OA
BRANCH   7   9
HETATM    9  O   LIG     1      15.622  37.927  23.111  1.00  0.00    -0.773 OA
HETATM   10  H   LIG     1      14.854  38.342  22.600  1.00  0.00     0.167 HD
ENDBRANCH   7   9
ENDBRANCH   1   7
BRANCH   4  11
HETATM   11  N   LIG     1      20.460  39.287  18.857  1.00  0.00    -0.399 N 
HETATM   12  H   LIG     1      21.102  40.057  19.149  1.00  0.00     0.156 HD
HETATM   13  H   LIG     1      20.539  38.915  17.884  1.00  0.00     0.156 HD
ENDBRANCH   4  11
TORSDOF 3
ENDMDL
MODEL 3
REMARK VINA RESULT:      -6.1      3.650      4.629
REMARK  3 active torsions:
REMARK  status: ('A' for Active; 'I' for Inactive)
REMARK    1  A    between atoms: O_1  and  C_2 
REMARK    2  A    between atoms: C_2  and  C_3 
REMARK    3  A    between atoms: C_6  and  N_7 
ROOT
HETATM    1  C   LIG     1      18.832  38.409  19.840  1.00  0.00     0.037 A 
HETATM    2  C   LIG     1      18.561  37.039  19.675  1.00  0.00     0.020 A 
HETATM    3  C   LIG     1      17.828  36.338  20.639  1.00  0.00     0.030 A 
HETATM    4  C   LIG     1      17.350  36.995  21.777  1.00  0.00     0.025 A 
HETATM    5  C   LIG     1      17.606  38.363  21.944  1.00  0.00     0.030 A 
HETATM    6  C   LIG     1      18.337  39.066  20.982  1.00  0.00     0.020 A 
ENDROOT
BRANCH   1   7
HETATM    7  C   LIG     1      19.607  39.141  18.808  1.00  0.00     0.176 C 
HETATM    8  O   LIG     1      19.035  39.525  17.753  1.00  0.00    -0.646 OA
BRANCH   7   9
HETATM    9  O   LIG     1      20.966  39.408  18.961  1.00  0.00    -0.773 OA
HETATM   10  H   LIG     1      21.404  40.242  18.593  1.00  0.00     0.167 HD
ENDBRANCH   7   9
ENDBRANCH   1   7
BRANCH   4  11
HETATM   11  N   LIG     1      16.600  36.278  22.762  1.00  0.00    -0.399 N 
HETATM   12  H   LIG     1      15.638  35.930  22.553  1.00  0.00     0.156 HD
HETATM   13  H   LIG     1      17.003  36.091  23.708  1.00  0.00     0.156 HD
ENDBRANCH   4  11
TORSDOF 3
ENDMDL
MODEL 4
REMARK VINA RESULT:      -5.9      8.763      9.670
REMARK  3 active torsions:
REMARK  status: ('A' for Active; 'I' for Inactive)
REMARK    1  A    between atoms: O_1  and  C_2 
REMARK    2  A    between atoms: C_2  and  C_3 
REMARK    3  A    between atoms: C_6  and  N_7 
ROOT
HETATM    1  C   LIG     1      14.670  32.303  16.348  1.00  0.00     0.037 A 
HETATM    2  C   LIG     1      15.343  31.779  15.230  1.00  0.00     0.020 A 
HETATM    3  C   LIG     1      14.818  30.688  14.530  1.00  0.00     0.030 A 
HETATM    4  C   LIG     1      13.610  30.107  14.932  1.00  0.00     0.025 A 
HETATM    5  C   LIG     1      12.927  30.630  16.038  1.00  0.00     0.030 A 
HETATM    6  C   LIG     1      13.449  31.721  16.739  1.00  0.00     0.020 A 
ENDROOT
BRANCH   1   7
HETATM    7  C   LIG     1      15.236  33.464  17.078  1.00  0.00     0.176 C 
HETATM    8  O   LIG     1      15.738  34.423  16.433  1.00  0.00    -0.646 OA
BRANCH   7   9
HETATM    9  O   LIG     1      15.245  33.523  18.470  1.00  0.00    -0.773 OA
HETATM   10  H   LIG     1      14.572  34.063  18.999  1.00  0.00     0.167 HD
ENDBRANCH   7   9
ENDBRANCH   1   7
BRANCH   4  11
HETATM   11  N   LIG     1      13.073  28.991  14.216  1.00  0.00    -0.399 N 
HETATM   12  H   LIG     1      12.095  29.012  13.850  1.00  0.00     0.156 HD
HETATM   13  H   LIG     1      13.650  28.137  14.048  1.00  0.00     0.156 HD
ENDBRANCH   4  11
TORSDOF 3
ENDMDL
MODEL 5
REMARK VINA RESULT:      -5.9      1.697      2.519
REMARK  3 active torsions:
REMARK  status: ('A' for Active; 'I' for Inactive)
REMARK    1  A    between atoms: O_1  and  C_2 
REMARK    2  A    between atoms: C_2  and  C_3 
REMARK    3  A    between atoms: C_6  and  N_7 
ROOT
HETATM    1  C   LIG     1      17.517  37.652  22.676  1.00  0.00     0.037 A 
HETATM    2  C   LIG     1      17.096  36.429  22.125  1.00  0.00     0.020 A 
HETATM    3  C   LIG     1      17.386  36.111  20.794  1.00  0.00     0.030 A 
HETATM    4  C   LIG     1      18.107  37.007  19.996  1.00  0.00     0.025 A 
HETATM    5  C   LIG     1      18.540  38.222  20.541  1.00  0.00     0.030 A 
HETATM    6  C   LIG     1      18.252  38.543  21.871  1.00  0.00     0.020 A 
ENDROOT
BRANCH   1   7
HETATM    7  C   LIG     1      17.206  37.974  24.091  1.00  0.00     0.176 C 
HETATM    8  O   LIG     1      16.006  38.081  24.457  1.00  0.00    -0.646 OA
BRANCH   7   9
HETATM    9  O   LIG     1      18.210  38.179  25.035  1.00  0.00    -0.773 OA
HETATM   10  H   LIG     1      18.059  38.702  25.888  1.00  0.00     0.167 HD
ENDBRANCH   7   9
ENDBRANCH   1   7
BRANCH   4  11
HETATM   11  N   LIG     1      18.404  36.681  18.635  1.00  0.00    -0.399 N 
HETATM   12  H   LIG     1      19.293  36.195  18.383  1.00  0.00     0.156 HD
HETATM   13  H   LIG     1      17.736  36.925  17.870  1.00  0.00     0.156 HD
ENDBRANCH   4  11
TORSDOF 3
ENDMDL
MODEL 6
REMARK VINA RESULT:      -5.9      3.329      4.036
REMARK  3 active torsions:
REMARK  status: ('A' for Active; 'I' for Inactive)
REMARK    1  A    between atoms: O_1  and  C_2 
REMARK    2  A    between atoms: C_2  and  C_3 
REMARK    3  A    between atoms: C_6  and  N_7 
ROOT
HETATM    1  C   LIG     1      17.213  36.659  21.732  1.00  0.00     0.037 A 
HETATM    2  C   LIG     1      17.431  38.044  21.847  1.00  0.00     0.020 A 
HETATM    3  C   LIG     1      17.441  38.661  23.102  1.00  0.00     0.030 A 
HETATM    4  C   LIG     1      17.242  37.903  24.262  1.00  0.00     0.025 A 
HETATM    5  C   LIG     1      17.036  36.522  24.157  1.00  0.00     0.030 A 
HETATM    6  C   LIG     1      17.025  35.902  22.904  1.00  0.00     0.020 A 
ENDROOT
BRANCH   1   7
HETATM    7  C   LIG     1      17.208  36.018  20.394  1.00  0.00     0.176 C 
HETATM    8  O   LIG     1      18.072  36.350  19.539  1.00  0.00    -0.646 OA
BRANCH   7   9
HETATM    9  O   LIG     1      16.259  35.059  20.042  1.00  0.00    -0.773 OA
HETATM   10  H   LIG     1      16.509  34.119  19.767  1.00  0.00     0.167 HD
ENDBRANCH   7   9
ENDBRANCH   1   7
BRANCH   4  11
HETATM   11  N   LIG     1      17.254  38.535  25.545  1.00  0.00    -0.399 N 
HETATM   12  H   LIG     1      18.151  38.846  25.980  1.00  0.00     0.156 HD
HETATM   13  H   LIG     1      16.365  38.694  26.070  1.00  0.00     0.156 HD
ENDBRANCH   4  11
TORSDOF 3
ENDMDL
MODEL 7
REMARK VINA RESULT:      -5.8      2.326      2.731
REMARK  3 active torsions:
REMARK  status: ('A' for Active; 'I' for Inactive)
REMARK    1  A    between atoms: O_1  and  C_2 
REMARK    2  A    between atoms: C_2  and  C_3 
REMARK    3  A    between atoms: C_6  and  N_7 
ROOT
HETATM    1  C   LIG     1      16.463  36.110  21.311  1.00  0.00     0.037 A 
HETATM    2  C   LIG     1      16.181  37.072  22.298  1.00  0.00     0.020 A 
HETATM    3  C   LIG     1      16.987  38.208  22.435  1.00  0.00     0.030 A 
HETATM    4  C   LIG     1      18.081  38.403  21.584  1.00  0.00     0.025 A 
HETATM    5  C   LIG     1      18.361  37.456  20.591  1.00  0.00     0.030 A 
HETATM    6  C   LIG     1      17.557  36.320  20.452  1.00  0.00     0.020 A 
ENDROOT
BRANCH   1   7
HETATM    7  C   LIG     1      15.597  34.913  21.175  1.00  0.00     0.176 C 
HETATM    8  O   LIG     1      16.073  33.850  20.695  1.00  0.00    -0.646 OA
BRANCH   7   9
HETATM    9  O   LIG     1      14.255  34.931  21.550  1.00  0.00    -0.773 OA
HETATM   10  H   LIG     1      13.853  34.245  22.176  1.00  0.00     0.167 HD
ENDBRANCH   7   9
ENDBRANCH   1   7
BRANCH   4  11
HETATM   11  N   LIG     1      18.904  39.565  21.724  1.00  0.00    -0.399 N 
HETATM   12  H   LIG     1      19.208  39.894  22.667  1.00  0.00     0.156 HD
HETATM   13  H   LIG     1      19.214  40.103  20.885  1.00  0.00     0.156 HD
ENDBRANCH   4  11
TORSDOF 3
ENDMDL
MODEL 8
REMARK VINA RESULT:      -5.8      9.616     10.501
REMARK  3 active torsions:
REMARK  status: ('A' for Active; 'I' for Inactive)
REMARK    1  A    between atoms: O_1  and  C_2 
REMARK    2  A    between atoms: C_2  and  C_3 
REMARK    3  A    between atoms: C_6  and  N_7 
ROOT
HETATM    1  C   LIG     1      15.369  31.684  15.201  1.00  0.00     0.037 A 
HETATM    2  C   LIG     1      14.206  31.421  15.947  1.00  0.00     0.020 A 
HETATM    3  C   LIG     1      13.332  30.398  15.566  1.00  0.00     0.030 A 
HETATM    4  C   LIG     1      13.610  29.617  14.438  1.00  0.00     0.025 A 
HETATM    5  C   LIG     1      14.772  29.865  13.697  1.00  0.00     0.030 A 
HETATM    6  C   LIG     1      15.648  30.887  14.076  1.00  0.00     0.020 A 
ENDROOT
BRANCH   1   7
HETATM    7  C   LIG     1      16.289  32.770  15.621  1.00  0.00     0.176 C 
HETATM    8  O   LIG     1      17.533  32.618  15.494  1.00  0.00    -0.646 OA
BRANCH   7   9
HETATM    9  O   LIG     1      15.818  33.960  16.172  1.00  0.00    -0.773 OA
HETATM   10  H   LIG     1      15.576  34.051  17.149  1.00  0.00     0.167 HD
ENDBRANCH   7   9
ENDBRANCH   1   7
BRANCH   4  11
HETATM   11  N   LIG     1      12.716  28.570  14.049  1.00  0.00    -0.399 N 
HETATM   12  H   LIG     1      13.057  27.588  13.943  1.00  0.00     0.156 HD
HETATM   13  H   LIG     1      11.708  28.770  13.863  1.00  0.00     0.156 HD
ENDBRANCH   4  11
TORSDOF 3
ENDMDL
MODEL 9
REMARK VINA RESULT:      -5.7      9.585     10.422
REMARK  3 active torsions:
REMARK  status: ('A' for Active; 'I' for Inactive)
REMARK    1  A    between atoms: O_1  and  C_2 
REMARK    2  A    between atoms: C_2  and  C_3 
REMARK    3  A    between atoms: C_6  and  N_7 
ROOT
HETATM    1  C   LIG     1      14.092  30.427  15.146  1.00  0.00     0.037 A 
HETATM    2  C   LIG     1      13.185  30.780  16.162  1.00  0.00     0.020 A 
HETATM    3  C   LIG     1      13.423  31.896  16.971  1.00  0.00     0.030 A 
HETATM    4  C   LIG     1      14.564  32.681  16.773  1.00  0.00     0.025 A 
HETATM    5  C   LIG     1      15.466  32.343  15.755  1.00  0.00     0.030 A 
HETATM    6  C   LIG     1      15.231  31.228  14.945  1.00  0.00     0.020 A 
ENDROOT
BRANCH   1   7
HETATM    7  C   LIG     1      13.825  29.243  14.293  1.00  0.00     0.176 C 
HETATM    8  O   LIG     1      14.787  28.553  13.863  1.00  0.00    -0.646 OA
BRANCH   7   9
HETATM    9  O   LIG     1      12.530  28.873  13.933  1.00  0.00    -0.773 OA
HETATM   10  H   LIG     1      11.747  29.512  13.981  1.00  0.00     0.167 HD
ENDBRANCH   7   9
ENDBRANCH   1   7
BRANCH   4  11
HETATM   11  N   LIG     1      14.806  33.823  17.600  1.00  0.00    -0.399 N 
HETATM   12  H   LIG     1      14.346  34.738  17.395  1.00  0.00     0.156 HD
HETATM   13  H   LIG     1      15.447  33.760  18.422  1.00  0.00     0.156 HD
ENDBRANCH   4  11
TORSDOF 3
ENDMDL
MODEL 10
REMARK VINA RESULT:      -5.7      3.456      4.114
REMARK  3 active torsions:
REMARK  status: ('A' for Active; 'I' for Inactive)
REMARK    1  A    between atoms: O_1  and  C_2 
REMARK    2  A    between atoms: C_2  and  C_3 
REMARK    3  A    between atoms: C_6  and  N_7 
ROOT
HETATM    1  C   LIG     1      18.500  38.045  20.746  1.00  0.00     0.037 A 
HETATM    2  C   LIG     1      18.220  39.179  21.529  1.00  0.00     0.020 A 
HETATM    3  C   LIG     1      17.169  39.164  22.452  1.00  0.00     0.030 A 
HETATM    4  C   LIG     1      16.386  38.015  22.612  1.00  0.00     0.025 A 
HETATM    5  C   LIG     1      16.666  36.878  21.844  1.00  0.00     0.030 A 
HETATM    6  C   LIG     1      17.716  36.889  20.921  1.00  0.00     0.020 A 
ENDROOT
BRANCH   1   7
HETATM    7  C   LIG     1      19.620  38.074  19.774  1.00  0.00     0.176 C 
HETATM    8  O   LIG     1      20.125  36.992  19.370  1.00  0.00    -0.646 OA
BRANCH   7   9
HETATM    9  O   LIG     1      20.151  39.272  19.300  1.00  0.00    -0.773 OA
HETATM   10  H   LIG     1      19.607  39.937  18.767  1.00  0.00     0.167 HD
ENDBRANCH   7   9
ENDBRANCH   1   7
BRANCH   4  11
HETATM   11  N   LIG     1      15.312  38.000  23.556  1.00  0.00    -0.399 N 
HETATM   12  H   LIG     1      15.263  38.710  24.321  1.00  0.00     0.156 HD
HETATM   13  H   LIG     1      14.559  37.279  23.497  1.00  0.00     0.156 HD
ENDBRANCH   4  11
TORSDOF 3
ENDMDL
MODEL 11
REMARK VINA RESULT:      -5.6      8.651      9.561
REMARK  3 active torsions:
REMARK  status: ('A' for Active; 'I' for Inactive)
REMARK    1  A    between atoms: O_1  and  C_2 
REMARK    2  A    between atoms: C_2  and  C_3 
REMARK    3  A    between atoms: C_6  and  N_7 
ROOT
HETATM    1  C   LIG     1      15.804  32.422  15.568  1.00  0.00     0.037 A 
HETATM    2  C   LIG     1      15.040  32.782  16.693  1.00  0.00     0.020 A 
HETATM    3  C   LIG     1      13.897  32.054  17.041  1.00  0.00     0.030 A 
HETATM    4  C   LIG     1      13.504  30.951  16.274  1.00  0.00     0.025 A 
HETATM    5  C   LIG     1      14.265  30.579  15.159  1.00  0.00     0.030 A 
HETATM    6  C   LIG     1      15.408  31.305  14.809  1.00  0.00     0.020 A 
ENDROOT
BRANCH   1   7
HETATM    7  C   LIG     1      17.015  33.201  15.215  1.00  0.00     0.176 C 
HETATM    8  O   LIG     1      18.122  32.612  15.088  1.00  0.00    -0.646 OA
BRANCH   7   9
HETATM    9  O   LIG     1      16.973  34.582  15.030  1.00  0.00    -0.773 OA
HETATM   10  H   LIG     1      17.497  35.052  14.304  1.00  0.00     0.167 HD
ENDBRANCH   7   9
ENDBRANCH   1   7
BRANCH   4  11
HETATM   11  N   LIG     1      12.336  30.206  16.630  1.00  0.00    -0.399 N 
HETATM   12  H   LIG     1      12.416  29.247  17.036  1.00  0.00     0.156 HD
HETATM   13  H   LIG     1      11.382  30.609  16.489  1.00  0.00     0.156 HD
ENDBRANCH   4  11
TORSDOF 3
ENDMDL
MODEL 12
REMARK VINA RESULT:      -5.6      3.393      4.279
REMARK  3 active torsions:
REMARK  status: ('A' for Active; 'I' for Inactive)
REMARK    1  A    between atoms: O_1  and  C_2 
REMARK    2  A    between atoms: C_2  and  C_3 
REMARK    3  A    between atoms: C_6  and  N_7 
ROOT
HETATM    1  C   LIG     1      18.150  37.089  20.660  1.00  0.00     0.037 A 
HETATM    2  C   LIG     1      17.362  36.157  21.358  1.00  0.00     0.020 A 
HETATM    3  C   LIG     1      16.735  36.512  22.557  1.00  0.00     0.030 A 
HETATM    4  C   LIG     1      16.881  37.804  23.074  1.00  0.00     0.025 A 
HETATM    5  C   LIG     1      17.654  38.742  22.378  1.00  0.00     0.030 A 
HETATM    6  C   LIG     1      18.282  38.391  21.179  1.00  0.00     0.020 A 
ENDROOT
BRANCH   1   7
HETATM    7  C   LIG     1      18.805  36.700  19.387  1.00  0.00     0.176 C 
HETATM    8  O   LIG     1      20.017  36.356  19.388  1.00  0.00    -0.646 OA
BRANCH   7   9
HETATM    9  O   LIG     1      18.120  36.718  18.173  1.00  0.00    -0.773 OA
HETATM   10  H   LIG     1      17.118  36.598  18.109  1.00  0.00     0.167 HD
ENDBRANCH   7   9
ENDBRANCH   1   7
BRANCH   4  11
HETATM   11  N   LIG     1      16.239  38.167  24.300  1.00  0.00    -0.399 N 
HETATM   12  H   LIG     1      16.548  39.008  24.836  1.00  0.00     0.156 HD
HETATM   13  H   LIG     1      15.451  37.596  24.679  1.00  0.00     0.156 HD
ENDBRANCH   4  11
TORSDOF 3
ENDMDL
MODEL 13
REMARK VINA RESULT:      -5.5      3.000      3.815
REMARK  3 active torsions:
REMARK  status: ('A' for Active; 'I' for Inactive)
REMARK    1  A    between atoms: O_1  and  C_2 
REMARK    2  A    between atoms: C_2  and  C_3 
REMARK    3  A    between atoms: C_6  and  N_7 
ROOT
HETATM    1  C   LIG     1      16.281  37.200  22.374  1.00  0.00     0.037 A 
HETATM    2  C   LIG     1      17.329  36.811  21.519  1.00  0.00     0.020 A 
HETATM    3  C   LIG     1      17.118  35.849  20.527  1.00  0.00     0.030 A 
HETATM    4  C   LIG     1      15.856  35.265  20.367  1.00  0.00     0.025 A 
HETATM    5  C   LIG     1      14.804  35.656  21.205  1.00  0.00     0.030 A 
HETATM    6  C   LIG     1      15.012  36.618  22.199  1.00  0.00     0.020 A 
ENDROOT
BRANCH   1   7
HETATM    7  C   LIG     1      16.519  38.225  23.419  1.00  0.00     0.176 C 
HETATM    8  O   LIG     1      16.776  39.412  23.083  1.00  0.00    -0.646 OA
BRANCH   7   9
HETATM    9  O   LIG     1      16.482  37.912  24.777  1.00  0.00    -0.773 OA
HETATM   10  H   LIG     1      17.210  38.190  25.421  1.00  0.00     0.167 HD
ENDBRANCH   7   9
ENDBRANCH   1   7
BRANCH   4  11
HETATM   11  N   LIG     1      15.640  34.282  19.351  1.00  0.00    -0.399 N 
HETATM   12  H   LIG     1      15.977  34.439  18.375  1.00  0.00     0.156 HD
HETATM   13  H   LIG     1      15.141  33.390  19.568  1.00  0.00     0.156 HD
ENDBRANCH   4  11
TORSDOF 3
ENDMDL
MODEL 14
REMARK VINA RESULT:      -5.5      3.336      4.109
REMARK  3 active torsions:
REMARK  status: ('A' for Active; 'I' for Inactive)
REMARK    1  A    between atoms: O_1  and  C_2 
REMARK    2  A    between atoms: C_2  and  C_3 
REMARK    3  A    between atoms: C_6  and  N_7 
ROOT
HETATM    1  C   LIG     1      17.728  37.761  21.370  1.00  0.00     0.037 A 
HETATM    2  C   LIG     1      16.642  37.963  22.240  1.00  0.00     0.020 A 
HETATM    3  C   LIG     1      15.598  37.034  22.303  1.00  0.00     0.030 A 
HETATM    4  C   LIG     1      15.627  35.886  21.504  1.00  0.00     0.025 A 
HETATM    5  C   LIG     1      16.711  35.671  20.643  1.00  0.00     0.030 A 
HETATM    6  C   LIG     1      17.756  36.598  20.579  1.00  0.00     0.020 A 
ENDROOT
BRANCH   1   7
HETATM    7  C   LIG     1      18.830  38.753  21.318  1.00  0.00     0.176 C 
HETATM    8  O   LIG     1      19.318  39.086  20.205  1.00  0.00    -0.646 OA
BRANCH   7   9
HETATM    9  O   LIG     1      19.360  39.325  22.473  1.00  0.00    -0.773 OA
HETATM   10  H   LIG     1      19.920  40.167  22.458  1.00  0.00     0.167 HD
ENDBRANCH   7   9
ENDBRANCH   1   7
BRANCH   4  11
HETATM   11  N   LIG     1      14.560  34.935  21.569  1.00  0.00    -0.399 N 
HETATM   12  H   LIG     1      14.005  34.813  22.446  1.00  0.00     0.156 HD
HETATM   13  H   LIG     1      14.318  34.347  20.741  1.00  0.00     0.156 HD
ENDBRANCH   4  11
TORSDOF 3
ENDMDL
MODEL 15
REMARK VINA RESULT:      -5.5      8.630      9.458
REMARK  3 active torsions:
REMARK  status: ('A' for Active; 'I' for Inactive)
REMARK    1  A    between atoms: O_1  and  C_2 
REMARK    2  A    between atoms: C_2  and  C_3 
REMARK    3  A    between atoms: C_6  and  N_7 
ROOT
HETATM    1  C   LIG     1      14.554  31.407  15.878  1.00  0.00     0.037 A 
HETATM    2  C   LIG     1      14.622  30.726  14.650  1.00  0.00     0.020 A 
HETATM    3  C   LIG     1      15.496  31.155  13.645  1.00  0.00     0.030 A 
HETATM    4  C   LIG     1      16.320  32.266  13.855  1.00  0.00     0.025 A 
HETATM    5  C   LIG     1      16.267  32.943  15.081  1.00  0.00     0.030 A 
HETATM    6  C   LIG     1      15.395  32.516  16.086  1.00  0.00     0.020 A 
ENDROOT
BRANCH   1   7
HETATM    7  C   LIG     1      13.625  30.938  16.936  1.00  0.00     0.176 C 
HETATM    8  O   LIG     1      13.930  31.093  18.148  1.00  0.00    -0.646 OA
BRANCH   7   9
HETATM    9  O   LIG     1      12.420  30.309  16.629  1.00  0.00    -0.773 OA
HETATM   10  H   LIG     1      11.865  30.555  15.820  1.00  0.00     0.167 HD
ENDBRANCH   7   9
ENDBRANCH   1   7
BRANCH   4  11
HETATM   11  N   LIG     1      17.214  32.705  12.829  1.00  0.00    -0.399 N 
HETATM   12  H   LIG     1      17.867  32.033  12.366  1.00  0.00     0.156 HD
HETATM   13  H   LIG     1      17.230  33.704  12.525  1.00  0.00     0.156 HD
ENDBRANCH   4  11
TORSDOF 3
ENDMDL
MODEL 16
REMARK VINA RESULT:      -5.4      3.915      4.608
REMARK  3 active torsions:
REMARK  status: ('A' for Active; 'I' for Inactive)
REMARK    1  A    between atoms: O_1  and  C_2 
REMARK    2  A    between atoms: C_2  and  C_3 
REMARK    3  A    between atoms: C_6  and  N_7 
ROOT
HETATM    1  C   LIG     1      16.764  35.823  23.016  1.00  0.00     0.037 A 
HETATM    2  C   LIG     1      17.027  37.194  23.182  1.00  0.00     0.020 A 
HETATM    3  C   LIG     1      17.586  37.673  24.371  1.00  0.00     0.030 A 
HETATM    4  C   LIG     1      17.897  36.788  25.410  1.00  0.00     0.025 A 
HETATM    5  C   LIG     1      17.648  35.419  25.249  1.00  0.00     0.030 A 
HETATM    6  C   LIG     1      17.090  34.938  24.061  1.00  0.00     0.020 A 
ENDROOT
BRANCH   1   7
HETATM    7  C   LIG     1      16.175  35.329  21.747  1.00  0.00     0.176 C 
HETATM    8  O   LIG     1      15.166  34.575  21.778  1.00  0.00    -0.646 OA
BRANCH   7   9
HETATM    9  O   LIG     1      16.716  35.664  20.507  1.00  0.00    -0.773 OA
HETATM   10  H   LIG     1      16.817  34.993  19.756  1.00  0.00     0.167 HD
ENDBRANCH   7   9
ENDBRANCH   1   7
BRANCH   4  11
HETATM   11  N   LIG     1      18.469  37.277  26.626  1.00  0.00    -0.399 N 
HETATM   12  H   LIG     1      18.983  38.187  26.648  1.00  0.00     0.156 HD
HETATM   13  H   LIG     1      18.383  36.734  27.514  1.00  0.00     0.156 HD
ENDBRANCH   4  11
TORSDOF 3
ENDMDL
MODEL 17
REMARK VINA RESULT:      -5.4      9.270     10.319
REMARK  3 active torsions:
REMARK  status: ('A' for Active; 'I' for Inactive)
REMARK    1  A    between atoms: O_1  and  C_2 
REMARK    2  A    between atoms: C_2  and  C_3 
REMARK    3  A    between atoms: C_6  and  N_7 
ROOT
HETATM    1  C   LIG     1      15.907  32.197  14.602  1.00  0.00     0.037 A 
HETATM    2  C   LIG     1      15.277  31.061  14.063  1.00  0.00     0.020 A 
HETATM    3  C   LIG     1      14.262  30.407  14.770  1.00  0.00     0.030 A 
HETATM    4  C   LIG     1      13.857  30.881  16.023  1.00  0.00     0.025 A 
HETATM    5  C   LIG     1      14.471  32.019  16.562  1.00  0.00     0.030 A 
HETATM    6  C   LIG     1      15.485  32.675  15.857  1.00  0.00     0.020 A 
ENDROOT
BRANCH   1   7
HETATM    7  C   LIG     1      16.978  32.883  13.839  1.00  0.00     0.176 C 
HETATM    8  O   LIG     1      17.392  34.010  14.219  1.00  0.00    -0.646 OA
BRANCH   7   9
HETATM    9  O   LIG     1      17.538  32.322  12.692  1.00  0.00    -0.773 OA
HETATM   10  H   LIG     1      17.539  32.795  11.798  1.00  0.00     0.167 HD
ENDBRANCH   7   9
ENDBRANCH   1   7
BRANCH   4  11
HETATM   11  N   LIG     1      12.819  30.213  16.745  1.00  0.00    -0.399 N 
HETATM   12  H   LIG     1      12.692  30.374  17.770  1.00  0.00     0.156 HD
HETATM   13  H   LIG     1      12.172  29.552  16.261  1.00  0.00     0.156 HD
ENDBRANCH   4  11
TORSDOF 3
ENDMDL
MODEL 18
REMARK VINA RESULT:      -5.0      9.150      9.984
REMARK  3 active torsions:
REMARK  status: ('A' for Active; 'I' for Inactive)
REMARK    1  A    between atoms: O_1  and  C_2 
REMARK    2  A    between atoms: C_2  and  C_3 
REMARK    3  A    between atoms: C_6  and  N_7 
ROOT
HETATM    1  C   LIG     1      14.816  30.855  14.810  1.00  0.00     0.037 A 
HETATM    2  C   LIG     1      15.742  31.414  13.911  1.00  0.00     0.020 A 
HETATM    3  C   LIG     1      16.427  32.589  14.233  1.00  0.00     0.030 A 
HETATM    4  C   LIG     1      16.204  33.221  15.462  1.00  0.00     0.025 A 
HETATM    5  C   LIG     1      15.293  32.665  16.369  1.00  0.00     0.030 A 
HETATM    6  C   LIG     1      14.606  31.490  16.049  1.00  0.00     0.020 A 
ENDROOT
BRANCH   1   7
HETATM    7  C   LIG     1      14.100  29.605  14.456  1.00  0.00     0.176 C 
HETATM    8  O   LIG     1      14.735  28.644  13.946  1.00  0.00    -0.646 OA
BRANCH   7   9
HETATM    9  O   LIG     1      12.728  29.462  14.658  1.00  0.00    -0.773 OA
HETATM   10  H   LIG     1      12.047  29.657  13.936  1.00  0.00     0.167 HD
ENDBRANCH   7   9
ENDBRANCH   1   7
BRANCH   4  11
HETATM   11  N   LIG     1      16.906  34.423  15.792  1.00  0.00    -0.399 N 
HETATM   12  H   LIG     1      17.854  34.615  15.397  1.00  0.00     0.156 HD
HETATM   13  H   LIG     1      16.482  35.130  16.434  1.00  0.00     0.156 HD
ENDBRANCH   4  11
TORSDOF 3
ENDMDL
MODEL 19
REMARK VINA RESULT:      -4.9      2.978      3.812
REMARK  3 active torsions:
REMARK  status: ('A' for Active; 'I' for Inactive)
REMARK    1  A    between atoms: O_1  and  C_2 
REMARK    2  A    between atoms: C_2  and  C_3 
REMARK    3  A    between atoms: C_6  and  N_7 
ROOT
HETATM    1  C   LIG     1      16.276  35.234  21.311  1.00  0.00     0.037 A 
HETATM    2  C   LIG     1      17.017  36.044  20.431  1.00  0.00     0.020 A 
HETATM    3  C   LIG     1      17.696  37.172  20.903  1.00  0.00     0.030 A 
HETATM    4  C   LIG     1      17.652  37.505  22.262  1.00  0.00     0.025 A 
HETATM    5  C   LIG     1      16.927  36.697  23.147  1.00  0.00     0.030 A 
HETATM    6  C   LIG     1      16.247  35.569  22.678  1.00  0.00     0.020 A 
ENDROOT
BRANCH   1   7
HETATM    7  C   LIG     1      15.565  34.039  20.797  1.00  0.00     0.176 C 
HETATM    8  O   LIG     1      16.047  33.394  19.828  1.00  0.00    -0.646 OA
BRANCH   7   9
HETATM    9  O   LIG     1      14.359  33.608  21.347  1.00  0.00    -0.773 OA
HETATM   10  H   LIG     1      13.706  33.024  20.842  1.00  0.00     0.167 HD
ENDBRANCH   7   9
ENDBRANCH   1   7
BRANCH   4  11
HETATM   11  N   LIG     1      18.347  38.658  22.744  1.00  0.00    -0.399 N 
HETATM   12  H   LIG     1      17.831  39.539  22.969  1.00  0.00     0.156 HD
HETATM   13  H   LIG     1      19.382  38.640  22.880  1.00  0.00     0.156 HD
ENDBRANCH   4  11
TORSDOF 3
ENDMDL
MODEL 20
REMARK VINA RESULT:      -4.6      7.176      8.006
REMARK  3 active torsions:
REMARK  status: ('A' for Active; 'I' for Inactive)
REMARK    1  A    between atoms: O_1  and  C_2 
REMARK    2  A    between atoms: C_2  and  C_3 
REMARK    3  A    between atoms: C_6  and  N_7 
ROOT
HETATM    1  C   LIG     1      14.342  32.030  17.405  1.00  0.00     0.037 A 
HETATM    2  C   LIG     1      14.639  33.295  16.866  1.00  0.00     0.020 A 
HETATM    3  C   LIG     1      15.225  34.287  17.659  1.00  0.00     0.030 A 
HETATM    4  C   LIG     1      15.528  34.029  19.001  1.00  0.00     0.025 A 
HETATM    5  C   LIG     1      15.247  32.768  19.542  1.00  0.00     0.030 A 
HETATM    6  C   LIG     1      14.662  31.775  18.751  1.00  0.00     0.020 A 
ENDROOT
BRANCH   1   7
HETATM    7  C   LIG     1      13.726  30.987  16.550  1.00  0.00     0.176 C 
HETATM    8  O   LIG     1      12.599  30.514  16.855  1.00  0.00    -0.646 OA
BRANCH   7   9
HETATM    9  O   LIG     1      14.367  30.494  15.414  1.00  0.00    -0.773 OA
HETATM   10  H   LIG     1      15.361  30.311  15.385  1.00  0.00     0.167 HD
ENDBRANCH   7   9
ENDBRANCH   1   7
BRANCH   4  11
HETATM   11  N   LIG     1      16.128  35.044  19.812  1.00  0.00    -0.399 N 
HETATM   12  H   LIG     1      17.102  34.934  20.172  1.00  0.00     0.156 HD
HETATM   13  H   LIG     1      15.601  35.911  20.058  1.00  0.00     0.156 HD
ENDBRANCH   4  11
TORSDOF 3
ENDMDL
