REMARK  3 active torsions:
REMARK  status: ('A' for Active; 'I' for Inactive)
REMARK    1  A    between atoms: O_1  and  C_2 
REMARK    2  A    between atoms: C_2  and  C_3 
REMARK    3  A    between atoms: C_6  and  N_7 
ROOT
HETATM    1  C   LIG     1      -1.148   0.363   0.083  1.00  0.00     0.037 A 
HETATM    2  C   LIG     1      -0.197   1.341   0.426  1.00  0.00     0.020 A 
HETATM    3  C   LIG     1       1.171   1.054   0.370  1.00  0.00     0.030 A 
HETATM    4  C   LIG     1       1.610  -0.211  -0.036  1.00  0.00     0.025 A 
HETATM    5  C   LIG     1       0.670  -1.187  -0.391  1.00  0.00     0.030 A 
HETATM    6  C   LIG     1      -0.698  -0.903  -0.336  1.00  0.00     0.020 A 
ENDROOT
BRANCH   1   7
HETATM    7  C   LIG     1      -2.595   0.683   0.143  1.00  0.00     0.176 C 
HETATM    8  O   LIG     1      -2.971   1.885   0.109  1.00  0.00    -0.646 OA
BRANCH   7   9
HETATM    9  O   LIG     1      -3.564  -0.313   0.253  1.00  0.00    -0.773 OA
HETATM   10  H   LIG     1      -3.332  -1.288   0.389  1.00  0.00     0.167 HD
ENDBRANCH   7   9
ENDBRANCH   1   7
BRANCH   4  11
HETATM   11  N   LIG     1       3.009  -0.504  -0.094  1.00  0.00    -0.399 N 
HETATM   12  H   LIG     1       3.346  -1.445  -0.398  1.00  0.00     0.156 HD
HETATM   13  H   LIG     1       3.717   0.218   0.167  1.00  0.00     0.156 HD
ENDBRANCH   4  11
TORSDOF 3
