MODEL 1
REMARK VINA RESULT:      -6.2      0.000      0.000
REMARK  1 active torsions:
REMARK  status: ('A' for Active; 'I' for Inactive)
REMARK       I    between atoms: C_2  and  N_6 
REMARK       I    between atoms: C_2  and  N_3 
REMARK    1  A    between atoms: N_6  and  C_7 
ROOT
HETATM    1  C   LIG     1      16.260  35.260  21.027  1.00  0.00     0.036 A 
HETATM    2  C   LIG     1      15.286  35.908  21.809  1.00  0.00     0.031 A 
HETATM    3  C   LIG     1      15.534  37.180  22.335  1.00  0.00     0.026 A 
HETATM    4  C   LIG     1      16.759  37.812  22.095  1.00  0.00     0.034 A 
HETATM    5 CL   LIG     1      17.068  39.406  22.756  1.00  0.00    -0.084 Cl
HETATM    6  C   LIG     1      17.739  37.165  21.336  1.00  0.00     0.026 A 
HETATM    7  C   LIG     1      17.495  35.893  20.811  1.00  0.00     0.031 A 
ENDROOT
BRANCH   1   8
HETATM    8  N   LIG     1      16.040  33.941  20.496  1.00  0.00    -0.309 N 
HETATM    9  C   LIG     1      15.477  33.688  19.195  1.00  0.00     0.322 C 
HETATM   10  O   LIG     1      15.485  34.601  18.325  1.00  0.00    -0.247 OA
HETATM   11  N   LIG     1      14.934  32.393  18.863  1.00  0.00    -0.343 N 
HETATM   12  C   LIG     1      14.452  32.148  17.499  1.00  0.00     0.154 C 
HETATM   13  C   LIG     1      14.823  31.344  19.881  1.00  0.00     0.154 C 
HETATM   14  H   LIG     1      16.403  33.133  21.049  1.00  0.00     0.170 HD
ENDBRANCH   1   8
TORSDOF 1
ENDMDL
MODEL 2
REMARK VINA RESULT:      -5.9      4.529      5.705
REMARK  1 active torsions:
REMARK  status: ('A' for Active; 'I' for Inactive)
REMARK       I    between atoms: C_2  and  N_6 
REMARK       I    between atoms: C_2  and  N_3 
REMARK    1  A    between atoms: N_6  and  C_7 
ROOT
HETATM    1  C   LIG     1      17.892  37.439  21.377  1.00  0.00     0.036 A 
HETATM    2  C   LIG     1      18.099  38.829  21.320  1.00  0.00     0.031 A 
HETATM    3  C   LIG     1      18.601  39.421  20.155  1.00  0.00     0.026 A 
HETATM    4  C   LIG     1      18.911  38.630  19.044  1.00  0.00     0.034 A 
HETATM    5 CL   LIG     1      19.541  39.374  17.587  1.00  0.00    -0.084 Cl
HETATM    6  C   LIG     1      18.727  37.246  19.101  1.00  0.00     0.026 A 
HETATM    7  C   LIG     1      18.227  36.652  20.264  1.00  0.00     0.031 A 
ENDROOT
BRANCH   1   8
HETATM    8  N   LIG     1      17.400  36.803  22.571  1.00  0.00    -0.309 N 
HETATM    9  C   LIG     1      17.752  37.223  23.901  1.00  0.00     0.322 C 
HETATM   10  O   LIG     1      18.216  38.381  24.087  1.00  0.00    -0.247 OA
HETATM   11  N   LIG     1      17.550  36.348  25.032  1.00  0.00    -0.343 N 
HETATM   12  C   LIG     1      17.836  36.845  26.381  1.00  0.00     0.154 C 
HETATM   13  C   LIG     1      17.104  34.965  24.837  1.00  0.00     0.154 C 
HETATM   14  H   LIG     1      16.673  36.062  22.456  1.00  0.00     0.170 HD
ENDBRANCH   1   8
TORSDOF 1
ENDMDL
MODEL 3
REMARK VINA RESULT:      -5.8      3.417      5.943
REMARK  1 active torsions:
REMARK  status: ('A' for Active; 'I' for Inactive)
REMARK       I    between atoms: C_2  and  N_6 
REMARK       I    between atoms: C_2  and  N_3 
REMARK    1  A    between atoms: N_6  and  C_7 
ROOT
HETATM    1  C   LIG     1      15.627  33.929  19.335  1.00  0.00     0.036 A 
HETATM    2  C   LIG     1      15.311  34.303  18.016  1.00  0.00     0.031 A 
HETATM    3  C   LIG     1      14.663  33.403  17.163  1.00  0.00     0.026 A 
HETATM    4  C   LIG     1      14.335  32.120  17.615  1.00  0.00     0.034 A 
HETATM    5 CL   LIG     1      13.525  30.993  16.543  1.00  0.00    -0.084 Cl
HETATM    6  C   LIG     1      14.665  31.735  18.918  1.00  0.00     0.026 A 
HETATM    7  C   LIG     1      15.314  32.631  19.771  1.00  0.00     0.031 A 
ENDROOT
BRANCH   1   8
HETATM    8  N   LIG     1      16.315  34.827  20.225  1.00  0.00    -0.309 N 
HETATM    9  C   LIG     1      15.647  35.701  21.151  1.00  0.00     0.322 C 
HETATM   10  O   LIG     1      14.451  35.465  21.478  1.00  0.00    -0.247 OA
HETATM   11  N   LIG     1      16.335  36.827  21.737  1.00  0.00    -0.343 N 
HETATM   12  C   LIG     1      15.648  37.641  22.744  1.00  0.00     0.154 C 
HETATM   13  C   LIG     1      17.690  37.182  21.303  1.00  0.00     0.154 C 
HETATM   14  H   LIG     1      17.357  34.760  20.263  1.00  0.00     0.170 HD
ENDBRANCH   1   8
TORSDOF 1
ENDMDL
MODEL 4
REMARK VINA RESULT:      -5.6      6.517      8.339
REMARK  1 active torsions:
REMARK  status: ('A' for Active; 'I' for Inactive)
REMARK       I    between atoms: C_2  and  N_6 
REMARK       I    between atoms: C_2  and  N_3 
REMARK    1  A    between atoms: N_6  and  C_7 
ROOT
HETATM    1  C   LIG     1      16.713  32.597  14.515  1.00  0.00     0.036 A 
HETATM    2  C   LIG     1      16.076  31.483  13.940  1.00  0.00     0.031 A 
HETATM    3  C   LIG     1      14.957  30.913  14.557  1.00  0.00     0.026 A 
HETATM    4  C   LIG     1      14.472  31.442  15.758  1.00  0.00     0.034 A 
HETATM    5 CL   LIG     1      13.071  30.725  16.530  1.00  0.00    -0.084 Cl
HETATM    6  C   LIG     1      15.113  32.537  16.346  1.00  0.00     0.026 A 
HETATM    7  C   LIG     1      16.232  33.107  15.732  1.00  0.00     0.031 A 
ENDROOT
BRANCH   1   8
HETATM    8  N   LIG     1      17.880  33.186  13.914  1.00  0.00    -0.309 N 
HETATM    9  C   LIG     1      17.848  33.964  12.703  1.00  0.00     0.322 C 
HETATM   10  O   LIG     1      16.758  34.462  12.312  1.00  0.00    -0.247 OA
HETATM   11  N   LIG     1      19.054  34.208  11.948  1.00  0.00    -0.343 N 
HETATM   12  C   LIG     1      18.996  35.079  10.769  1.00  0.00     0.154 C 
HETATM   13  C   LIG     1      20.316  33.563  12.324  1.00  0.00     0.154 C 
HETATM   14  H   LIG     1      18.777  33.126  14.446  1.00  0.00     0.170 HD
ENDBRANCH   1   8
TORSDOF 1
ENDMDL
MODEL 5
REMARK VINA RESULT:      -5.5      6.742      8.612
REMARK  1 active torsions:
REMARK  status: ('A' for Active; 'I' for Inactive)
REMARK       I    between atoms: C_2  and  N_6 
REMARK       I    between atoms: C_2  and  N_3 
REMARK    1  A    between atoms: N_6  and  C_7 
ROOT
HETATM    1  C   LIG     1      16.563  32.577  13.690  1.00  0.00     0.036 A 
HETATM    2  C   LIG     1      16.470  33.230  14.933  1.00  0.00     0.031 A 
HETATM    3  C   LIG     1      15.639  32.721  15.937  1.00  0.00     0.026 A 
HETATM    4  C   LIG     1      14.885  31.566  15.705  1.00  0.00     0.034 A 
HETATM    5 CL   LIG     1      13.843  30.932  16.965  1.00  0.00    -0.084 Cl
HETATM    6  C   LIG     1      14.956  30.925  14.465  1.00  0.00     0.026 A 
HETATM    7  C   LIG     1      15.785  31.431  13.460  1.00  0.00     0.031 A 
ENDROOT
BRANCH   1   8
HETATM    8  N   LIG     1      17.391  33.093  12.632  1.00  0.00    -0.309 N 
HETATM    9  C   LIG     1      18.775  33.449  12.803  1.00  0.00     0.322 C 
HETATM   10  O   LIG     1      19.418  32.993  13.787  1.00  0.00    -0.247 OA
HETATM   11  N   LIG     1      19.445  34.296  11.846  1.00  0.00    -0.343 N 
HETATM   12  C   LIG     1      20.878  34.563  12.007  1.00  0.00     0.154 C 
HETATM   13  C   LIG     1      18.700  34.919  10.747  1.00  0.00     0.154 C 
HETATM   14  H   LIG     1      16.985  33.112  11.669  1.00  0.00     0.170 HD
ENDBRANCH   1   8
TORSDOF 1
ENDMDL
MODEL 6
REMARK VINA RESULT:      -5.5      3.400      4.751
REMARK  1 active torsions:
REMARK  status: ('A' for Active; 'I' for Inactive)
REMARK       I    between atoms: C_2  and  N_6 
REMARK       I    between atoms: C_2  and  N_3 
REMARK    1  A    between atoms: N_6  and  C_7 
ROOT
HETATM    1  C   LIG     1      15.196  32.840  17.548  1.00  0.00     0.036 A 
HETATM    2  C   LIG     1      15.269  34.233  17.724  1.00  0.00     0.031 A 
HETATM    3  C   LIG     1      15.433  34.775  19.004  1.00  0.00     0.026 A 
HETATM    4  C   LIG     1      15.513  33.933  20.118  1.00  0.00     0.034 A 
HETATM    5 CL   LIG     1      15.716  34.615  21.720  1.00  0.00    -0.084 Cl
HETATM    6  C   LIG     1      15.419  32.548  19.952  1.00  0.00     0.026 A 
HETATM    7  C   LIG     1      15.255  32.004  18.675  1.00  0.00     0.031 A 
ENDROOT
BRANCH   1   8
HETATM    8  N   LIG     1      15.003  32.258  16.246  1.00  0.00    -0.309 N 
HETATM    9  C   LIG     1      14.082  31.185  15.980  1.00  0.00     0.322 C 
HETATM   10  O   LIG     1      13.149  30.948  16.795  1.00  0.00    -0.247 OA
HETATM   11  N   LIG     1      14.192  30.396  14.776  1.00  0.00    -0.343 N 
HETATM   12  C   LIG     1      13.181  29.370  14.498  1.00  0.00     0.154 C 
HETATM   13  C   LIG     1      15.321  30.583  13.859  1.00  0.00     0.154 C 
HETATM   14  H   LIG     1      15.488  32.712  15.439  1.00  0.00     0.170 HD
ENDBRANCH   1   8
TORSDOF 1
ENDMDL
MODEL 7
REMARK VINA RESULT:      -5.4      7.759      9.266
REMARK  1 active torsions:
REMARK  status: ('A' for Active; 'I' for Inactive)
REMARK       I    between atoms: C_2  and  N_6 
REMARK       I    between atoms: C_2  and  N_3 
REMARK    1  A    between atoms: N_6  and  C_7 
ROOT
HETATM    1  C   LIG     1      18.846  33.919  12.022  1.00  0.00     0.036 A 
HETATM    2  C   LIG     1      20.130  33.832  12.590  1.00  0.00     0.031 A 
HETATM    3  C   LIG     1      21.220  34.454  11.973  1.00  0.00     0.026 A 
HETATM    4  C   LIG     1      21.040  35.159  10.778  1.00  0.00     0.034 A 
HETATM    5 CL   LIG     1      22.408  35.937  10.005  1.00  0.00    -0.084 Cl
HETATM    6  C   LIG     1      19.771  35.232  10.196  1.00  0.00     0.026 A 
HETATM    7  C   LIG     1      18.681  34.610  10.810  1.00  0.00     0.031 A 
ENDROOT
BRANCH   1   8
HETATM    8  N   LIG     1      17.713  33.267  12.623  1.00  0.00    -0.309 N 
HETATM    9  C   LIG     1      17.229  33.566  13.946  1.00  0.00     0.322 C 
HETATM   10  O   LIG     1      17.551  34.655  14.495  1.00  0.00    -0.247 OA
HETATM   11  N   LIG     1      16.355  32.650  14.639  1.00  0.00    -0.343 N 
HETATM   12  C   LIG     1      15.812  33.031  15.947  1.00  0.00     0.154 C 
HETATM   13  C   LIG     1      16.043  31.337  14.067  1.00  0.00     0.154 C 
HETATM   14  H   LIG     1      17.158  32.616  12.024  1.00  0.00     0.170 HD
ENDBRANCH   1   8
TORSDOF 1
ENDMDL
MODEL 8
REMARK VINA RESULT:      -5.2      4.440      7.269
REMARK  1 active torsions:
REMARK  status: ('A' for Active; 'I' for Inactive)
REMARK       I    between atoms: C_2  and  N_6 
REMARK       I    between atoms: C_2  and  N_3 
REMARK    1  A    between atoms: N_6  and  C_7 
ROOT
HETATM    1  C   LIG     1      14.867  32.182  16.913  1.00  0.00     0.036 A 
HETATM    2  C   LIG     1      15.565  31.746  15.773  1.00  0.00     0.031 A 
HETATM    3  C   LIG     1      14.978  30.831  14.892  1.00  0.00     0.026 A 
HETATM    4  C   LIG     1      13.696  30.334  15.148  1.00  0.00     0.034 A 
HETATM    5 CL   LIG     1      12.963  29.186  14.044  1.00  0.00    -0.084 Cl
HETATM    6  C   LIG     1      13.005  30.747  16.291  1.00  0.00     0.026 A 
HETATM    7  C   LIG     1      13.589  31.660  17.173  1.00  0.00     0.031 A 
ENDROOT
BRANCH   1   8
HETATM    8  N   LIG     1      15.457  33.103  17.848  1.00  0.00    -0.309 N 
HETATM    9  C   LIG     1      15.245  33.044  19.270  1.00  0.00     0.322 C 
HETATM   10  O   LIG     1      14.825  31.975  19.792  1.00  0.00    -0.247 OA
HETATM   11  N   LIG     1      15.537  34.180  20.111  1.00  0.00    -0.343 N 
HETATM   12  C   LIG     1      15.392  34.051  21.564  1.00  0.00     0.154 C 
HETATM   13  C   LIG     1      15.933  35.464  19.522  1.00  0.00     0.154 C 
HETATM   14  H   LIG     1      16.155  33.785  17.475  1.00  0.00     0.170 HD
ENDBRANCH   1   8
TORSDOF 1
ENDMDL
MODEL 9
REMARK VINA RESULT:      -5.1      1.263      1.544
REMARK  1 active torsions:
REMARK  status: ('A' for Active; 'I' for Inactive)
REMARK       I    between atoms: C_2  and  N_6 
REMARK       I    between atoms: C_2  and  N_3 
REMARK    1  A    between atoms: N_6  and  C_7 
ROOT
HETATM    1  C   LIG     1      15.917  35.649  20.310  1.00  0.00     0.036 A 
HETATM    2  C   LIG     1      15.100  36.070  21.374  1.00  0.00     0.031 A 
HETATM    3  C   LIG     1      15.639  36.822  22.424  1.00  0.00     0.026 A 
HETATM    4  C   LIG     1      16.999  37.150  22.426  1.00  0.00     0.034 A 
HETATM    5 CL   LIG     1      17.672  38.091  23.744  1.00  0.00    -0.084 Cl
HETATM    6  C   LIG     1      17.821  36.717  21.382  1.00  0.00     0.026 A 
HETATM    7  C   LIG     1      17.286  35.964  20.333  1.00  0.00     0.031 A 
ENDROOT
BRANCH   1   8
HETATM    8  N   LIG     1      15.393  34.854  19.231  1.00  0.00    -0.309 N 
HETATM    9  C   LIG     1      15.085  33.453  19.349  1.00  0.00     0.322 C 
HETATM   10  O   LIG     1      14.922  32.946  20.492  1.00  0.00    -0.247 OA
HETATM   11  N   LIG     1      14.928  32.628  18.175  1.00  0.00    -0.343 N 
HETATM   12  C   LIG     1      14.526  31.227  18.334  1.00  0.00     0.154 C 
HETATM   13  C   LIG     1      15.205  33.167  16.840  1.00  0.00     0.154 C 
HETATM   14  H   LIG     1      15.132  35.351  18.350  1.00  0.00     0.170 HD
ENDBRANCH   1   8
TORSDOF 1
ENDMDL
MODEL 10
REMARK VINA RESULT:      -5.1      7.202      8.992
REMARK  1 active torsions:
REMARK  status: ('A' for Active; 'I' for Inactive)
REMARK       I    between atoms: C_2  and  N_6 
REMARK       I    between atoms: C_2  and  N_3 
REMARK    1  A    between atoms: N_6  and  C_7 
ROOT
HETATM    1  C   LIG     1      13.626  29.887  14.595  1.00  0.00     0.036 A 
HETATM    2  C   LIG     1      14.729  30.181  13.773  1.00  0.00     0.031 A 
HETATM    3  C   LIG     1      15.653  31.159  14.156  1.00  0.00     0.026 A 
HETATM    4  C   LIG     1      15.479  31.859  15.355  1.00  0.00     0.034 A 
HETATM    5 CL   LIG     1      16.638  33.085  15.831  1.00  0.00    -0.084 Cl
HETATM    6  C   LIG     1      14.373  31.586  16.166  1.00  0.00     0.026 A 
HETATM    7  C   LIG     1      13.447  30.610  15.785  1.00  0.00     0.031 A 
ENDROOT
BRANCH   1   8
HETATM    8  N   LIG     1      12.647  28.903  14.213  1.00  0.00    -0.309 N 
HETATM    9  C   LIG     1      12.971  27.678  13.531  1.00  0.00     0.322 C 
HETATM   10  O   LIG     1      14.156  27.246  13.556  1.00  0.00    -0.247 OA
HETATM   11  N   LIG     1      11.952  26.920  12.845  1.00  0.00    -0.343 N 
HETATM   12  C   LIG     1      12.304  25.632  12.239  1.00  0.00     0.154 C 
HETATM   13  C   LIG     1      10.589  27.445  12.716  1.00  0.00     0.154 C 
HETATM   14  H   LIG     1      11.666  29.048  14.541  1.00  0.00     0.170 HD
ENDBRANCH   1   8
TORSDOF 1
ENDMDL
MODEL 11
REMARK VINA RESULT:      -5.1      4.034      6.748
REMARK  1 active torsions:
REMARK  status: ('A' for Active; 'I' for Inactive)
REMARK       I    between atoms: C_2  and  N_6 
REMARK       I    between atoms: C_2  and  N_3 
REMARK    1  A    between atoms: N_6  and  C_7 
ROOT
HETATM    1  C   LIG     1      14.696  32.281  17.318  1.00  0.00     0.036 A 
HETATM    2  C   LIG     1      13.753  31.319  16.913  1.00  0.00     0.031 A 
HETATM    3  C   LIG     1      13.884  30.678  15.676  1.00  0.00     0.026 A 
HETATM    4  C   LIG     1      14.949  31.001  14.829  1.00  0.00     0.034 A 
HETATM    5 CL   LIG     1      15.111  30.198  13.278  1.00  0.00    -0.084 Cl
HETATM    6  C   LIG     1      15.878  31.971  15.216  1.00  0.00     0.026 A 
HETATM    7  C   LIG     1      15.749  32.614  16.450  1.00  0.00     0.031 A 
ENDROOT
BRANCH   1   8
HETATM    8  N   LIG     1      14.570  32.972  18.574  1.00  0.00    -0.309 N 
HETATM    9  C   LIG     1      15.323  34.150  18.916  1.00  0.00     0.322 C 
HETATM   10  O   LIG     1      15.859  34.833  18.001  1.00  0.00    -0.247 OA
HETATM   11  N   LIG     1      15.445  34.579  20.289  1.00  0.00    -0.343 N 
HETATM   12  C   LIG     1      16.144  35.833  20.587  1.00  0.00     0.154 C 
HETATM   13  C   LIG     1      14.916  33.754  21.379  1.00  0.00     0.154 C 
HETATM   14  H   LIG     1      13.818  32.653  19.225  1.00  0.00     0.170 HD
ENDBRANCH   1   8
TORSDOF 1
ENDMDL
MODEL 12
REMARK VINA RESULT:      -4.8      6.677      8.387
REMARK  1 active torsions:
REMARK  status: ('A' for Active; 'I' for Inactive)
REMARK       I    between atoms: C_2  and  N_6 
REMARK       I    between atoms: C_2  and  N_3 
REMARK    1  A    between atoms: N_6  and  C_7 
ROOT
HETATM    1  C   LIG     1      17.921  33.634  13.512  1.00  0.00     0.036 A 
HETATM    2  C   LIG     1      19.300  33.375  13.415  1.00  0.00     0.031 A 
HETATM    3  C   LIG     1      20.039  33.884  12.341  1.00  0.00     0.026 A 
HETATM    4  C   LIG     1      19.408  34.644  11.352  1.00  0.00     0.034 A 
HETATM    5 CL   LIG     1      20.336  35.278  10.006  1.00  0.00    -0.084 Cl
HETATM    6  C   LIG     1      18.033  34.887  11.432  1.00  0.00     0.026 A 
HETATM    7  C   LIG     1      17.292  34.379  12.502  1.00  0.00     0.031 A 
ENDROOT
BRANCH   1   8
HETATM    8  N   LIG     1      17.133  33.102  14.593  1.00  0.00    -0.309 N 
HETATM    9  C   LIG     1      16.213  32.005  14.445  1.00  0.00     0.322 C 
HETATM   10  O   LIG     1      16.319  31.233  13.453  1.00  0.00    -0.247 OA
HETATM   11  N   LIG     1      15.190  31.758  15.433  1.00  0.00    -0.343 N 
HETATM   12  C   LIG     1      14.330  30.578  15.292  1.00  0.00     0.154 C 
HETATM   13  C   LIG     1      14.980  32.693  16.542  1.00  0.00     0.154 C 
HETATM   14  H   LIG     1      17.319  33.472  15.552  1.00  0.00     0.170 HD
ENDBRANCH   1   8
TORSDOF 1
ENDMDL
MODEL 13
REMARK VINA RESULT:      -4.8      3.951      6.051
REMARK  1 active torsions:
REMARK  status: ('A' for Active; 'I' for Inactive)
REMARK       I    between atoms: C_2  and  N_6 
REMARK       I    between atoms: C_2  and  N_3 
REMARK    1  A    between atoms: N_6  and  C_7 
ROOT
HETATM    1  C   LIG     1      16.710  36.427  21.983  1.00  0.00     0.036 A 
HETATM    2  C   LIG     1      17.521  36.355  20.836  1.00  0.00     0.031 A 
HETATM    3  C   LIG     1      17.036  35.765  19.663  1.00  0.00     0.026 A 
HETATM    4  C   LIG     1      15.743  35.234  19.629  1.00  0.00     0.034 A 
HETATM    5 CL   LIG     1      15.137  34.494  18.159  1.00  0.00    -0.084 Cl
HETATM    6  C   LIG     1      14.939  35.283  20.772  1.00  0.00     0.026 A 
HETATM    7  C   LIG     1      15.422  35.870  21.945  1.00  0.00     0.031 A 
ENDROOT
BRANCH   1   8
HETATM    8  N   LIG     1      17.194  37.005  23.209  1.00  0.00    -0.309 N 
HETATM    9  C   LIG     1      17.409  36.252  24.416  1.00  0.00     0.322 C 
HETATM   10  O   LIG     1      17.524  34.997  24.355  1.00  0.00    -0.247 OA
HETATM   11  N   LIG     1      17.526  36.916  25.692  1.00  0.00    -0.343 N 
HETATM   12  C   LIG     1      17.834  36.123  26.886  1.00  0.00     0.154 C 
HETATM   13  C   LIG     1      17.301  38.361  25.807  1.00  0.00     0.154 C 
HETATM   14  H   LIG     1      17.499  38.004  23.182  1.00  0.00     0.170 HD
ENDBRANCH   1   8
TORSDOF 1
ENDMDL
MODEL 14
REMARK VINA RESULT:      -4.7      3.424      5.840
REMARK  1 active torsions:
REMARK  status: ('A' for Active; 'I' for Inactive)
REMARK       I    between atoms: C_2  and  N_6 
REMARK       I    between atoms: C_2  and  N_3 
REMARK    1  A    between atoms: N_6  and  C_7 
ROOT
HETATM    1  C   LIG     1      15.327  34.127  19.290  1.00  0.00     0.036 A 
HETATM    2  C   LIG     1      15.176  32.784  19.679  1.00  0.00     0.031 A 
HETATM    3  C   LIG     1      14.849  31.807  18.732  1.00  0.00     0.026 A 
HETATM    4  C   LIG     1      14.659  32.164  17.393  1.00  0.00     0.034 A 
HETATM    5 CL   LIG     1      14.248  30.938  16.208  1.00  0.00    -0.084 Cl
HETATM    6  C   LIG     1      14.787  33.501  17.004  1.00  0.00     0.026 A 
HETATM    7  C   LIG     1      15.112  34.479  17.948  1.00  0.00     0.031 A 
ENDROOT
BRANCH   1   8
HETATM    8  N   LIG     1      15.638  35.155  20.249  1.00  0.00    -0.309 N 
HETATM    9  C   LIG     1      16.784  36.019  20.149  1.00  0.00     0.322 C 
HETATM   10  O   LIG     1      17.367  36.154  19.038  1.00  0.00    -0.247 OA
HETATM   11  N   LIG     1      17.256  36.759  21.295  1.00  0.00    -0.343 N 
HETATM   12  C   LIG     1      18.372  37.697  21.131  1.00  0.00     0.154 C 
HETATM   13  C   LIG     1      16.660  36.548  22.618  1.00  0.00     0.154 C 
HETATM   14  H   LIG     1      14.934  35.342  20.998  1.00  0.00     0.170 HD
ENDBRANCH   1   8
TORSDOF 1
ENDMDL
MODEL 15
REMARK VINA RESULT:      -4.6      5.581      7.252
REMARK  1 active torsions:
REMARK  status: ('A' for Active; 'I' for Inactive)
REMARK       I    between atoms: C_2  and  N_6 
REMARK       I    between atoms: C_2  and  N_3 
REMARK    1  A    between atoms: N_6  and  C_7 
ROOT
HETATM    1  C   LIG     1      15.063  31.090  15.224  1.00  0.00     0.036 A 
HETATM    2  C   LIG     1      15.952  32.154  14.989  1.00  0.00     0.031 A 
HETATM    3  C   LIG     1      15.981  33.255  15.852  1.00  0.00     0.026 A 
HETATM    4  C   LIG     1      15.114  33.309  16.948  1.00  0.00     0.034 A 
HETATM    5 CL   LIG     1      15.150  34.691  18.027  1.00  0.00    -0.084 Cl
HETATM    6  C   LIG     1      14.213  32.265  17.176  1.00  0.00     0.026 A 
HETATM    7  C   LIG     1      14.181  31.165  16.315  1.00  0.00     0.031 A 
ENDROOT
BRANCH   1   8
HETATM    8  N   LIG     1      14.996  29.958  14.338  1.00  0.00    -0.309 N 
HETATM    9  C   LIG     1      13.830  29.127  14.191  1.00  0.00     0.322 C 
HETATM   10  O   LIG     1      12.705  29.562  14.560  1.00  0.00    -0.247 OA
HETATM   11  N   LIG     1      13.926  27.815  13.597  1.00  0.00    -0.343 N 
HETATM   12  C   LIG     1      12.703  27.035  13.384  1.00  0.00     0.154 C 
HETATM   13  C   LIG     1      15.232  27.245  13.249  1.00  0.00     0.154 C 
HETATM   14  H   LIG     1      15.806  29.800  13.698  1.00  0.00     0.170 HD
ENDBRANCH   1   8
TORSDOF 1
ENDMDL
MODEL 16
REMARK VINA RESULT:      -4.5      6.537      9.623
REMARK  1 active torsions:
REMARK  status: ('A' for Active; 'I' for Inactive)
REMARK       I    between atoms: C_2  and  N_6 
REMARK       I    between atoms: C_2  and  N_3 
REMARK    1  A    between atoms: N_6  and  C_7 
ROOT
HETATM    1  C   LIG     1      14.659  29.680  14.444  1.00  0.00     0.036 A 
HETATM    2  C   LIG     1      13.254  29.737  14.486  1.00  0.00     0.031 A 
HETATM    3  C   LIG     1      12.490  28.664  14.013  1.00  0.00     0.026 A 
HETATM    4  C   LIG     1      13.120  27.533  13.485  1.00  0.00     0.034 A 
HETATM    5 CL   LIG     1      12.160  26.191  12.892  1.00  0.00    -0.084 Cl
HETATM    6  C   LIG     1      14.516  27.479  13.421  1.00  0.00     0.026 A 
HETATM    7  C   LIG     1      15.282  28.550  13.891  1.00  0.00     0.031 A 
ENDROOT
BRANCH   1   8
HETATM    8  N   LIG     1      15.468  30.780  14.900  1.00  0.00    -0.309 N 
HETATM    9  C   LIG     1      14.996  31.798  15.802  1.00  0.00     0.322 C 
HETATM   10  O   LIG     1      13.975  31.578  16.509  1.00  0.00    -0.247 OA
HETATM   11  N   LIG     1      15.694  33.055  15.930  1.00  0.00    -0.343 N 
HETATM   12  C   LIG     1      15.233  34.030  16.924  1.00  0.00     0.154 C 
HETATM   13  C   LIG     1      16.824  33.376  15.053  1.00  0.00     0.154 C 
HETATM   14  H   LIG     1      16.479  30.775  14.638  1.00  0.00     0.170 HD
ENDBRANCH   1   8
TORSDOF 1
ENDMDL
MODEL 17
REMARK VINA RESULT:      -4.4      1.999      3.125
REMARK  1 active torsions:
REMARK  status: ('A' for Active; 'I' for Inactive)
REMARK       I    between atoms: C_2  and  N_6 
REMARK       I    between atoms: C_2  and  N_3 
REMARK    1  A    between atoms: N_6  and  C_7 
ROOT
HETATM    1  C   LIG     1      15.091  33.432  19.293  1.00  0.00     0.036 A 
HETATM    2  C   LIG     1      15.648  34.623  18.794  1.00  0.00     0.031 A 
HETATM    3  C   LIG     1      16.130  35.600  19.673  1.00  0.00     0.026 A 
HETATM    4  C   LIG     1      16.049  35.401  21.055  1.00  0.00     0.034 A 
HETATM    5 CL   LIG     1      16.652  36.628  22.154  1.00  0.00    -0.084 Cl
HETATM    6  C   LIG     1      15.477  34.229  21.558  1.00  0.00     0.026 A 
HETATM    7  C   LIG     1      14.994  33.252  20.682  1.00  0.00     0.031 A 
ENDROOT
BRANCH   1   8
HETATM    8  N   LIG     1      14.566  32.423  18.412  1.00  0.00    -0.309 N 
HETATM    9  C   LIG     1      15.080  32.169  17.092  1.00  0.00     0.322 C 
HETATM   10  O   LIG     1      16.236  32.573  16.786  1.00  0.00    -0.247 OA
HETATM   11  N   LIG     1      14.304  31.432  16.123  1.00  0.00    -0.343 N 
HETATM   12  C   LIG     1      14.899  31.118  14.820  1.00  0.00     0.154 C 
HETATM   13  C   LIG     1      12.923  31.037  16.416  1.00  0.00     0.154 C 
HETATM   14  H   LIG     1      13.840  31.778  18.797  1.00  0.00     0.170 HD
ENDBRANCH   1   8
TORSDOF 1
ENDMDL
MODEL 18
REMARK VINA RESULT:      -4.3      3.633      5.897
REMARK  1 active torsions:
REMARK  status: ('A' for Active; 'I' for Inactive)
REMARK       I    between atoms: C_2  and  N_6 
REMARK       I    between atoms: C_2  and  N_3 
REMARK    1  A    between atoms: N_6  and  C_7 
ROOT
HETATM    1  C   LIG     1      16.128  35.488  20.903  1.00  0.00     0.036 A 
HETATM    2  C   LIG     1      15.568  34.395  21.588  1.00  0.00     0.031 A 
HETATM    3  C   LIG     1      15.086  33.289  20.879  1.00  0.00     0.026 A 
HETATM    4  C   LIG     1      15.149  33.270  19.482  1.00  0.00     0.034 A 
HETATM    5 CL   LIG     1      14.542  31.884  18.596  1.00  0.00    -0.084 Cl
HETATM    6  C   LIG     1      15.685  34.362  18.794  1.00  0.00     0.026 A 
HETATM    7  C   LIG     1      16.165  35.469  19.499  1.00  0.00     0.031 A 
ENDROOT
BRANCH   1   8
HETATM    8  N   LIG     1      16.608  36.648  21.607  1.00  0.00    -0.309 N 
HETATM    9  C   LIG     1      16.949  36.649  23.005  1.00  0.00     0.322 C 
HETATM   10  O   LIG     1      17.184  35.556  23.589  1.00  0.00    -0.247 OA
HETATM   11  N   LIG     1      17.058  37.887  23.740  1.00  0.00    -0.343 N 
HETATM   12  C   LIG     1      17.495  37.852  25.139  1.00  0.00     0.154 C 
HETATM   13  C   LIG     1      16.698  39.163  23.114  1.00  0.00     0.154 C 
HETATM   14  H   LIG     1      16.811  37.503  21.042  1.00  0.00     0.170 HD
ENDBRANCH   1   8
TORSDOF 1
ENDMDL
MODEL 19
REMARK VINA RESULT:      -4.2      4.457      6.580
REMARK  1 active torsions:
REMARK  status: ('A' for Active; 'I' for Inactive)
REMARK       I    between atoms: C_2  and  N_6 
REMARK       I    between atoms: C_2  and  N_3 
REMARK    1  A    between atoms: N_6  and  C_7 
ROOT
HETATM    1  C   LIG     1      16.122  32.808  15.819  1.00  0.00     0.036 A 
HETATM    2  C   LIG     1      15.849  32.060  14.659  1.00  0.00     0.031 A 
HETATM    3  C   LIG     1      16.482  32.373  13.451  1.00  0.00     0.026 A 
HETATM    4  C   LIG     1      17.383  33.441  13.388  1.00  0.00     0.034 A 
HETATM    5 CL   LIG     1      18.174  33.833  11.873  1.00  0.00    -0.084 Cl
HETATM    6  C   LIG     1      17.643  34.202  14.531  1.00  0.00     0.026 A 
HETATM    7  C   LIG     1      17.011  33.892  15.739  1.00  0.00     0.031 A 
ENDROOT
BRANCH   1   8
HETATM    8  N   LIG     1      15.466  32.523  17.067  1.00  0.00    -0.309 N 
HETATM    9  C   LIG     1      15.484  33.411  18.200  1.00  0.00     0.322 C 
HETATM   10  O   LIG     1      15.770  34.627  18.032  1.00  0.00    -0.247 OA
HETATM   11  N   LIG     1      15.148  32.934  19.520  1.00  0.00    -0.343 N 
HETATM   12  C   LIG     1      15.091  33.888  20.632  1.00  0.00     0.154 C 
HETATM   13  C   LIG     1      14.907  31.508  19.762  1.00  0.00     0.154 C 
HETATM   14  H   LIG     1      14.864  31.670  17.110  1.00  0.00     0.170 HD
ENDBRANCH   1   8
TORSDOF 1
ENDMDL
MODEL 20
REMARK VINA RESULT:      -3.9     18.717     19.710
REMARK  1 active torsions:
REMARK  status: ('A' for Active; 'I' for Inactive)
REMARK       I    between atoms: C_2  and  N_6 
REMARK       I    between atoms: C_2  and  N_3 
REMARK    1  A    between atoms: N_6  and  C_7 
ROOT
HETATM    1  C   LIG     1      27.472  28.377  34.238  1.00  0.00     0.036 A 
HETATM    2  C   LIG     1      26.465  27.491  33.815  1.00  0.00     0.031 A 
HETATM    3  C   LIG     1      26.406  27.073  32.481  1.00  0.00     0.026 A 
HETATM    4  C   LIG     1      27.344  27.545  31.556  1.00  0.00     0.034 A 
HETATM    5 CL   LIG     1      27.268  27.022  29.884  1.00  0.00    -0.084 Cl
HETATM    6  C   LIG     1      28.335  28.443  31.966  1.00  0.00     0.026 A 
HETATM    7  C   LIG     1      28.394  28.863  33.298  1.00  0.00     0.031 A 
ENDROOT
BRANCH   1   8
HETATM    8  N   LIG     1      27.539  28.841  35.599  1.00  0.00    -0.309 N 
HETATM    9  C   LIG     1      26.837  30.001  36.082  1.00  0.00     0.322 C 
HETATM   10  O   LIG     1      25.856  30.451  35.430  1.00  0.00    -0.247 OA
HETATM   11  N   LIG     1      27.220  30.636  37.320  1.00  0.00    -0.343 N 
HETATM   12  C   LIG     1      26.424  31.760  37.824  1.00  0.00     0.154 C 
HETATM   13  C   LIG     1      28.414  30.196  38.048  1.00  0.00     0.154 C 
HETATM   14  H   LIG     1      28.046  28.241  36.287  1.00  0.00     0.170 HD
ENDBRANCH   1   8
TORSDOF 1
ENDMDL
