REMARK  1 active torsions:
REMARK  status: ('A' for Active; 'I' for Inactive)
REMARK       I    between atoms: C_2  and  N_6 
REMARK       I    between atoms: C_2  and  N_3 
REMARK    1  A    between atoms: N_6  and  C_7 
ROOT
HETATM    1  C   LIG     1       1.260  -0.279  -0.095  1.00  0.00     0.036 A 
HETATM    2  C   LIG     1       1.680   0.496   1.001  1.00  0.00     0.031 A 
HETATM    3  C   LIG     1       3.041   0.610   1.305  1.00  0.00     0.026 A 
HETATM    4  C   LIG     1       3.992  -0.057   0.526  1.00  0.00     0.034 A 
HETATM    5 CL   LIG     1       5.697   0.086   0.910  1.00  0.00    -0.084 Cl
HETATM    6  C   LIG     1       3.580  -0.846  -0.552  1.00  0.00     0.026 A 
HETATM    7  C   LIG     1       2.221  -0.963  -0.857  1.00  0.00     0.031 A 
ENDROOT
BRANCH   1   8
HETATM    8  N   LIG     1      -0.135  -0.433  -0.414  1.00  0.00    -0.309 N 
HETATM    9  C   LIG     1      -1.120   0.595  -0.204  1.00  0.00     0.322 C 
HETATM   10  O   LIG     1      -0.750   1.793  -0.067  1.00  0.00    -0.247 OA
HETATM   11  N   LIG     1      -2.528   0.278  -0.180  1.00  0.00    -0.343 N 
HETATM   12  C   LIG     1      -3.504   1.365  -0.053  1.00  0.00     0.154 C 
HETATM   13  C   LIG     1      -2.982  -1.115  -0.239  1.00  0.00     0.154 C 
HETATM   14  H   LIG     1      -0.420  -1.303  -0.917  1.00  0.00     0.170 HD
ENDBRANCH   1   8
TORSDOF 1
