REMARK  1 active torsions:
REMARK  status: ('A' for Active; 'I' for Inactive)
REMARK    1  A    between atoms: C_2  and  C_5 
ROOT
HETATM    1  F   LIG     1      -1.275  -1.265  -0.389  1.00  0.00    -0.168 F 
HETATM    2  C   LIG     1      -0.797  -0.052   0.074  1.00  0.00     0.413 C 
HETATM    3  F   LIG     1      -1.482   0.968  -0.563  1.00  0.00    -0.168 F 
HETATM    4  F   LIG     1      -1.023   0.034   1.437  1.00  0.00    -0.168 F 
ENDROOT
BRANCH   2   5
HETATM    5  C   LIG     1       0.697   0.063  -0.224  1.00  0.00     0.261 C 
HETATM    6 CL   LIG     1       1.334   1.629   0.345  1.00  0.00    -0.103 Cl
HETATM    7 BR   LIG     1       1.684  -1.368   0.639  1.00  0.00    -0.065 Br
ENDBRANCH   2   5
TORSDOF 1
