MODEL 1
REMARK VINA RESULT:      -4.9      0.000      0.000
REMARK  1 active torsions:
REMARK  status: ('A' for Active; 'I' for Inactive)
REMARK    1  A    between atoms: C_2  and  C_5 
ROOT
HETATM    1  F   LIG     1      17.291  34.558  24.359  1.00  0.00    -0.168 F 
HETATM    2  C   LIG     1      17.495  34.906  25.682  1.00  0.00     0.413 C 
HETATM    3  F   LIG     1      16.514  34.309  26.455  1.00  0.00    -0.168 F 
HETATM    4  F   LIG     1      18.734  34.442  26.087  1.00  0.00    -0.168 F 
ENDROOT
BRANCH   2   5
HETATM    5  C   LIG     1      17.421  36.424  25.835  1.00  0.00     0.261 C 
HETATM    6 CL   LIG     1      18.936  37.062  26.528  1.00  0.00    -0.103 Cl
HETATM    7 BR   LIG     1      17.107  37.275  24.119  1.00  0.00    -0.065 Br
ENDBRANCH   2   5
TORSDOF 1
ENDMDL
MODEL 2
REMARK VINA RESULT:      -4.9      3.137      3.457
REMARK  1 active torsions:
REMARK  status: ('A' for Active; 'I' for Inactive)
REMARK    1  A    between atoms: C_2  and  C_5 
ROOT
HETATM    1  F   LIG     1      17.930  38.074  23.760  1.00  0.00    -0.168 F 
HETATM    2  C   LIG     1      17.848  37.563  25.043  1.00  0.00     0.413 C 
HETATM    3  F   LIG     1      19.129  37.414  25.545  1.00  0.00    -0.168 F 
HETATM    4  F   LIG     1      17.150  38.453  25.842  1.00  0.00    -0.168 F 
ENDROOT
BRANCH   2   5
HETATM    5  C   LIG     1      17.142  36.209  25.016  1.00  0.00     0.261 C 
HETATM    6 CL   LIG     1      17.136  35.534  23.365  1.00  0.00    -0.103 Cl
HETATM    7 BR   LIG     1      18.018  34.951  26.207  1.00  0.00    -0.065 Br
ENDBRANCH   2   5
TORSDOF 1
ENDMDL
MODEL 3
REMARK VINA RESULT:      -4.8      3.145      3.490
REMARK  1 active torsions:
REMARK  status: ('A' for Active; 'I' for Inactive)
REMARK    1  A    between atoms: C_2  and  C_5 
ROOT
HETATM    1  F   LIG     1      19.114  37.403  25.738  1.00  0.00    -0.168 F 
HETATM    2  C   LIG     1      17.913  37.604  25.081  1.00  0.00     0.413 C 
HETATM    3  F   LIG     1      17.169  38.532  25.789  1.00  0.00    -0.168 F 
HETATM    4  F   LIG     1      18.167  38.100  23.814  1.00  0.00    -0.168 F 
ENDROOT
BRANCH   2   5
HETATM    5  C   LIG     1      17.146  36.286  24.991  1.00  0.00     0.261 C 
HETATM    6 CL   LIG     1      17.124  35.684  23.312  1.00  0.00    -0.103 Cl
HETATM    7 BR   LIG     1      17.954  34.939  26.131  1.00  0.00    -0.065 Br
ENDBRANCH   2   5
TORSDOF 1
ENDMDL
MODEL 4
REMARK VINA RESULT:      -4.6      6.309      6.738
REMARK  1 active torsions:
REMARK  status: ('A' for Active; 'I' for Inactive)
REMARK    1  A    between atoms: C_2  and  C_5 
ROOT
HETATM    1  F   LIG     1      18.291  36.720  18.395  1.00  0.00    -0.168 F 
HETATM    2  C   LIG     1      19.079  36.958  19.506  1.00  0.00     0.413 C 
HETATM    3  F   LIG     1      18.358  36.631  20.641  1.00  0.00    -0.168 F 
HETATM    4  F   LIG     1      20.208  36.159  19.442  1.00  0.00    -0.168 F 
ENDROOT
BRANCH   2   5
HETATM    5  C   LIG     1      19.475  38.433  19.553  1.00  0.00     0.261 C 
HETATM    6 CL   LIG     1      18.935  39.277  18.077  1.00  0.00    -0.103 Cl
HETATM    7 BR   LIG     1      18.694  39.308  21.099  1.00  0.00    -0.065 Br
ENDBRANCH   2   5
TORSDOF 1
ENDMDL
MODEL 5
REMARK VINA RESULT:      -4.4      3.228      3.442
REMARK  1 active torsions:
REMARK  status: ('A' for Active; 'I' for Inactive)
REMARK    1  A    between atoms: C_2  and  C_5 
ROOT
HETATM    1  F   LIG     1      18.796  38.324  24.469  1.00  0.00    -0.168 F 
HETATM    2  C   LIG     1      17.671  37.637  24.891  1.00  0.00     0.413 C 
HETATM    3  F   LIG     1      18.045  36.358  25.264  1.00  0.00    -0.168 F 
HETATM    4  F   LIG     1      17.127  38.287  25.985  1.00  0.00    -0.168 F 
ENDROOT
BRANCH   2   5
HETATM    5  C   LIG     1      16.652  37.567  23.755  1.00  0.00     0.261 C 
HETATM    6 CL   LIG     1      16.820  38.973  22.670  1.00  0.00    -0.103 Cl
HETATM    7 BR   LIG     1      16.886  35.943  22.718  1.00  0.00    -0.065 Br
ENDBRANCH   2   5
TORSDOF 1
ENDMDL
MODEL 6
REMARK VINA RESULT:      -4.3      4.080      4.486
REMARK  1 active torsions:
REMARK  status: ('A' for Active; 'I' for Inactive)
REMARK    1  A    between atoms: C_2  and  C_5 
ROOT
HETATM    1  F   LIG     1      18.535  38.715  22.977  1.00  0.00    -0.168 F 
HETATM    2  C   LIG     1      17.356  38.162  22.508  1.00  0.00     0.413 C 
HETATM    3  F   LIG     1      16.474  39.185  22.209  1.00  0.00    -0.168 F 
HETATM    4  F   LIG     1      17.620  37.441  21.356  1.00  0.00    -0.168 F 
ENDROOT
BRANCH   2   5
HETATM    5  C   LIG     1      16.751  37.252  23.576  1.00  0.00     0.261 C 
HETATM    6 CL   LIG     1      17.049  35.537  23.185  1.00  0.00    -0.103 Cl
HETATM    7 BR   LIG     1      17.507  37.639  25.321  1.00  0.00    -0.065 Br
ENDBRANCH   2   5
TORSDOF 1
ENDMDL
MODEL 7
REMARK VINA RESULT:      -4.2      2.803      3.102
REMARK  1 active torsions:
REMARK  status: ('A' for Active; 'I' for Inactive)
REMARK    1  A    between atoms: C_2  and  C_5 
ROOT
HETATM    1  F   LIG     1      16.805  38.183  25.515  1.00  0.00    -0.168 F 
HETATM    2  C   LIG     1      17.576  37.112  25.101  1.00  0.00     0.413 C 
HETATM    3  F   LIG     1      18.909  37.409  25.327  1.00  0.00    -0.168 F 
HETATM    4  F   LIG     1      17.231  35.993  25.841  1.00  0.00    -0.168 F 
ENDROOT
BRANCH   2   5
HETATM    5  C   LIG     1      17.348  36.854  23.613  1.00  0.00     0.261 C 
HETATM    6 CL   LIG     1      17.057  35.121  23.311  1.00  0.00    -0.103 Cl
HETATM    7 BR   LIG     1      15.827  37.870  22.963  1.00  0.00    -0.065 Br
ENDBRANCH   2   5
TORSDOF 1
ENDMDL
MODEL 8
REMARK VINA RESULT:      -4.2      3.426      3.610
REMARK  1 active torsions:
REMARK  status: ('A' for Active; 'I' for Inactive)
REMARK    1  A    between atoms: C_2  and  C_5 
ROOT
HETATM    1  F   LIG     1      17.152  36.643  25.405  1.00  0.00    -0.168 F 
HETATM    2  C   LIG     1      17.608  37.754  24.719  1.00  0.00     0.413 C 
HETATM    3  F   LIG     1      16.991  38.880  25.236  1.00  0.00    -0.168 F 
HETATM    4  F   LIG     1      18.976  37.866  24.897  1.00  0.00    -0.168 F 
ENDROOT
BRANCH   2   5
HETATM    5  C   LIG     1      17.276  37.617  23.234  1.00  0.00     0.261 C 
HETATM    6 CL   LIG     1      15.522  37.798  22.962  1.00  0.00    -0.103 Cl
HETATM    7 BR   LIG     1      18.215  38.958  22.191  1.00  0.00    -0.065 Br
ENDBRANCH   2   5
TORSDOF 1
ENDMDL
MODEL 9
REMARK VINA RESULT:      -4.2      4.573      5.061
REMARK  1 active torsions:
REMARK  status: ('A' for Active; 'I' for Inactive)
REMARK    1  A    between atoms: C_2  and  C_5 
ROOT
HETATM    1  F   LIG     1      18.718  38.733  21.788  1.00  0.00    -0.168 F 
HETATM    2  C   LIG     1      17.544  38.167  22.253  1.00  0.00     0.413 C 
HETATM    3  F   LIG     1      17.737  37.752  23.559  1.00  0.00    -0.168 F 
HETATM    4  F   LIG     1      16.539  39.118  22.224  1.00  0.00    -0.168 F 
ENDROOT
BRANCH   2   5
HETATM    5  C   LIG     1      17.166  36.970  21.381  1.00  0.00     0.261 C 
HETATM    6 CL   LIG     1      18.431  36.653  20.164  1.00  0.00    -0.103 Cl
HETATM    7 BR   LIG     1      16.921  35.378  22.463  1.00  0.00    -0.065 Br
ENDBRANCH   2   5
TORSDOF 1
ENDMDL
MODEL 10
REMARK VINA RESULT:      -4.2      3.781      4.573
REMARK  1 active torsions:
REMARK  status: ('A' for Active; 'I' for Inactive)
REMARK    1  A    between atoms: C_2  and  C_5 
ROOT
HETATM    1  F   LIG     1      17.476  34.897  22.026  1.00  0.00    -0.168 F 
HETATM    2  C   LIG     1      17.229  35.984  21.206  1.00  0.00     0.413 C 
HETATM    3  F   LIG     1      18.370  36.254  20.470  1.00  0.00    -0.168 F 
HETATM    4  F   LIG     1      16.196  35.672  20.339  1.00  0.00    -0.168 F 
ENDROOT
BRANCH   2   5
HETATM    5  C   LIG     1      16.860  37.199  22.055  1.00  0.00     0.261 C 
HETATM    6 CL   LIG     1      17.041  36.833  23.791  1.00  0.00    -0.103 Cl
HETATM    7 BR   LIG     1      17.986  38.717  21.612  1.00  0.00    -0.065 Br
ENDBRANCH   2   5
TORSDOF 1
ENDMDL
MODEL 11
REMARK VINA RESULT:      -4.2     12.207     12.625
REMARK  1 active torsions:
REMARK  status: ('A' for Active; 'I' for Inactive)
REMARK    1  A    between atoms: C_2  and  C_5 
ROOT
HETATM    1  F   LIG     1      15.031  43.672  34.981  1.00  0.00    -0.168 F 
HETATM    2  C   LIG     1      16.393  43.906  34.918  1.00  0.00     0.413 C 
HETATM    3  F   LIG     1      16.906  43.890  36.203  1.00  0.00    -0.168 F 
HETATM    4  F   LIG     1      16.992  42.899  34.180  1.00  0.00    -0.168 F 
ENDROOT
BRANCH   2   5
HETATM    5  C   LIG     1      16.656  45.265  34.273  1.00  0.00     0.261 C 
HETATM    6 CL   LIG     1      18.151  45.223  33.301  1.00  0.00    -0.103 Cl
HETATM    7 BR   LIG     1      15.177  45.781  33.127  1.00  0.00    -0.065 Br
ENDBRANCH   2   5
TORSDOF 1
ENDMDL
MODEL 12
REMARK VINA RESULT:      -4.1      4.289      4.739
REMARK  1 active torsions:
REMARK  status: ('A' for Active; 'I' for Inactive)
REMARK    1  A    between atoms: C_2  and  C_5 
ROOT
HETATM    1  F   LIG     1      15.053  37.038  22.237  1.00  0.00    -0.168 F 
HETATM    2  C   LIG     1      16.013  37.869  22.787  1.00  0.00     0.413 C 
HETATM    3  F   LIG     1      15.713  39.178  22.453  1.00  0.00    -0.168 F 
HETATM    4  F   LIG     1      15.990  37.737  24.165  1.00  0.00    -0.168 F 
ENDROOT
BRANCH   2   5
HETATM    5  C   LIG     1      17.392  37.498  22.242  1.00  0.00     0.261 C 
HETATM    6 CL   LIG     1      17.255  36.239  20.987  1.00  0.00    -0.103 Cl
HETATM    7 BR   LIG     1      18.272  39.051  21.481  1.00  0.00    -0.065 Br
ENDBRANCH   2   5
TORSDOF 1
ENDMDL
MODEL 13
REMARK VINA RESULT:      -4.1      3.201      3.767
REMARK  1 active torsions:
REMARK  status: ('A' for Active; 'I' for Inactive)
REMARK    1  A    between atoms: C_2  and  C_5 
ROOT
HETATM    1  F   LIG     1      15.548  36.764  22.032  1.00  0.00    -0.168 F 
HETATM    2  C   LIG     1      16.890  36.834  22.361  1.00  0.00     0.413 C 
HETATM    3  F   LIG     1      17.164  35.873  23.317  1.00  0.00    -0.168 F 
HETATM    4  F   LIG     1      17.647  36.577  21.231  1.00  0.00    -0.168 F 
ENDROOT
BRANCH   2   5
HETATM    5  C   LIG     1      17.216  38.221  22.913  1.00  0.00     0.261 C 
HETATM    6 CL   LIG     1      17.961  38.097  24.528  1.00  0.00    -0.103 Cl
HETATM    7 BR   LIG     1      18.431  39.165  21.731  1.00  0.00    -0.065 Br
ENDBRANCH   2   5
TORSDOF 1
ENDMDL
MODEL 14
REMARK VINA RESULT:      -4.1      3.524      3.784
REMARK  1 active torsions:
REMARK  status: ('A' for Active; 'I' for Inactive)
REMARK    1  A    between atoms: C_2  and  C_5 
ROOT
HETATM    1  F   LIG     1      17.322  36.004  23.786  1.00  0.00    -0.168 F 
HETATM    2  C   LIG     1      17.142  37.366  23.622  1.00  0.00     0.413 C 
HETATM    3  F   LIG     1      15.982  37.742  24.276  1.00  0.00    -0.168 F 
HETATM    4  F   LIG     1      18.215  38.036  24.183  1.00  0.00    -0.168 F 
ENDROOT
BRANCH   2   5
HETATM    5  C   LIG     1      17.029  37.697  22.135  1.00  0.00     0.261 C 
HETATM    6 CL   LIG     1      18.253  38.907  21.664  1.00  0.00    -0.103 Cl
HETATM    7 BR   LIG     1      17.271  36.104  21.053  1.00  0.00    -0.065 Br
ENDBRANCH   2   5
TORSDOF 1
ENDMDL
MODEL 15
REMARK VINA RESULT:      -4.1      4.437      4.928
REMARK  1 active torsions:
REMARK  status: ('A' for Active; 'I' for Inactive)
REMARK    1  A    between atoms: C_2  and  C_5 
ROOT
HETATM    1  F   LIG     1      15.685  35.311  19.709  1.00  0.00    -0.168 F 
HETATM    2  C   LIG     1      15.375  35.428  21.053  1.00  0.00     0.413 C 
HETATM    3  F   LIG     1      14.196  36.142  21.176  1.00  0.00    -0.168 F 
HETATM    4  F   LIG     1      15.197  34.164  21.588  1.00  0.00    -0.168 F 
ENDROOT
BRANCH   2   5
HETATM    5  C   LIG     1      16.502  36.158  21.782  1.00  0.00     0.261 C 
HETATM    6 CL   LIG     1      17.118  35.174  23.136  1.00  0.00    -0.103 Cl
HETATM    7 BR   LIG     1      17.968  36.548  20.571  1.00  0.00    -0.065 Br
ENDBRANCH   2   5
TORSDOF 1
ENDMDL
MODEL 16
REMARK VINA RESULT:      -4.0      4.654      5.085
REMARK  1 active torsions:
REMARK  status: ('A' for Active; 'I' for Inactive)
REMARK    1  A    between atoms: C_2  and  C_5 
ROOT
HETATM    1  F   LIG     1      17.143  39.307  21.506  1.00  0.00    -0.168 F 
HETATM    2  C   LIG     1      17.929  38.260  21.952  1.00  0.00     0.413 C 
HETATM    3  F   LIG     1      18.658  37.766  20.884  1.00  0.00    -0.168 F 
HETATM    4  F   LIG     1      18.803  38.728  22.918  1.00  0.00    -0.168 F 
ENDROOT
BRANCH   2   5
HETATM    5  C   LIG     1      17.043  37.157  22.528  1.00  0.00     0.261 C 
HETATM    6 CL   LIG     1      15.392  37.763  22.821  1.00  0.00    -0.103 Cl
HETATM    7 BR   LIG     1      16.952  35.643  21.316  1.00  0.00    -0.065 Br
ENDBRANCH   2   5
TORSDOF 1
ENDMDL
MODEL 17
REMARK VINA RESULT:      -4.0      5.382      5.776
REMARK  1 active torsions:
REMARK  status: ('A' for Active; 'I' for Inactive)
REMARK    1  A    between atoms: C_2  and  C_5 
ROOT
HETATM    1  F   LIG     1      18.312  39.635  20.110  1.00  0.00    -0.168 F 
HETATM    2  C   LIG     1      18.702  38.597  20.937  1.00  0.00     0.413 C 
HETATM    3  F   LIG     1      19.355  37.644  20.175  1.00  0.00    -0.168 F 
HETATM    4  F   LIG     1      19.574  39.084  21.896  1.00  0.00    -0.168 F 
ENDROOT
BRANCH   2   5
HETATM    5  C   LIG     1      17.475  37.977  21.602  1.00  0.00     0.261 C 
HETATM    6 CL   LIG     1      17.390  36.228  21.261  1.00  0.00    -0.103 Cl
HETATM    7 BR   LIG     1      17.525  38.241  23.524  1.00  0.00    -0.065 Br
ENDBRANCH   2   5
TORSDOF 1
ENDMDL
MODEL 18
REMARK VINA RESULT:      -3.9      4.869      5.185
REMARK  1 active torsions:
REMARK  status: ('A' for Active; 'I' for Inactive)
REMARK    1  A    between atoms: C_2  and  C_5 
ROOT
HETATM    1  F   LIG     1      15.994  35.419  19.303  1.00  0.00    -0.168 F 
HETATM    2  C   LIG     1      15.987  35.172  20.664  1.00  0.00     0.413 C 
HETATM    3  F   LIG     1      14.787  35.619  21.190  1.00  0.00    -0.168 F 
HETATM    4  F   LIG     1      16.095  33.809  20.879  1.00  0.00    -0.168 F 
ENDROOT
BRANCH   2   5
HETATM    5  C   LIG     1      17.150  35.907  21.329  1.00  0.00     0.261 C 
HETATM    6 CL   LIG     1      18.243  36.597  20.101  1.00  0.00    -0.103 Cl
HETATM    7 BR   LIG     1      16.499  37.339  22.467  1.00  0.00    -0.065 Br
ENDBRANCH   2   5
TORSDOF 1
ENDMDL
MODEL 19
REMARK VINA RESULT:      -3.9      4.784      5.328
REMARK  1 active torsions:
REMARK  status: ('A' for Active; 'I' for Inactive)
REMARK    1  A    between atoms: C_2  and  C_5 
ROOT
HETATM    1  F   LIG     1      17.416  35.066  21.891  1.00  0.00    -0.168 F 
HETATM    2  C   LIG     1      17.048  36.129  21.085  1.00  0.00     0.413 C 
HETATM    3  F   LIG     1      16.542  35.632  19.897  1.00  0.00    -0.168 F 
HETATM    4  F   LIG     1      16.064  36.864  21.723  1.00  0.00    -0.168 F 
ENDROOT
BRANCH   2   5
HETATM    5  C   LIG     1      18.266  37.008  20.801  1.00  0.00     0.261 C 
HETATM    6 CL   LIG     1      18.603  37.070  19.050  1.00  0.00    -0.103 Cl
HETATM    7 BR   LIG     1      17.978  38.814  21.449  1.00  0.00    -0.065 Br
ENDBRANCH   2   5
TORSDOF 1
ENDMDL
MODEL 20
REMARK VINA RESULT:      -3.8      9.765     10.264
REMARK  1 active torsions:
REMARK  status: ('A' for Active; 'I' for Inactive)
REMARK    1  A    between atoms: C_2  and  C_5 
ROOT
HETATM    1  F   LIG     1      12.319  32.030  16.819  1.00  0.00    -0.168 F 
HETATM    2  C   LIG     1      13.604  31.531  16.702  1.00  0.00     0.413 C 
HETATM    3  F   LIG     1      13.772  30.515  17.627  1.00  0.00    -0.168 F 
HETATM    4  F   LIG     1      13.775  31.015  15.428  1.00  0.00    -0.168 F 
ENDROOT
BRANCH   2   5
HETATM    5  C   LIG     1      14.618  32.643  16.965  1.00  0.00     0.261 C 
HETATM    6 CL   LIG     1      15.326  32.478  18.593  1.00  0.00    -0.103 Cl
HETATM    7 BR   LIG     1      16.046  32.599  15.651  1.00  0.00    -0.065 Br
ENDBRANCH   2   5
TORSDOF 1
ENDMDL
