MODEL 1
REMARK VINA RESULT:      -6.1      0.000      0.000
REMARK  2 active torsions:
REMARK  status: ('A' for Active; 'I' for Inactive)
REMARK    1  A    between atoms: O_1  and  C_2 
REMARK    2  A    between atoms: C_2  and  C_3 
ROOT
HETATM    1  C   LIG     1      17.165  37.032  24.085  1.00  0.00     0.009 A 
HETATM    2  C   LIG     1      17.059  37.657  22.818  1.00  0.00     0.044 A 
HETATM    3 CL   LIG     1      17.094  39.407  22.620  1.00  0.00    -0.084 Cl
HETATM    4  C   LIG     1      16.940  36.878  21.661  1.00  0.00     0.024 A 
HETATM    5  C   LIG     1      16.926  35.486  21.744  1.00  0.00     0.003 A 
HETATM    6  C   LIG     1      17.034  34.859  22.983  1.00  0.00     0.024 A 
HETATM    7  C   LIG     1      17.154  35.618  24.152  1.00  0.00     0.044 A 
HETATM    8 CL   LIG     1      17.282  34.760  25.686  1.00  0.00    -0.084 Cl
ENDROOT
BRANCH   1   9
HETATM    9  C   LIG     1      17.294  37.843  25.357  1.00  0.00     0.206 C 
BRANCH   9  10
HETATM   10  O   LIG     1      18.598  37.754  25.861  1.00  0.00    -0.396 OA
HETATM   11  H   LIG     1      18.657  36.882  26.334  1.00  0.00     0.209 HD
ENDBRANCH   9  10
ENDBRANCH   1   9
TORSDOF 2
ENDMDL
MODEL 2
REMARK VINA RESULT:      -6.1      0.037      2.926
REMARK  2 active torsions:
REMARK  status: ('A' for Active; 'I' for Inactive)
REMARK    1  A    between atoms: O_1  and  C_2 
REMARK    2  A    between atoms: C_2  and  C_3 
ROOT
HETATM    1  C   LIG     1      17.161  37.036  24.103  1.00  0.00     0.009 A 
HETATM    2  C   LIG     1      17.158  35.620  24.172  1.00  0.00     0.044 A 
HETATM    3 CL   LIG     1      17.278  34.746  25.697  1.00  0.00    -0.084 Cl
HETATM    4  C   LIG     1      17.038  34.862  23.002  1.00  0.00     0.024 A 
HETATM    5  C   LIG     1      16.919  35.490  21.761  1.00  0.00     0.003 A 
HETATM    6  C   LIG     1      16.916  36.881  21.681  1.00  0.00     0.024 A 
HETATM    7  C   LIG     1      17.035  37.658  22.838  1.00  0.00     0.044 A 
HETATM    8 CL   LIG     1      17.029  39.411  22.662  1.00  0.00    -0.084 Cl
ENDROOT
BRANCH   1   9
HETATM    9  C   LIG     1      17.291  37.886  25.349  1.00  0.00     0.206 C 
BRANCH   9  10
HETATM   10  O   LIG     1      18.571  37.747  25.901  1.00  0.00    -0.396 OA
HETATM   11  H   LIG     1      19.084  37.167  25.280  1.00  0.00     0.209 HD
ENDBRANCH   9  10
ENDBRANCH   1   9
TORSDOF 2
ENDMDL
MODEL 3
REMARK VINA RESULT:      -6.0      2.275      3.569
REMARK  2 active torsions:
REMARK  status: ('A' for Active; 'I' for Inactive)
REMARK    1  A    between atoms: O_1  and  C_2 
REMARK    2  A    between atoms: C_2  and  C_3 
ROOT
HETATM    1  C   LIG     1      16.987  36.973  24.234  1.00  0.00     0.009 A 
HETATM    2  C   LIG     1      17.089  35.586  23.962  1.00  0.00     0.044 A 
HETATM    3 CL   LIG     1      16.600  34.884  22.422  1.00  0.00    -0.084 Cl
HETATM    4  C   LIG     1      17.613  34.720  24.930  1.00  0.00     0.024 A 
HETATM    5  C   LIG     1      18.038  35.212  26.164  1.00  0.00     0.003 A 
HETATM    6  C   LIG     1      17.947  36.575  26.441  1.00  0.00     0.024 A 
HETATM    7  C   LIG     1      17.427  37.458  25.489  1.00  0.00     0.044 A 
HETATM    8 CL   LIG     1      17.336  39.166  25.908  1.00  0.00    -0.084 Cl
ENDROOT
BRANCH   1   9
HETATM    9  C   LIG     1      16.425  37.938  23.212  1.00  0.00     0.206 C 
BRANCH   9  10
HETATM   10  O   LIG     1      15.060  38.152  23.444  1.00  0.00    -0.396 OA
HETATM   11  H   LIG     1      14.955  38.258  24.426  1.00  0.00     0.209 HD
ENDBRANCH   9  10
ENDBRANCH   1   9
TORSDOF 2
ENDMDL
MODEL 4
REMARK VINA RESULT:      -5.7      3.317      4.796
REMARK  2 active torsions:
REMARK  status: ('A' for Active; 'I' for Inactive)
REMARK    1  A    between atoms: O_1  and  C_2 
REMARK    2  A    between atoms: C_2  and  C_3 
ROOT
HETATM    1  C   LIG     1      17.889  37.173  20.849  1.00  0.00     0.009 A 
HETATM    2  C   LIG     1      16.887  36.393  21.479  1.00  0.00     0.044 A 
HETATM    3 CL   LIG     1      16.611  34.701  21.074  1.00  0.00    -0.084 Cl
HETATM    4  C   LIG     1      16.085  36.957  22.477  1.00  0.00     0.024 A 
HETATM    5  C   LIG     1      16.263  38.286  22.861  1.00  0.00     0.003 A 
HETATM    6  C   LIG     1      17.247  39.063  22.252  1.00  0.00     0.024 A 
HETATM    7  C   LIG     1      18.060  38.519  21.252  1.00  0.00     0.044 A 
HETATM    8 CL   LIG     1      19.281  39.559  20.522  1.00  0.00    -0.084 Cl
ENDROOT
BRANCH   1   9
HETATM    9  C   LIG     1      18.773  36.596  19.765  1.00  0.00     0.206 C 
BRANCH   9  10
HETATM   10  O   LIG     1      18.104  36.606  18.534  1.00  0.00    -0.396 OA
HETATM   11  H   LIG     1      17.468  37.368  18.566  1.00  0.00     0.209 HD
ENDBRANCH   9  10
ENDBRANCH   1   9
TORSDOF 2
ENDMDL
MODEL 5
REMARK VINA RESULT:      -5.6      2.218      2.833
REMARK  2 active torsions:
REMARK  status: ('A' for Active; 'I' for Inactive)
REMARK    1  A    between atoms: O_1  and  C_2 
REMARK    2  A    between atoms: C_2  and  C_3 
ROOT
HETATM    1  C   LIG     1      17.768  37.844  21.975  1.00  0.00     0.009 A 
HETATM    2  C   LIG     1      17.876  37.000  20.842  1.00  0.00     0.044 A 
HETATM    3 CL   LIG     1      18.575  37.545  19.319  1.00  0.00    -0.084 Cl
HETATM    4  C   LIG     1      17.435  35.674  20.912  1.00  0.00     0.024 A 
HETATM    5  C   LIG     1      16.888  35.171  22.093  1.00  0.00     0.003 A 
HETATM    6  C   LIG     1      16.781  35.989  23.216  1.00  0.00     0.024 A 
HETATM    7  C   LIG     1      17.216  37.318  23.168  1.00  0.00     0.044 A 
HETATM    8 CL   LIG     1      17.046  38.297  24.623  1.00  0.00    -0.084 Cl
ENDROOT
BRANCH   1   9
HETATM    9  C   LIG     1      18.234  39.284  21.935  1.00  0.00     0.206 C 
BRANCH   9  10
HETATM   10  O   LIG     1      19.611  39.357  22.182  1.00  0.00    -0.396 OA
HETATM   11  H   LIG     1      19.714  39.487  23.161  1.00  0.00     0.209 HD
ENDBRANCH   9  10
ENDBRANCH   1   9
TORSDOF 2
ENDMDL
MODEL 6
REMARK VINA RESULT:      -5.6      3.320      4.056
REMARK  2 active torsions:
REMARK  status: ('A' for Active; 'I' for Inactive)
REMARK    1  A    between atoms: O_1  and  C_2 
REMARK    2  A    between atoms: C_2  and  C_3 
ROOT
HETATM    1  C   LIG     1      17.892  37.178  20.854  1.00  0.00     0.009 A 
HETATM    2  C   LIG     1      18.056  38.526  21.257  1.00  0.00     0.044 A 
HETATM    3 CL   LIG     1      19.252  39.594  20.528  1.00  0.00    -0.084 Cl
HETATM    4  C   LIG     1      17.237  39.061  22.259  1.00  0.00     0.024 A 
HETATM    5  C   LIG     1      16.256  38.277  22.865  1.00  0.00     0.003 A 
HETATM    6  C   LIG     1      16.082  36.951  22.474  1.00  0.00     0.024 A 
HETATM    7  C   LIG     1      16.889  36.396  21.475  1.00  0.00     0.044 A 
HETATM    8 CL   LIG     1      16.618  34.712  21.033  1.00  0.00    -0.084 Cl
ENDROOT
BRANCH   1   9
HETATM    9  C   LIG     1      18.760  36.566  19.775  1.00  0.00     0.206 C 
BRANCH   9  10
HETATM   10  O   LIG     1      18.107  36.619  18.536  1.00  0.00    -0.396 OA
HETATM   11  H   LIG     1      18.259  35.739  18.101  1.00  0.00     0.209 HD
ENDBRANCH   9  10
ENDBRANCH   1   9
TORSDOF 2
ENDMDL
MODEL 7
REMARK VINA RESULT:      -5.6      2.216      3.398
REMARK  2 active torsions:
REMARK  status: ('A' for Active; 'I' for Inactive)
REMARK    1  A    between atoms: O_1  and  C_2 
REMARK    2  A    between atoms: C_2  and  C_3 
ROOT
HETATM    1  C   LIG     1      17.788  37.844  21.959  1.00  0.00     0.009 A 
HETATM    2  C   LIG     1      17.231  37.317  23.151  1.00  0.00     0.044 A 
HETATM    3 CL   LIG     1      17.034  38.282  24.612  1.00  0.00    -0.084 Cl
HETATM    4  C   LIG     1      16.795  35.988  23.192  1.00  0.00     0.024 A 
HETATM    5  C   LIG     1      16.903  35.173  22.065  1.00  0.00     0.003 A 
HETATM    6  C   LIG     1      17.445  35.680  20.886  1.00  0.00     0.024 A 
HETATM    7  C   LIG     1      17.887  37.006  20.823  1.00  0.00     0.044 A 
HETATM    8 CL   LIG     1      18.566  37.580  19.302  1.00  0.00    -0.084 Cl
ENDROOT
BRANCH   1   9
HETATM    9  C   LIG     1      18.271  39.277  21.880  1.00  0.00     0.206 C 
BRANCH   9  10
HETATM   10  O   LIG     1      19.625  39.354  22.231  1.00  0.00    -0.396 OA
HETATM   11  H   LIG     1      19.925  38.423  22.402  1.00  0.00     0.209 HD
ENDBRANCH   9  10
ENDBRANCH   1   9
TORSDOF 2
ENDMDL
MODEL 8
REMARK VINA RESULT:      -5.5      9.159     10.329
REMARK  2 active torsions:
REMARK  status: ('A' for Active; 'I' for Inactive)
REMARK    1  A    between atoms: O_1  and  C_2 
REMARK    2  A    between atoms: C_2  and  C_3 
ROOT
HETATM    1  C   LIG     1      15.259  31.873  15.394  1.00  0.00     0.009 A 
HETATM    2  C   LIG     1      14.586  32.530  16.454  1.00  0.00     0.044 A 
HETATM    3 CL   LIG     1      15.206  34.000  17.202  1.00  0.00    -0.084 Cl
HETATM    4  C   LIG     1      13.373  32.024  16.933  1.00  0.00     0.024 A 
HETATM    5  C   LIG     1      12.815  30.875  16.374  1.00  0.00     0.003 A 
HETATM    6  C   LIG     1      13.464  30.223  15.327  1.00  0.00     0.024 A 
HETATM    7  C   LIG     1      14.678  30.711  14.833  1.00  0.00     0.044 A 
HETATM    8 CL   LIG     1      15.446  29.834  13.512  1.00  0.00    -0.084 Cl
ENDROOT
BRANCH   1   9
HETATM    9  C   LIG     1      16.574  32.392  14.852  1.00  0.00     0.206 C 
BRANCH   9  10
HETATM   10  O   LIG     1      16.357  33.155  13.697  1.00  0.00    -0.396 OA
HETATM   11  H   LIG     1      17.221  33.177  13.208  1.00  0.00     0.209 HD
ENDBRANCH   9  10
ENDBRANCH   1   9
TORSDOF 2
ENDMDL
MODEL 9
REMARK VINA RESULT:      -5.5      9.154     10.431
REMARK  2 active torsions:
REMARK  status: ('A' for Active; 'I' for Inactive)
REMARK    1  A    between atoms: O_1  and  C_2 
REMARK    2  A    between atoms: C_2  and  C_3 
ROOT
HETATM    1  C   LIG     1      15.258  31.880  15.394  1.00  0.00     0.009 A 
HETATM    2  C   LIG     1      14.683  30.712  14.833  1.00  0.00     0.044 A 
HETATM    3 CL   LIG     1      15.452  29.811  13.529  1.00  0.00    -0.084 Cl
HETATM    4  C   LIG     1      13.468  30.224  15.327  1.00  0.00     0.024 A 
HETATM    5  C   LIG     1      12.815  30.878  16.371  1.00  0.00     0.003 A 
HETATM    6  C   LIG     1      13.372  32.024  16.935  1.00  0.00     0.024 A 
HETATM    7  C   LIG     1      14.586  32.529  16.456  1.00  0.00     0.044 A 
HETATM    8 CL   LIG     1      15.230  33.985  17.211  1.00  0.00    -0.084 Cl
ENDROOT
BRANCH   1   9
HETATM    9  C   LIG     1      16.570  32.436  14.883  1.00  0.00     0.206 C 
BRANCH   9  10
HETATM   10  O   LIG     1      16.367  33.144  13.691  1.00  0.00    -0.396 OA
HETATM   11  H   LIG     1      17.269  33.375  13.344  1.00  0.00     0.209 HD
ENDBRANCH   9  10
ENDBRANCH   1   9
TORSDOF 2
ENDMDL
MODEL 10
REMARK VINA RESULT:      -5.4      2.242      2.975
REMARK  2 active torsions:
REMARK  status: ('A' for Active; 'I' for Inactive)
REMARK    1  A    between atoms: O_1  and  C_2 
REMARK    2  A    between atoms: C_2  and  C_3 
ROOT
HETATM    1  C   LIG     1      17.353  36.076  24.361  1.00  0.00     0.009 A 
HETATM    2  C   LIG     1      16.788  36.258  23.074  1.00  0.00     0.044 A 
HETATM    3 CL   LIG     1      16.128  34.923  22.132  1.00  0.00    -0.084 Cl
HETATM    4  C   LIG     1      16.722  37.538  22.512  1.00  0.00     0.024 A 
HETATM    5  C   LIG     1      17.208  38.643  23.212  1.00  0.00     0.003 A 
HETATM    6  C   LIG     1      17.761  38.478  24.480  1.00  0.00     0.024 A 
HETATM    7  C   LIG     1      17.837  37.207  25.059  1.00  0.00     0.044 A 
HETATM    8 CL   LIG     1      18.554  37.071  26.663  1.00  0.00    -0.084 Cl
ENDROOT
BRANCH   1   9
HETATM    9  C   LIG     1      17.441  34.705  24.997  1.00  0.00     0.206 C 
BRANCH   9  10
HETATM   10  O   LIG     1      16.717  34.677  26.196  1.00  0.00    -0.396 OA
HETATM   11  H   LIG     1      16.451  33.732  26.342  1.00  0.00     0.209 HD
ENDBRANCH   9  10
ENDBRANCH   1   9
TORSDOF 2
ENDMDL
MODEL 11
REMARK VINA RESULT:      -5.3      2.448      2.910
REMARK  2 active torsions:
REMARK  status: ('A' for Active; 'I' for Inactive)
REMARK    1  A    between atoms: O_1  and  C_2 
REMARK    2  A    between atoms: C_2  and  C_3 
ROOT
HETATM    1  C   LIG     1      17.162  37.405  22.044  1.00  0.00     0.009 A 
HETATM    2  C   LIG     1      18.041  38.393  21.535  1.00  0.00     0.044 A 
HETATM    3 CL   LIG     1      18.322  39.925  22.359  1.00  0.00    -0.084 Cl
HETATM    4  C   LIG     1      18.740  38.163  20.345  1.00  0.00     0.024 A 
HETATM    5  C   LIG     1      18.580  36.964  19.651  1.00  0.00     0.003 A 
HETATM    6  C   LIG     1      17.722  35.982  20.143  1.00  0.00     0.024 A 
HETATM    7  C   LIG     1      17.014  36.191  21.331  1.00  0.00     0.044 A 
HETATM    8 CL   LIG     1      15.943  34.910  21.892  1.00  0.00    -0.084 Cl
ENDROOT
BRANCH   1   9
HETATM    9  C   LIG     1      16.390  37.622  23.327  1.00  0.00     0.206 C 
BRANCH   9  10
HETATM   10  O   LIG     1      15.122  38.149  23.049  1.00  0.00    -0.396 OA
HETATM   11  H   LIG     1      14.639  38.192  23.916  1.00  0.00     0.209 HD
ENDBRANCH   9  10
ENDBRANCH   1   9
TORSDOF 2
ENDMDL
MODEL 12
REMARK VINA RESULT:      -5.3      2.447      3.766
REMARK  2 active torsions:
REMARK  status: ('A' for Active; 'I' for Inactive)
REMARK    1  A    between atoms: O_1  and  C_2 
REMARK    2  A    between atoms: C_2  and  C_3 
ROOT
HETATM    1  C   LIG     1      17.103  37.371  22.058  1.00  0.00     0.009 A 
HETATM    2  C   LIG     1      16.934  36.171  21.323  1.00  0.00     0.044 A 
HETATM    3 CL   LIG     1      15.815  34.905  21.820  1.00  0.00    -0.084 Cl
HETATM    4  C   LIG     1      17.659  35.965  20.143  1.00  0.00     0.024 A 
HETATM    5  C   LIG     1      18.548  36.935  19.681  1.00  0.00     0.003 A 
HETATM    6  C   LIG     1      18.719  38.121  20.392  1.00  0.00     0.024 A 
HETATM    7  C   LIG     1      18.005  38.347  21.573  1.00  0.00     0.044 A 
HETATM    8 CL   LIG     1      18.274  39.866  22.424  1.00  0.00    -0.084 Cl
ENDROOT
BRANCH   1   9
HETATM    9  C   LIG     1      16.336  37.625  23.338  1.00  0.00     0.206 C 
BRANCH   9  10
HETATM   10  O   LIG     1      15.124  38.270  23.060  1.00  0.00    -0.396 OA
HETATM   11  H   LIG     1      14.547  38.140  23.858  1.00  0.00     0.209 HD
ENDBRANCH   9  10
ENDBRANCH   1   9
TORSDOF 2
ENDMDL
MODEL 13
REMARK VINA RESULT:      -5.3      3.227      4.312
REMARK  2 active torsions:
REMARK  status: ('A' for Active; 'I' for Inactive)
REMARK    1  A    between atoms: O_1  and  C_2 
REMARK    2  A    between atoms: C_2  and  C_3 
ROOT
HETATM    1  C   LIG     1      17.492  37.019  21.238  1.00  0.00     0.009 A 
HETATM    2  C   LIG     1      18.632  37.509  20.553  1.00  0.00     0.044 A 
HETATM    3 CL   LIG     1      19.523  36.538  19.383  1.00  0.00    -0.084 Cl
HETATM    4  C   LIG     1      19.080  38.815  20.783  1.00  0.00     0.024 A 
HETATM    5  C   LIG     1      18.409  39.644  21.682  1.00  0.00     0.003 A 
HETATM    6  C   LIG     1      17.284  39.177  22.357  1.00  0.00     0.024 A 
HETATM    7  C   LIG     1      16.820  37.875  22.143  1.00  0.00     0.044 A 
HETATM    8 CL   LIG     1      15.394  37.347  23.034  1.00  0.00    -0.084 Cl
ENDROOT
BRANCH   1   9
HETATM    9  C   LIG     1      16.982  35.612  21.015  1.00  0.00     0.206 C 
BRANCH   9  10
HETATM   10  O   LIG     1      16.423  35.493  19.735  1.00  0.00    -0.396 OA
HETATM   11  H   LIG     1      17.011  36.008  19.123  1.00  0.00     0.209 HD
ENDBRANCH   9  10
ENDBRANCH   1   9
TORSDOF 2
ENDMDL
MODEL 14
REMARK VINA RESULT:      -5.3      3.233      4.522
REMARK  2 active torsions:
REMARK  status: ('A' for Active; 'I' for Inactive)
REMARK    1  A    between atoms: O_1  and  C_2 
REMARK    2  A    between atoms: C_2  and  C_3 
ROOT
HETATM    1  C   LIG     1      17.520  37.032  21.232  1.00  0.00     0.009 A 
HETATM    2  C   LIG     1      16.851  37.890  22.139  1.00  0.00     0.044 A 
HETATM    3 CL   LIG     1      15.449  37.374  23.073  1.00  0.00    -0.084 Cl
HETATM    4  C   LIG     1      17.310  39.198  22.334  1.00  0.00     0.024 A 
HETATM    5  C   LIG     1      18.427  39.666  21.642  1.00  0.00     0.003 A 
HETATM    6  C   LIG     1      19.097  38.830  20.750  1.00  0.00     0.024 A 
HETATM    7  C   LIG     1      18.654  37.520  20.540  1.00  0.00     0.044 A 
HETATM    8 CL   LIG     1      19.545  36.520  19.395  1.00  0.00    -0.084 Cl
ENDROOT
BRANCH   1   9
HETATM    9  C   LIG     1      17.049  35.612  20.995  1.00  0.00     0.206 C 
BRANCH   9  10
HETATM   10  O   LIG     1      16.423  35.509  19.746  1.00  0.00    -0.396 OA
HETATM   11  H   LIG     1      17.106  35.156  19.118  1.00  0.00     0.209 HD
ENDBRANCH   9  10
ENDBRANCH   1   9
TORSDOF 2
ENDMDL
MODEL 15
REMARK VINA RESULT:      -5.2      8.825      9.941
REMARK  2 active torsions:
REMARK  status: ('A' for Active; 'I' for Inactive)
REMARK    1  A    between atoms: O_1  and  C_2 
REMARK    2  A    between atoms: C_2  and  C_3 
ROOT
HETATM    1  C   LIG     1      15.200  32.183  15.806  1.00  0.00     0.009 A 
HETATM    2  C   LIG     1      16.143  32.456  14.785  1.00  0.00     0.044 A 
HETATM    3 CL   LIG     1      17.311  33.771  14.901  1.00  0.00    -0.084 Cl
HETATM    4  C   LIG     1      16.184  31.656  13.637  1.00  0.00     0.024 A 
HETATM    5  C   LIG     1      15.301  30.587  13.488  1.00  0.00     0.003 A 
HETATM    6  C   LIG     1      14.372  30.305  14.488  1.00  0.00     0.024 A 
HETATM    7  C   LIG     1      14.314  31.091  15.643  1.00  0.00     0.044 A 
HETATM    8 CL   LIG     1      13.111  30.681  16.864  1.00  0.00    -0.084 Cl
ENDROOT
BRANCH   1   9
HETATM    9  C   LIG     1      15.127  33.029  17.060  1.00  0.00     0.206 C 
BRANCH   9  10
HETATM   10  O   LIG     1      14.442  34.223  16.802  1.00  0.00    -0.396 OA
HETATM   11  H   LIG     1      14.387  34.708  17.667  1.00  0.00     0.209 HD
ENDBRANCH   9  10
ENDBRANCH   1   9
TORSDOF 2
ENDMDL
MODEL 16
REMARK VINA RESULT:      -5.2      8.834     10.215
REMARK  2 active torsions:
REMARK  status: ('A' for Active; 'I' for Inactive)
REMARK    1  A    between atoms: O_1  and  C_2 
REMARK    2  A    between atoms: C_2  and  C_3 
ROOT
HETATM    1  C   LIG     1      15.190  32.171  15.809  1.00  0.00     0.009 A 
HETATM    2  C   LIG     1      14.293  31.087  15.638  1.00  0.00     0.044 A 
HETATM    3 CL   LIG     1      13.058  30.683  16.827  1.00  0.00    -0.084 Cl
HETATM    4  C   LIG     1      14.358  30.302  14.481  1.00  0.00     0.024 A 
HETATM    5  C   LIG     1      15.299  30.578  13.490  1.00  0.00     0.003 A 
HETATM    6  C   LIG     1      16.183  31.644  13.644  1.00  0.00     0.024 A 
HETATM    7  C   LIG     1      16.137  32.441  14.792  1.00  0.00     0.044 A 
HETATM    8 CL   LIG     1      17.287  33.769  14.924  1.00  0.00    -0.084 Cl
ENDROOT
BRANCH   1   9
HETATM    9  C   LIG     1      15.150  33.040  17.048  1.00  0.00     0.206 C 
BRANCH   9  10
HETATM   10  O   LIG     1      14.412  34.205  16.801  1.00  0.00    -0.396 OA
HETATM   11  H   LIG     1      13.762  33.980  16.085  1.00  0.00     0.209 HD
ENDBRANCH   9  10
ENDBRANCH   1   9
TORSDOF 2
ENDMDL
MODEL 17
REMARK VINA RESULT:      -5.2      9.254     10.529
REMARK  2 active torsions:
REMARK  status: ('A' for Active; 'I' for Inactive)
REMARK    1  A    between atoms: O_1  and  C_2 
REMARK    2  A    between atoms: C_2  and  C_3 
ROOT
HETATM    1  C   LIG     1      14.385  31.227  15.855  1.00  0.00     0.009 A 
HETATM    2  C   LIG     1      14.443  30.516  14.631  1.00  0.00     0.044 A 
HETATM    3 CL   LIG     1      13.385  29.151  14.277  1.00  0.00    -0.084 Cl
HETATM    4  C   LIG     1      15.352  30.902  13.639  1.00  0.00     0.024 A 
HETATM    5  C   LIG     1      16.205  31.986  13.845  1.00  0.00     0.003 A 
HETATM    6  C   LIG     1      16.155  32.696  15.043  1.00  0.00     0.024 A 
HETATM    7  C   LIG     1      15.254  32.327  16.047  1.00  0.00     0.044 A 
HETATM    8 CL   LIG     1      15.247  33.266  17.538  1.00  0.00    -0.084 Cl
ENDROOT
BRANCH   1   9
HETATM    9  C   LIG     1      13.415  30.836  16.949  1.00  0.00     0.206 C 
BRANCH   9  10
HETATM   10  O   LIG     1      12.382  31.778  17.044  1.00  0.00    -0.396 OA
HETATM   11  H   LIG     1      12.022  31.893  16.125  1.00  0.00     0.209 HD
ENDBRANCH   9  10
ENDBRANCH   1   9
TORSDOF 2
ENDMDL
MODEL 18
REMARK VINA RESULT:      -5.2      9.251     10.413
REMARK  2 active torsions:
REMARK  status: ('A' for Active; 'I' for Inactive)
REMARK    1  A    between atoms: O_1  and  C_2 
REMARK    2  A    between atoms: C_2  and  C_3 
ROOT
HETATM    1  C   LIG     1      14.355  31.220  15.862  1.00  0.00     0.009 A 
HETATM    2  C   LIG     1      15.228  32.313  16.088  1.00  0.00     0.044 A 
HETATM    3 CL   LIG     1      15.229  33.229  17.594  1.00  0.00    -0.084 Cl
HETATM    4  C   LIG     1      16.148  32.690  15.103  1.00  0.00     0.024 A 
HETATM    5  C   LIG     1      16.215  31.996  13.895  1.00  0.00     0.003 A 
HETATM    6  C   LIG     1      15.365  30.916  13.662  1.00  0.00     0.024 A 
HETATM    7  C   LIG     1      14.438  30.523  14.633  1.00  0.00     0.044 A 
HETATM    8 CL   LIG     1      13.391  29.153  14.271  1.00  0.00    -0.084 Cl
ENDROOT
BRANCH   1   9
HETATM    9  C   LIG     1      13.347  30.787  16.905  1.00  0.00     0.206 C 
BRANCH   9  10
HETATM   10  O   LIG     1      12.348  31.758  17.051  1.00  0.00    -0.396 OA
HETATM   11  H   LIG     1      11.556  31.424  16.553  1.00  0.00     0.209 HD
ENDBRANCH   9  10
ENDBRANCH   1   9
TORSDOF 2
ENDMDL
MODEL 19
REMARK VINA RESULT:      -5.1      9.643     11.042
REMARK  2 active torsions:
REMARK  status: ('A' for Active; 'I' for Inactive)
REMARK    1  A    between atoms: O_1  and  C_2 
REMARK    2  A    between atoms: C_2  and  C_3 
ROOT
HETATM    1  C   LIG     1      14.995  31.230  14.779  1.00  0.00     0.009 A 
HETATM    2  C   LIG     1      13.856  30.588  15.325  1.00  0.00     0.044 A 
HETATM    3 CL   LIG     1      12.953  29.355  14.447  1.00  0.00    -0.084 Cl
HETATM    4  C   LIG     1      13.419  30.914  16.614  1.00  0.00     0.024 A 
HETATM    5  C   LIG     1      14.098  31.867  17.372  1.00  0.00     0.003 A 
HETATM    6  C   LIG     1      15.223  32.502  16.849  1.00  0.00     0.024 A 
HETATM    7  C   LIG     1      15.677  32.192  15.563  1.00  0.00     0.044 A 
HETATM    8 CL   LIG     1      17.102  33.037  14.963  1.00  0.00    -0.084 Cl
ENDROOT
BRANCH   1   9
HETATM    9  C   LIG     1      15.495  30.904  13.388  1.00  0.00     0.206 C 
BRANCH   9  10
HETATM   10  O   LIG     1      15.851  29.552  13.304  1.00  0.00    -0.396 OA
HETATM   11  H   LIG     1      15.506  29.118  14.128  1.00  0.00     0.209 HD
ENDBRANCH   9  10
ENDBRANCH   1   9
TORSDOF 2
ENDMDL
MODEL 20
REMARK VINA RESULT:      -5.1      9.633     10.848
REMARK  2 active torsions:
REMARK  status: ('A' for Active; 'I' for Inactive)
REMARK    1  A    between atoms: O_1  and  C_2 
REMARK    2  A    between atoms: C_2  and  C_3 
ROOT
HETATM    1  C   LIG     1      14.990  31.222  14.793  1.00  0.00     0.009 A 
HETATM    2  C   LIG     1      15.674  32.193  15.566  1.00  0.00     0.044 A 
HETATM    3 CL   LIG     1      17.086  33.059  14.964  1.00  0.00    -0.084 Cl
HETATM    4  C   LIG     1      15.224  32.508  16.853  1.00  0.00     0.024 A 
HETATM    5  C   LIG     1      14.101  31.875  17.384  1.00  0.00     0.003 A 
HETATM    6  C   LIG     1      13.416  30.922  16.632  1.00  0.00     0.024 A 
HETATM    7  C   LIG     1      13.849  30.591  15.344  1.00  0.00     0.044 A 
HETATM    8 CL   LIG     1      12.939  29.374  14.452  1.00  0.00    -0.084 Cl
ENDROOT
BRANCH   1   9
HETATM    9  C   LIG     1      15.451  30.856  13.398  1.00  0.00     0.206 C 
BRANCH   9  10
HETATM   10  O   LIG     1      15.870  29.520  13.360  1.00  0.00    -0.396 OA
HETATM   11  H   LIG     1      15.772  29.221  12.418  1.00  0.00     0.209 HD
ENDBRANCH   9  10
ENDBRANCH   1   9
TORSDOF 2
ENDMDL
