REMARK  2 active torsions:
REMARK  status: ('A' for Active; 'I' for Inactive)
REMARK    1  A    between atoms: O_1  and  C_2 
REMARK    2  A    between atoms: C_2  and  C_3 
ROOT
HETATM    1  C   LIG     1       0.524   0.033  -0.127  1.00  0.00     0.009 A 
HETATM    2  C   LIG     1      -0.129  -1.222  -0.210  1.00  0.00     0.044 A 
HETATM    3 CL   LIG     1       0.753  -2.746  -0.272  1.00  0.00    -0.084 Cl
HETATM    4  C   LIG     1      -1.527  -1.284  -0.227  1.00  0.00     0.024 A 
HETATM    5  C   LIG     1      -2.288  -0.117  -0.161  1.00  0.00     0.003 A 
HETATM    6  C   LIG     1      -1.658   1.123  -0.074  1.00  0.00     0.024 A 
HETATM    7  C   LIG     1      -0.262   1.208  -0.056  1.00  0.00     0.044 A 
HETATM    8 CL   LIG     1       0.468   2.808   0.050  1.00  0.00    -0.084 Cl
ENDROOT
BRANCH   1   9
HETATM    9  C   LIG     1       2.034   0.137  -0.108  1.00  0.00     0.206 C 
BRANCH   9  10
HETATM   10  O   LIG     1       2.475   0.588   1.143  1.00  0.00    -0.396 OA
HETATM   11  H   LIG     1       2.370  -0.175   1.770  1.00  0.00     0.209 HD
ENDBRANCH   9  10
ENDBRANCH   1   9
TORSDOF 2
