MODEL 1
REMARK VINA RESULT:      -7.8      0.000      0.000
REMARK  2 active torsions:
REMARK  status: ('A' for Active; 'I' for Inactive)
REMARK       I    between atoms: N_2  and  C_3 
REMARK    1  A    between atoms: C_3  and  O_4 
REMARK    2  A    between atoms: O_4  and  N_5 
ROOT
HETATM    1  N   LIG     1      18.551  37.138  20.258  1.00  0.00    -0.130 NA
HETATM    2  C   LIG     1      17.680  36.671  21.094  1.00  0.00     0.064 C 
HETATM    3  C   LIG     1      17.267  35.235  21.176  1.00  0.00     0.055 C 
HETATM    4  C   LIG     1      15.921  35.123  20.430  1.00  0.00     0.103 C 
HETATM    5  C   LIG     1      15.531  33.715  20.235  1.00  0.00     0.064 C 
HETATM    6  N   LIG     1      15.227  32.609  20.082  1.00  0.00    -0.197 NA
HETATM    7  C   LIG     1      14.943  35.869  21.377  1.00  0.00     0.026 C 
HETATM    8  C   LIG     1      15.868  36.355  22.517  1.00  0.00     0.012 C 
HETATM    9  C   LIG     1      16.830  35.181  22.627  1.00  0.00     0.018 C 
HETATM   10  C   LIG     1      16.779  37.483  21.971  1.00  0.00     0.137 C 
HETATM   11 CL   LIG     1      17.700  38.275  23.280  1.00  0.00    -0.118 Cl
ENDROOT
BRANCH   1  12
HETATM   12  O   LIG     1      18.801  38.490  20.172  1.00  0.00    -0.156 OA
BRANCH  12  13
HETATM   13  C   LIG     1      19.321  39.051  19.007  1.00  0.00     0.384 C 
HETATM   14  N   LIG     1      18.519  39.081  17.824  1.00  0.00    -0.340 N 
HETATM   15  C   LIG     1      19.008  39.654  16.576  1.00  0.00     0.151 C 
HETATM   16  H   LIG     1      17.556  38.680  17.855  1.00  0.00     0.164 HD
HETATM   17  O   LIG     1      20.489  39.528  18.999  1.00  0.00    -0.236 OA
ENDBRANCH  12  13
ENDBRANCH   1  12
TORSDOF 2
ENDMDL
MODEL 2
REMARK VINA RESULT:      -6.8      2.372      3.571
REMARK  2 active torsions:
REMARK  status: ('A' for Active; 'I' for Inactive)
REMARK       I    between atoms: N_2  and  C_3 
REMARK    1  A    between atoms: C_3  and  O_4 
REMARK    2  A    between atoms: O_4  and  N_5 
ROOT
HETATM    1  N   LIG     1      18.344  38.491  20.856  1.00  0.00    -0.130 NA
HETATM    2  C   LIG     1      17.565  37.741  21.568  1.00  0.00     0.064 C 
HETATM    3  C   LIG     1      16.878  38.178  22.823  1.00  0.00     0.055 C 
HETATM    4  C   LIG     1      17.713  37.623  23.996  1.00  0.00     0.103 C 
HETATM    5  C   LIG     1      17.271  38.189  25.284  1.00  0.00     0.064 C 
HETATM    6  N   LIG     1      16.924  38.634  26.294  1.00  0.00    -0.197 NA
HETATM    7  C   LIG     1      17.446  36.096  23.912  1.00  0.00     0.026 C 
HETATM    8  C   LIG     1      16.534  35.972  22.670  1.00  0.00     0.012 C 
HETATM    9  C   LIG     1      15.693  37.233  22.803  1.00  0.00     0.018 C 
HETATM   10  C   LIG     1      17.377  36.265  21.404  1.00  0.00     0.137 C 
HETATM   11 CL   LIG     1      16.468  35.897  19.910  1.00  0.00    -0.118 Cl
ENDROOT
BRANCH   1  12
HETATM   12  O   LIG     1      19.025  37.985  19.771  1.00  0.00    -0.156 OA
BRANCH  12  13
HETATM   13  C   LIG     1      19.421  38.812  18.723  1.00  0.00     0.384 C 
HETATM   14  N   LIG     1      18.599  38.912  17.557  1.00  0.00    -0.340 N 
HETATM   15  C   LIG     1      18.960  39.760  16.428  1.00  0.00     0.151 C 
HETATM   16  H   LIG     1      17.713  38.360  17.515  1.00  0.00     0.164 HD
HETATM   17  O   LIG     1      20.496  39.467  18.802  1.00  0.00    -0.236 OA
ENDBRANCH  12  13
ENDBRANCH   1  12
TORSDOF 2
ENDMDL
MODEL 3
REMARK VINA RESULT:      -6.2      3.630      5.797
REMARK  2 active torsions:
REMARK  status: ('A' for Active; 'I' for Inactive)
REMARK       I    between atoms: N_2  and  C_3 
REMARK    1  A    between atoms: C_3  and  O_4 
REMARK    2  A    between atoms: O_4  and  N_5 
ROOT
HETATM    1  N   LIG     1      15.715  34.530  18.728  1.00  0.00    -0.130 NA
HETATM    2  C   LIG     1      15.775  34.867  19.977  1.00  0.00     0.064 C 
HETATM    3  C   LIG     1      16.016  36.259  20.471  1.00  0.00     0.055 C 
HETATM    4  C   LIG     1      17.508  36.333  20.861  1.00  0.00     0.103 C 
HETATM    5  C   LIG     1      17.923  37.721  21.135  1.00  0.00     0.064 C 
HETATM    6  N   LIG     1      18.246  38.811  21.349  1.00  0.00    -0.197 NA
HETATM    7  C   LIG     1      17.572  35.447  22.134  1.00  0.00     0.026 C 
HETATM    8  C   LIG     1      16.118  34.940  22.276  1.00  0.00     0.012 C 
HETATM    9  C   LIG     1      15.340  36.167  21.824  1.00  0.00     0.018 C 
HETATM   10  C   LIG     1      15.832  33.926  21.140  1.00  0.00     0.137 C 
HETATM   11 CL   LIG     1      14.265  33.101  21.375  1.00  0.00    -0.118 Cl
ENDROOT
BRANCH   1  12
HETATM   12  O   LIG     1      15.595  33.211  18.352  1.00  0.00    -0.156 OA
BRANCH  12  13
HETATM   13  C   LIG     1      14.729  32.832  17.328  1.00  0.00     0.384 C 
HETATM   14  N   LIG     1      13.646  31.944  17.617  1.00  0.00    -0.340 N 
HETATM   15  C   LIG     1      12.707  31.512  16.589  1.00  0.00     0.151 C 
HETATM   16  H   LIG     1      13.525  31.595  18.594  1.00  0.00     0.164 HD
HETATM   17  O   LIG     1      14.899  33.270  16.158  1.00  0.00    -0.236 OA
ENDBRANCH  12  13
ENDBRANCH   1  12
TORSDOF 2
ENDMDL
MODEL 4
REMARK VINA RESULT:      -5.6      4.125      5.390
REMARK  2 active torsions:
REMARK  status: ('A' for Active; 'I' for Inactive)
REMARK       I    between atoms: N_2  and  C_3 
REMARK    1  A    between atoms: C_3  and  O_4 
REMARK    2  A    between atoms: O_4  and  N_5 
ROOT
HETATM    1  N   LIG     1      15.611  34.353  18.168  1.00  0.00    -0.130 NA
HETATM    2  C   LIG     1      15.614  34.474  19.457  1.00  0.00     0.064 C 
HETATM    3  C   LIG     1      15.678  35.778  20.188  1.00  0.00     0.055 C 
HETATM    4  C   LIG     1      17.145  35.959  20.633  1.00  0.00     0.103 C 
HETATM    5  C   LIG     1      17.385  37.317  21.152  1.00  0.00     0.064 C 
HETATM    6  N   LIG     1      17.571  38.385  21.559  1.00  0.00    -0.197 NA
HETATM    7  C   LIG     1      17.301  34.880  21.738  1.00  0.00     0.026 C 
HETATM    8  C   LIG     1      15.918  34.188  21.745  1.00  0.00     0.012 C 
HETATM    9  C   LIG     1      15.002  35.374  21.483  1.00  0.00     0.018 C 
HETATM   10  C   LIG     1      15.771  33.360  20.444  1.00  0.00     0.137 C 
HETATM   11 CL   LIG     1      14.314  32.327  20.484  1.00  0.00    -0.118 Cl
ENDROOT
BRANCH   1  12
HETATM   12  O   LIG     1      15.656  33.113  17.569  1.00  0.00    -0.156 OA
BRANCH  12  13
HETATM   13  C   LIG     1      15.928  32.983  16.209  1.00  0.00     0.384 C 
HETATM   14  N   LIG     1      17.047  33.672  15.647  1.00  0.00    -0.340 N 
HETATM   15  C   LIG     1      17.382  33.576  14.231  1.00  0.00     0.151 C 
HETATM   16  H   LIG     1      17.642  34.263  16.270  1.00  0.00     0.164 HD
HETATM   17  O   LIG     1      15.192  32.262  15.481  1.00  0.00    -0.236 OA
ENDBRANCH  12  13
ENDBRANCH   1  12
TORSDOF 2
ENDMDL
MODEL 5
REMARK VINA RESULT:      -5.5      3.223      5.511
REMARK  2 active torsions:
REMARK  status: ('A' for Active; 'I' for Inactive)
REMARK       I    between atoms: N_2  and  C_3 
REMARK    1  A    between atoms: C_3  and  O_4 
REMARK    2  A    between atoms: O_4  and  N_5 
ROOT
HETATM    1  N   LIG     1      17.071  35.250  21.628  1.00  0.00    -0.130 NA
HETATM    2  C   LIG     1      17.453  36.481  21.749  1.00  0.00     0.064 C 
HETATM    3  C   LIG     1      17.873  37.117  23.036  1.00  0.00     0.055 C 
HETATM    4  C   LIG     1      16.662  37.932  23.539  1.00  0.00     0.103 C 
HETATM    5  C   LIG     1      16.871  38.409  24.918  1.00  0.00     0.064 C 
HETATM    6  N   LIG     1      17.037  38.783  26.000  1.00  0.00    -0.197 NA
HETATM    7  C   LIG     1      16.595  39.104  22.524  1.00  0.00     0.026 C 
HETATM    8  C   LIG     1      17.745  38.779  21.543  1.00  0.00     0.012 C 
HETATM    9  C   LIG     1      18.782  38.203  22.496  1.00  0.00     0.018 C 
HETATM   10  C   LIG     1      17.344  37.542  20.700  1.00  0.00     0.137 C 
HETATM   11 CL   LIG     1      18.501  37.251  19.370  1.00  0.00    -0.118 Cl
ENDROOT
BRANCH   1  12
HETATM   12  O   LIG     1      16.598  34.765  20.429  1.00  0.00    -0.156 OA
BRANCH  12  13
HETATM   13  C   LIG     1      15.625  33.769  20.390  1.00  0.00     0.384 C 
HETATM   14  N   LIG     1      15.671  32.782  19.356  1.00  0.00    -0.340 N 
HETATM   15  C   LIG     1      14.681  31.716  19.264  1.00  0.00     0.151 C 
HETATM   16  H   LIG     1      16.436  32.828  18.647  1.00  0.00     0.164 HD
HETATM   17  O   LIG     1      14.713  33.739  21.261  1.00  0.00    -0.236 OA
ENDBRANCH  12  13
ENDBRANCH   1  12
TORSDOF 2
ENDMDL
MODEL 6
REMARK VINA RESULT:      -5.1      8.127     10.164
REMARK  2 active torsions:
REMARK  status: ('A' for Active; 'I' for Inactive)
REMARK       I    between atoms: N_2  and  C_3 
REMARK    1  A    between atoms: C_3  and  O_4 
REMARK    2  A    between atoms: O_4  and  N_5 
ROOT
HETATM    1  N   LIG     1      16.027  31.186  13.223  1.00  0.00    -0.130 NA
HETATM    2  C   LIG     1      16.599  32.283  13.605  1.00  0.00     0.064 C 
HETATM    3  C   LIG     1      16.979  33.406  12.693  1.00  0.00     0.055 C 
HETATM    4  C   LIG     1      18.491  33.259  12.422  1.00  0.00     0.103 C 
HETATM    5  C   LIG     1      18.935  34.163  11.346  1.00  0.00     0.064 C 
HETATM    6  N   LIG     1      19.281  34.874  10.501  1.00  0.00    -0.197 NA
HETATM    7  C   LIG     1      19.120  33.634  13.791  1.00  0.00     0.026 C 
HETATM    8  C   LIG     1      17.883  33.897  14.680  1.00  0.00     0.012 C 
HETATM    9  C   LIG     1      16.944  34.556  13.680  1.00  0.00     0.018 C 
HETATM   10  C   LIG     1      17.177  32.547  14.961  1.00  0.00     0.137 C 
HETATM   11 CL   LIG     1      15.887  32.722  16.185  1.00  0.00    -0.118 Cl
ENDROOT
BRANCH   1  12
HETATM   12  O   LIG     1      15.804  30.154  14.107  1.00  0.00    -0.156 OA
BRANCH  12  13
HETATM   13  C   LIG     1      14.540  29.583  14.240  1.00  0.00     0.384 C 
HETATM   14  N   LIG     1      14.282  28.303  13.659  1.00  0.00    -0.340 N 
HETATM   15  C   LIG     1      12.981  27.655  13.764  1.00  0.00     0.151 C 
HETATM   16  H   LIG     1      15.050  27.818  13.143  1.00  0.00     0.164 HD
HETATM   17  O   LIG     1      13.632  30.193  14.869  1.00  0.00    -0.236 OA
ENDBRANCH  12  13
ENDBRANCH   1  12
TORSDOF 2
ENDMDL
