REMARK  5 active torsions:
REMARK  status: ('A' for Active; 'I' for Inactive)
REMARK    1  A    between atoms: C_2  and  C_8 
REMARK       I    between atoms: C_2  and  N_3 
REMARK    2  A    between atoms: N_3  and  C_4 
REMARK    3  A    between atoms: N_3  and  C_6 
REMARK    4  A    between atoms: C_8  and  O_9 
REMARK    5  A    between atoms: O_9  and  C_10 
ROOT
HETATM    1  C   LIG     1       1.770   0.846  -0.532  1.00  0.00     0.081 A 
HETATM    2  C   LIG     1       2.187   1.966  -1.279  1.00  0.00     0.038 A 
HETATM    3  C   LIG     1       3.474   2.023  -1.816  1.00  0.00     0.004 A 
HETATM    4  C   LIG     1       4.369   0.973  -1.617  1.00  0.00     0.012 A 
HETATM    5  C   LIG     1       3.983  -0.148  -0.870  1.00  0.00    -0.023 A 
HETATM    6  C   LIG     1       2.677  -0.215  -0.320  1.00  0.00     0.007 A 
HETATM    7  C   LIG     1       2.307  -1.349   0.429  1.00  0.00     0.015 A 
HETATM    8  C   LIG     1       3.215  -2.393   0.626  1.00  0.00     0.001 A 
HETATM    9  C   LIG     1       4.498  -2.322   0.081  1.00  0.00     0.001 A 
HETATM   10  C   LIG     1       4.883  -1.206  -0.664  1.00  0.00     0.012 A 
ENDROOT
BRANCH   1  11
HETATM   11  O   LIG     1       0.479   0.758   0.023  1.00  0.00    -0.336 OA
BRANCH  11  12
HETATM   12  C   LIG     1      -0.627   1.616  -0.266  1.00  0.00     0.216 C 
HETATM   13  C   LIG     1      -1.134   1.405  -1.698  1.00  0.00     0.050 C 
BRANCH  12  14
HETATM   14  C   LIG     1      -1.721   1.373   0.746  1.00  0.00     0.248 C 
HETATM   15  O   LIG     1      -1.839   2.190   1.700  1.00  0.00    -0.270 OA
HETATM   16  N   LIG     1      -2.640   0.260   0.651  1.00  0.00    -0.351 N 
BRANCH  16  17
HETATM   17  C   LIG     1      -4.019   0.459   1.130  1.00  0.00     0.121 C 
HETATM   18  C   LIG     1      -4.171   0.013   2.583  1.00  0.00     0.026 C 
ENDBRANCH  16  17
BRANCH  16  19
HETATM   19  C   LIG     1      -2.137  -1.106   0.413  1.00  0.00     0.121 C 
HETATM   20  C   LIG     1      -2.983  -1.855  -0.617  1.00  0.00     0.026 C 
ENDBRANCH  16  19
ENDBRANCH  12  14
ENDBRANCH  11  12
ENDBRANCH   1  11
TORSDOF 5
