MODEL 1
REMARK VINA RESULT:      -8.2      0.000      0.000
REMARK  5 active torsions:
REMARK  status: ('A' for Active; 'I' for Inactive)
REMARK    1  A    between atoms: C_2  and  C_8 
REMARK       I    between atoms: C_2  and  N_3 
REMARK    2  A    between atoms: N_3  and  C_4 
REMARK    3  A    between atoms: N_3  and  C_6 
REMARK    4  A    between atoms: C_8  and  O_9 
REMARK    5  A    between atoms: O_9  and  C_10 
ROOT
HETATM    1  C   LIG     1      17.244  36.010  21.473  1.00  0.00     0.081 A 
HETATM    2  C   LIG     1      16.761  36.160  22.789  1.00  0.00     0.038 A 
HETATM    3  C   LIG     1      16.957  37.352  23.487  1.00  0.00     0.004 A 
HETATM    4  C   LIG     1      17.638  38.414  22.893  1.00  0.00     0.012 A 
HETATM    5  C   LIG     1      18.136  38.288  21.589  1.00  0.00    -0.023 A 
HETATM    6  C   LIG     1      17.942  37.079  20.872  1.00  0.00     0.007 A 
HETATM    7  C   LIG     1      18.451  36.971  19.563  1.00  0.00     0.015 A 
HETATM    8  C   LIG     1      19.137  38.040  18.980  1.00  0.00     0.001 A 
HETATM    9  C   LIG     1      19.323  39.227  19.690  1.00  0.00     0.001 A 
HETATM   10  C   LIG     1      18.826  39.354  20.989  1.00  0.00     0.012 A 
ENDROOT
BRANCH   1  11
HETATM   11  O   LIG     1      17.062  34.820  20.743  1.00  0.00    -0.336 OA
BRANCH  11  12
HETATM   12  C   LIG     1      15.831  34.119  20.559  1.00  0.00     0.216 C 
HETATM   13  C   LIG     1      14.678  34.822  21.287  1.00  0.00     0.050 C 
BRANCH  12  14
HETATM   14  C   LIG     1      15.550  33.987  19.082  1.00  0.00     0.248 C 
HETATM   15  O   LIG     1      15.543  35.038  18.383  1.00  0.00    -0.270 OA
HETATM   16  N   LIG     1      15.311  32.712  18.442  1.00  0.00    -0.351 N 
BRANCH  16  17
HETATM   17  C   LIG     1      15.772  32.538  17.054  1.00  0.00     0.121 C 
HETATM   18  C   LIG     1      14.709  31.853  16.198  1.00  0.00     0.026 C 
ENDBRANCH  16  17
BRANCH  16  19
HETATM   19  C   LIG     1      14.349  31.755  19.020  1.00  0.00     0.121 C 
HETATM   20  C   LIG     1      14.965  30.945  20.161  1.00  0.00     0.026 C 
ENDBRANCH  16  19
ENDBRANCH  12  14
ENDBRANCH  11  12
ENDBRANCH   1  11
TORSDOF 5
ENDMDL
MODEL 2
REMARK VINA RESULT:      -7.5      1.373      3.115
REMARK  5 active torsions:
REMARK  status: ('A' for Active; 'I' for Inactive)
REMARK    1  A    between atoms: C_2  and  C_8 
REMARK       I    between atoms: C_2  and  N_3 
REMARK    2  A    between atoms: N_3  and  C_4 
REMARK    3  A    between atoms: N_3  and  C_6 
REMARK    4  A    between atoms: C_8  and  O_9 
REMARK    5  A    between atoms: O_9  and  C_10 
ROOT
HETATM    1  C   LIG     1      17.195  36.164  22.104  1.00  0.00     0.081 A 
HETATM    2  C   LIG     1      17.282  37.392  21.418  1.00  0.00     0.038 A 
HETATM    3  C   LIG     1      17.562  38.573  22.108  1.00  0.00     0.004 A 
HETATM    4  C   LIG     1      17.756  38.555  23.488  1.00  0.00     0.012 A 
HETATM    5  C   LIG     1      17.666  37.349  24.196  1.00  0.00    -0.023 A 
HETATM    6  C   LIG     1      17.381  36.144  23.504  1.00  0.00     0.007 A 
HETATM    7  C   LIG     1      17.293  34.941  24.231  1.00  0.00     0.015 A 
HETATM    8  C   LIG     1      17.484  34.937  25.616  1.00  0.00     0.001 A 
HETATM    9  C   LIG     1      17.766  36.126  26.291  1.00  0.00     0.001 A 
HETATM   10  C   LIG     1      17.857  37.328  25.586  1.00  0.00     0.012 A 
ENDROOT
BRANCH   1  11
HETATM   11  O   LIG     1      16.913  34.956  21.438  1.00  0.00    -0.336 OA
BRANCH  11  12
HETATM   12  C   LIG     1      15.615  34.438  21.138  1.00  0.00     0.216 C 
HETATM   13  C   LIG     1      14.513  35.401  21.594  1.00  0.00     0.050 C 
BRANCH  12  14
HETATM   14  C   LIG     1      15.523  34.159  19.656  1.00  0.00     0.248 C 
HETATM   15  O   LIG     1      15.612  35.135  18.862  1.00  0.00    -0.270 OA
HETATM   16  N   LIG     1      15.358  32.825  19.121  1.00  0.00    -0.351 N 
BRANCH  16  17
HETATM   17  C   LIG     1      15.990  32.516  17.827  1.00  0.00     0.121 C 
HETATM   18  C   LIG     1      14.957  32.463  16.703  1.00  0.00     0.026 C 
ENDBRANCH  16  17
BRANCH  16  19
HETATM   19  C   LIG     1      14.324  31.925  19.665  1.00  0.00     0.121 C 
HETATM   20  C   LIG     1      14.933  30.688  20.326  1.00  0.00     0.026 C 
ENDBRANCH  16  19
ENDBRANCH  12  14
ENDBRANCH  11  12
ENDBRANCH   1  11
TORSDOF 5
ENDMDL
MODEL 3
REMARK VINA RESULT:      -7.4      1.191      1.749
REMARK  5 active torsions:
REMARK  status: ('A' for Active; 'I' for Inactive)
REMARK    1  A    between atoms: C_2  and  C_8 
REMARK       I    between atoms: C_2  and  N_3 
REMARK    2  A    between atoms: N_3  and  C_4 
REMARK    3  A    between atoms: N_3  and  C_6 
REMARK    4  A    between atoms: C_8  and  O_9 
REMARK    5  A    between atoms: O_9  and  C_10 
ROOT
HETATM    1  C   LIG     1      16.698  36.197  21.053  1.00  0.00     0.081 A 
HETATM    2  C   LIG     1      15.856  36.570  22.121  1.00  0.00     0.038 A 
HETATM    3  C   LIG     1      16.057  37.774  22.796  1.00  0.00     0.004 A 
HETATM    4  C   LIG     1      17.097  38.626  22.427  1.00  0.00     0.012 A 
HETATM    5  C   LIG     1      17.954  38.275  21.375  1.00  0.00    -0.023 A 
HETATM    6  C   LIG     1      17.758  37.052  20.683  1.00  0.00     0.007 A 
HETATM    7  C   LIG     1      18.630  36.715  19.629  1.00  0.00     0.015 A 
HETATM    8  C   LIG     1      19.672  37.574  19.272  1.00  0.00     0.001 A 
HETATM    9  C   LIG     1      19.859  38.777  19.956  1.00  0.00     0.001 A 
HETATM   10  C   LIG     1      19.005  39.128  21.003  1.00  0.00     0.012 A 
ENDROOT
BRANCH   1  11
HETATM   11  O   LIG     1      16.522  34.988  20.352  1.00  0.00    -0.336 OA
BRANCH  11  12
HETATM   12  C   LIG     1      15.802  33.841  20.809  1.00  0.00     0.216 C 
HETATM   13  C   LIG     1      14.395  34.222  21.285  1.00  0.00     0.050 C 
BRANCH  12  14
HETATM   14  C   LIG     1      15.749  32.816  19.702  1.00  0.00     0.248 C 
HETATM   15  O   LIG     1      16.411  31.752  19.847  1.00  0.00    -0.270 OA
HETATM   16  N   LIG     1      14.960  32.999  18.504  1.00  0.00    -0.351 N 
BRANCH  16  17
HETATM   17  C   LIG     1      14.360  31.806  17.881  1.00  0.00     0.121 C 
HETATM   18  C   LIG     1      13.205  32.185  16.956  1.00  0.00     0.026 C 
ENDBRANCH  16  17
BRANCH  16  19
HETATM   19  C   LIG     1      15.036  34.262  17.745  1.00  0.00     0.121 C 
HETATM   20  C   LIG     1      15.916  34.129  16.502  1.00  0.00     0.026 C 
ENDBRANCH  16  19
ENDBRANCH  12  14
ENDBRANCH  11  12
ENDBRANCH   1  11
TORSDOF 5
ENDMDL
MODEL 4
REMARK VINA RESULT:      -7.2      5.878      9.069
REMARK  5 active torsions:
REMARK  status: ('A' for Active; 'I' for Inactive)
REMARK    1  A    between atoms: C_2  and  C_8 
REMARK       I    between atoms: C_2  and  N_3 
REMARK    2  A    between atoms: N_3  and  C_4 
REMARK    3  A    between atoms: N_3  and  C_6 
REMARK    4  A    between atoms: C_8  and  O_9 
REMARK    5  A    between atoms: O_9  and  C_10 
ROOT
HETATM    1  C   LIG     1      16.512  32.704  14.768  1.00  0.00     0.081 A 
HETATM    2  C   LIG     1      16.438  33.692  15.770  1.00  0.00     0.038 A 
HETATM    3  C   LIG     1      15.440  33.644  16.744  1.00  0.00     0.004 A 
HETATM    4  C   LIG     1      14.496  32.618  16.737  1.00  0.00     0.012 A 
HETATM    5  C   LIG     1      14.541  31.628  15.747  1.00  0.00    -0.023 A 
HETATM    6  C   LIG     1      15.552  31.668  14.752  1.00  0.00     0.007 A 
HETATM    7  C   LIG     1      15.581  30.665  13.764  1.00  0.00     0.015 A 
HETATM    8  C   LIG     1      14.626  29.645  13.764  1.00  0.00     0.001 A 
HETATM    9  C   LIG     1      13.635  29.609  14.746  1.00  0.00     0.001 A 
HETATM   10  C   LIG     1      13.590  30.595  15.734  1.00  0.00     0.012 A 
ENDROOT
BRANCH   1  11
HETATM   11  O   LIG     1      17.506  32.724  13.771  1.00  0.00    -0.336 OA
BRANCH  11  12
HETATM   12  C   LIG     1      18.466  33.761  13.554  1.00  0.00     0.216 C 
HETATM   13  C   LIG     1      19.891  33.264  13.828  1.00  0.00     0.050 C 
BRANCH  12  14
HETATM   14  C   LIG     1      18.326  34.279  12.143  1.00  0.00     0.248 C 
HETATM   15  O   LIG     1      17.437  35.144  11.914  1.00  0.00    -0.270 OA
HETATM   16  N   LIG     1      19.177  33.837  11.060  1.00  0.00    -0.351 N 
BRANCH  16  17
HETATM   17  C   LIG     1      19.515  34.808  10.005  1.00  0.00     0.121 C 
HETATM   18  C   LIG     1      20.901  35.410  10.228  1.00  0.00     0.026 C 
ENDBRANCH  16  17
BRANCH  16  19
HETATM   19  C   LIG     1      19.413  32.398  10.834  1.00  0.00     0.121 C 
HETATM   20  C   LIG     1      20.864  32.110  10.447  1.00  0.00     0.026 C 
ENDBRANCH  16  19
ENDBRANCH  12  14
ENDBRANCH  11  12
ENDBRANCH   1  11
TORSDOF 5
ENDMDL
MODEL 5
REMARK VINA RESULT:      -6.6      1.331      2.927
REMARK  5 active torsions:
REMARK  status: ('A' for Active; 'I' for Inactive)
REMARK    1  A    between atoms: C_2  and  C_8 
REMARK       I    between atoms: C_2  and  N_3 
REMARK    2  A    between atoms: N_3  and  C_4 
REMARK    3  A    between atoms: N_3  and  C_6 
REMARK    4  A    between atoms: C_8  and  O_9 
REMARK    5  A    between atoms: O_9  and  C_10 
ROOT
HETATM    1  C   LIG     1      17.042  36.160  20.008  1.00  0.00     0.081 A 
HETATM    2  C   LIG     1      18.071  36.320  19.059  1.00  0.00     0.038 A 
HETATM    3  C   LIG     1      19.091  37.250  19.267  1.00  0.00     0.004 A 
HETATM    4  C   LIG     1      19.104  38.038  20.417  1.00  0.00     0.012 A 
HETATM    5  C   LIG     1      18.087  37.905  21.372  1.00  0.00    -0.023 A 
HETATM    6  C   LIG     1      17.046  36.963  21.169  1.00  0.00     0.007 A 
HETATM    7  C   LIG     1      16.031  36.844  22.139  1.00  0.00     0.015 A 
HETATM    8  C   LIG     1      16.052  37.643  23.285  1.00  0.00     0.001 A 
HETATM    9  C   LIG     1      17.080  38.567  23.480  1.00  0.00     0.001 A 
HETATM   10  C   LIG     1      18.094  38.700  22.530  1.00  0.00     0.012 A 
ENDROOT
BRANCH   1  11
HETATM   11  O   LIG     1      15.999  35.231  19.827  1.00  0.00    -0.336 OA
BRANCH  11  12
HETATM   12  C   LIG     1      15.837  33.994  20.523  1.00  0.00     0.216 C 
HETATM   13  C   LIG     1      14.625  34.039  21.462  1.00  0.00     0.050 C 
BRANCH  12  14
HETATM   14  C   LIG     1      15.713  32.872  19.519  1.00  0.00     0.248 C 
HETATM   15  O   LIG     1      16.332  31.798  19.750  1.00  0.00    -0.270 OA
HETATM   16  N   LIG     1      14.903  32.978  18.326  1.00  0.00    -0.351 N 
BRANCH  16  17
HETATM   17  C   LIG     1      14.238  31.760  17.831  1.00  0.00     0.121 C 
HETATM   18  C   LIG     1      13.096  32.102  16.875  1.00  0.00     0.026 C 
ENDBRANCH  16  17
BRANCH  16  19
HETATM   19  C   LIG     1      15.014  34.160  17.450  1.00  0.00     0.121 C 
HETATM   20  C   LIG     1      16.046  33.953  16.341  1.00  0.00     0.026 C 
ENDBRANCH  16  19
ENDBRANCH  12  14
ENDBRANCH  11  12
ENDBRANCH   1  11
TORSDOF 5
ENDMDL
MODEL 6
REMARK VINA RESULT:      -6.1      5.610     11.689
REMARK  5 active torsions:
REMARK  status: ('A' for Active; 'I' for Inactive)
REMARK    1  A    between atoms: C_2  and  C_8 
REMARK       I    between atoms: C_2  and  N_3 
REMARK    2  A    between atoms: N_3  and  C_4 
REMARK    3  A    between atoms: N_3  and  C_6 
REMARK    4  A    between atoms: C_8  and  O_9 
REMARK    5  A    between atoms: O_9  and  C_10 
ROOT
HETATM    1  C   LIG     1      14.788  27.704  13.203  1.00  0.00     0.081 A 
HETATM    2  C   LIG     1      16.061  27.595  12.606  1.00  0.00     0.038 A 
HETATM    3  C   LIG     1      16.255  26.778  11.492  1.00  0.00     0.004 A 
HETATM    4  C   LIG     1      15.193  26.052  10.954  1.00  0.00     0.012 A 
HETATM    5  C   LIG     1      13.920  26.135  11.534  1.00  0.00    -0.023 A 
HETATM    6  C   LIG     1      13.712  26.963  12.667  1.00  0.00     0.007 A 
HETATM    7  C   LIG     1      12.426  27.033  13.238  1.00  0.00     0.015 A 
HETATM    8  C   LIG     1      11.371  26.297  12.693  1.00  0.00     0.001 A 
HETATM    9  C   LIG     1      11.581  25.486  11.577  1.00  0.00     0.001 A 
HETATM   10  C   LIG     1      12.848  25.403  10.998  1.00  0.00     0.012 A 
ENDROOT
BRANCH   1  11
HETATM   11  O   LIG     1      14.559  28.520  14.327  1.00  0.00    -0.336 OA
BRANCH  11  12
HETATM   12  C   LIG     1      15.095  29.826  14.549  1.00  0.00     0.216 C 
HETATM   13  C   LIG     1      15.378  30.543  13.223  1.00  0.00     0.050 C 
BRANCH  12  14
HETATM   14  C   LIG     1      14.137  30.616  15.408  1.00  0.00     0.248 C 
HETATM   15  O   LIG     1      12.904  30.370  15.302  1.00  0.00    -0.270 OA
HETATM   16  N   LIG     1      14.579  31.621  16.350  1.00  0.00    -0.351 N 
BRANCH  16  17
HETATM   17  C   LIG     1      13.804  31.793  17.591  1.00  0.00     0.121 C 
HETATM   18  C   LIG     1      14.674  31.563  18.825  1.00  0.00     0.026 C 
ENDBRANCH  16  17
BRANCH  16  19
HETATM   19  C   LIG     1      15.545  32.657  15.940  1.00  0.00     0.121 C 
HETATM   20  C   LIG     1      15.261  34.001  16.611  1.00  0.00     0.026 C 
ENDBRANCH  16  19
ENDBRANCH  12  14
ENDBRANCH  11  12
ENDBRANCH   1  11
TORSDOF 5
ENDMDL
MODEL 7
REMARK VINA RESULT:      -5.6      5.997      8.430
REMARK  5 active torsions:
REMARK  status: ('A' for Active; 'I' for Inactive)
REMARK    1  A    between atoms: C_2  and  C_8 
REMARK       I    between atoms: C_2  and  N_3 
REMARK    2  A    between atoms: N_3  and  C_4 
REMARK    3  A    between atoms: N_3  and  C_6 
REMARK    4  A    between atoms: C_8  and  O_9 
REMARK    5  A    between atoms: O_9  and  C_10 
ROOT
HETATM    1  C   LIG     1      19.196  33.784  12.172  1.00  0.00     0.081 A 
HETATM    2  C   LIG     1      18.349  34.016  11.069  1.00  0.00     0.038 A 
HETATM    3  C   LIG     1      18.769  34.816  10.006  1.00  0.00     0.004 A 
HETATM    4  C   LIG     1      20.034  35.403  10.021  1.00  0.00     0.012 A 
HETATM    5  C   LIG     1      20.892  35.196  11.109  1.00  0.00    -0.023 A 
HETATM    6  C   LIG     1      20.474  34.384  12.195  1.00  0.00     0.007 A 
HETATM    7  C   LIG     1      21.349  34.189  13.280  1.00  0.00     0.015 A 
HETATM    8  C   LIG     1      22.613  34.787  13.286  1.00  0.00     0.001 A 
HETATM    9  C   LIG     1      23.019  35.583  12.214  1.00  0.00     0.001 A 
HETATM   10  C   LIG     1      22.165  35.789  11.129  1.00  0.00     0.012 A 
ENDROOT
BRANCH   1  11
HETATM   11  O   LIG     1      18.802  32.982  13.260  1.00  0.00    -0.336 OA
BRANCH  11  12
HETATM   12  C   LIG     1      17.901  33.356  14.304  1.00  0.00     0.216 C 
HETATM   13  C   LIG     1      17.701  34.875  14.347  1.00  0.00     0.050 C 
BRANCH  12  14
HETATM   14  C   LIG     1      16.590  32.633  14.110  1.00  0.00     0.248 C 
HETATM   15  O   LIG     1      16.002  32.757  13.001  1.00  0.00    -0.270 OA
HETATM   16  N   LIG     1      15.999  31.798  15.133  1.00  0.00    -0.351 N 
BRANCH  16  17
HETATM   17  C   LIG     1      15.230  30.617  14.703  1.00  0.00     0.121 C 
HETATM   18  C   LIG     1      13.859  30.573  15.374  1.00  0.00     0.026 C 
ENDBRANCH  16  17
BRANCH  16  19
HETATM   19  C   LIG     1      15.874  32.289  16.518  1.00  0.00     0.121 C 
HETATM   20  C   LIG     1      15.089  33.599  16.592  1.00  0.00     0.026 C 
ENDBRANCH  16  19
ENDBRANCH  12  14
ENDBRANCH  11  12
ENDBRANCH   1  11
TORSDOF 5
ENDMDL
MODEL 8
REMARK VINA RESULT:      -5.6      6.523      9.159
REMARK  5 active torsions:
REMARK  status: ('A' for Active; 'I' for Inactive)
REMARK    1  A    between atoms: C_2  and  C_8 
REMARK       I    between atoms: C_2  and  N_3 
REMARK    2  A    between atoms: N_3  and  C_4 
REMARK    3  A    between atoms: N_3  and  C_6 
REMARK    4  A    between atoms: C_8  and  O_9 
REMARK    5  A    between atoms: O_9  and  C_10 
ROOT
HETATM    1  C   LIG     1      14.246  30.469  14.775  1.00  0.00     0.081 A 
HETATM    2  C   LIG     1      13.566  30.321  16.000  1.00  0.00     0.038 A 
HETATM    3  C   LIG     1      13.856  31.156  17.080  1.00  0.00     0.004 A 
HETATM    4  C   LIG     1      14.829  32.147  16.964  1.00  0.00     0.012 A 
HETATM    5  C   LIG     1      15.528  32.309  15.760  1.00  0.00    -0.023 A 
HETATM    6  C   LIG     1      15.239  31.466  14.657  1.00  0.00     0.007 A 
HETATM    7  C   LIG     1      15.952  31.643  13.455  1.00  0.00     0.015 A 
HETATM    8  C   LIG     1      16.929  32.637  13.353  1.00  0.00     0.001 A 
HETATM    9  C   LIG     1      17.207  33.465  14.442  1.00  0.00     0.001 A 
HETATM   10  C   LIG     1      16.511  33.304  15.641  1.00  0.00     0.012 A 
ENDROOT
BRANCH   1  11
HETATM   11  O   LIG     1      13.977  29.643  13.667  1.00  0.00    -0.336 OA
BRANCH  11  12
HETATM   12  C   LIG     1      14.668  28.442  13.318  1.00  0.00     0.216 C 
HETATM   13  C   LIG     1      15.730  28.089  14.366  1.00  0.00     0.050 C 
BRANCH  12  14
HETATM   14  C   LIG     1      13.667  27.324  13.152  1.00  0.00     0.248 C 
HETATM   15  O   LIG     1      12.799  27.166  14.053  1.00  0.00    -0.270 OA
HETATM   16  N   LIG     1      13.656  26.450  11.999  1.00  0.00    -0.351 N 
BRANCH  16  17
HETATM   17  C   LIG     1      12.356  25.946  11.525  1.00  0.00     0.121 C 
HETATM   18  C   LIG     1      12.494  24.562  10.894  1.00  0.00     0.026 C 
ENDBRANCH  16  17
BRANCH  16  19
HETATM   19  C   LIG     1      14.903  25.814  11.532  1.00  0.00     0.121 C 
HETATM   20  C   LIG     1      15.421  26.452  10.242  1.00  0.00     0.026 C 
ENDBRANCH  16  19
ENDBRANCH  12  14
ENDBRANCH  11  12
ENDBRANCH   1  11
TORSDOF 5
ENDMDL
MODEL 9
REMARK VINA RESULT:      -5.5      6.108     12.056
REMARK  5 active torsions:
REMARK  status: ('A' for Active; 'I' for Inactive)
REMARK    1  A    between atoms: C_2  and  C_8 
REMARK       I    between atoms: C_2  and  N_3 
REMARK    2  A    between atoms: N_3  and  C_4 
REMARK    3  A    between atoms: N_3  and  C_6 
REMARK    4  A    between atoms: C_8  and  O_9 
REMARK    5  A    between atoms: O_9  and  C_10 
ROOT
HETATM    1  C   LIG     1      14.660  27.353  12.830  1.00  0.00     0.081 A 
HETATM    2  C   LIG     1      15.919  27.349  12.196  1.00  0.00     0.038 A 
HETATM    3  C   LIG     1      16.126  26.605  11.033  1.00  0.00     0.004 A 
HETATM    4  C   LIG     1      15.091  25.851  10.483  1.00  0.00     0.012 A 
HETATM    5  C   LIG     1      13.833  25.830  11.099  1.00  0.00    -0.023 A 
HETATM    6  C   LIG     1      13.612  26.583  12.281  1.00  0.00     0.007 A 
HETATM    7  C   LIG     1      12.341  26.549  12.887  1.00  0.00     0.015 A 
HETATM    8  C   LIG     1      11.312  25.784  12.330  1.00  0.00     0.001 A 
HETATM    9  C   LIG     1      11.535  25.047  11.165  1.00  0.00     0.001 A 
HETATM   10  C   LIG     1      12.788  25.068  10.551  1.00  0.00     0.012 A 
ENDROOT
BRANCH   1  11
HETATM   11  O   LIG     1      14.419  28.092  14.003  1.00  0.00    -0.336 OA
BRANCH  11  12
HETATM   12  C   LIG     1      14.128  29.490  14.079  1.00  0.00     0.216 C 
HETATM   13  C   LIG     1      12.842  29.747  14.874  1.00  0.00     0.050 C 
BRANCH  12  14
HETATM   14  C   LIG     1      15.306  30.209  14.691  1.00  0.00     0.248 C 
HETATM   15  O   LIG     1      16.431  29.638  14.662  1.00  0.00    -0.270 OA
HETATM   16  N   LIG     1      15.196  31.523  15.287  1.00  0.00    -0.351 N 
BRANCH  16  17
HETATM   17  C   LIG     1      16.350  32.432  15.175  1.00  0.00     0.121 C 
HETATM   18  C   LIG     1      16.643  32.780  13.717  1.00  0.00     0.026 C 
ENDBRANCH  16  17
BRANCH  16  19
HETATM   19  C   LIG     1      14.123  31.816  16.256  1.00  0.00     0.121 C 
HETATM   20  C   LIG     1      14.680  32.307  17.593  1.00  0.00     0.026 C 
ENDBRANCH  16  19
ENDBRANCH  12  14
ENDBRANCH  11  12
ENDBRANCH   1  11
TORSDOF 5
ENDMDL
MODEL 10
REMARK VINA RESULT:      -5.5     14.213     16.226
REMARK  5 active torsions:
REMARK  status: ('A' for Active; 'I' for Inactive)
REMARK    1  A    between atoms: C_2  and  C_8 
REMARK       I    between atoms: C_2  and  N_3 
REMARK    2  A    between atoms: N_3  and  C_4 
REMARK    3  A    between atoms: N_3  and  C_6 
REMARK    4  A    between atoms: C_8  and  O_9 
REMARK    5  A    between atoms: O_9  and  C_10 
ROOT
HETATM    1  C   LIG     1      25.212  22.769  19.230  1.00  0.00     0.081 A 
HETATM    2  C   LIG     1      24.305  22.310  18.255  1.00  0.00     0.038 A 
HETATM    3  C   LIG     1      23.116  21.683  18.629  1.00  0.00     0.004 A 
HETATM    4  C   LIG     1      22.810  21.496  19.976  1.00  0.00     0.012 A 
HETATM    5  C   LIG     1      23.699  21.934  20.966  1.00  0.00    -0.023 A 
HETATM    6  C   LIG     1      24.911  22.573  20.596  1.00  0.00     0.007 A 
HETATM    7  C   LIG     1      25.793  23.005  21.605  1.00  0.00     0.015 A 
HETATM    8  C   LIG     1      25.478  22.807  22.952  1.00  0.00     0.001 A 
HETATM    9  C   LIG     1      24.284  22.180  23.310  1.00  0.00     0.001 A 
HETATM   10  C   LIG     1      23.397  21.744  22.324  1.00  0.00     0.012 A 
ENDROOT
BRANCH   1  11
HETATM   11  O   LIG     1      26.420  23.405  18.886  1.00  0.00    -0.336 OA
BRANCH  11  12
HETATM   12  C   LIG     1      26.555  24.654  18.203  1.00  0.00     0.216 C 
HETATM   13  C   LIG     1      25.918  25.796  19.004  1.00  0.00     0.050 C 
BRANCH  12  14
HETATM   14  C   LIG     1      28.017  24.918  17.935  1.00  0.00     0.248 C 
HETATM   15  O   LIG     1      28.447  24.742  16.762  1.00  0.00    -0.270 OA
HETATM   16  N   LIG     1      28.928  25.378  18.960  1.00  0.00    -0.351 N 
BRANCH  16  17
HETATM   17  C   LIG     1      30.022  26.280  18.559  1.00  0.00     0.121 C 
HETATM   18  C   LIG     1      29.500  27.683  18.253  1.00  0.00     0.026 C 
ENDBRANCH  16  17
BRANCH  16  19
HETATM   19  C   LIG     1      28.975  24.708  20.273  1.00  0.00     0.121 C 
HETATM   20  C   LIG     1      28.621  25.662  21.414  1.00  0.00     0.026 C 
ENDBRANCH  16  19
ENDBRANCH  12  14
ENDBRANCH  11  12
ENDBRANCH   1  11
TORSDOF 5
ENDMDL
MODEL 11
REMARK VINA RESULT:      -5.4      1.369      2.333
REMARK  5 active torsions:
REMARK  status: ('A' for Active; 'I' for Inactive)
REMARK    1  A    between atoms: C_2  and  C_8 
REMARK       I    between atoms: C_2  and  N_3 
REMARK    2  A    between atoms: N_3  and  C_4 
REMARK    3  A    between atoms: N_3  and  C_6 
REMARK    4  A    between atoms: C_8  and  O_9 
REMARK    5  A    between atoms: O_9  and  C_10 
ROOT
HETATM    1  C   LIG     1      15.981  35.142  20.193  1.00  0.00     0.081 A 
HETATM    2  C   LIG     1      15.485  34.739  21.450  1.00  0.00     0.038 A 
HETATM    3  C   LIG     1      16.029  35.254  22.627  1.00  0.00     0.004 A 
HETATM    4  C   LIG     1      17.076  36.173  22.578  1.00  0.00     0.012 A 
HETATM    5  C   LIG     1      17.595  36.583  21.342  1.00  0.00    -0.023 A 
HETATM    6  C   LIG     1      17.048  36.065  20.140  1.00  0.00     0.007 A 
HETATM    7  C   LIG     1      17.583  36.488  18.907  1.00  0.00     0.015 A 
HETATM    8  C   LIG     1      18.636  37.406  18.871  1.00  0.00     0.001 A 
HETATM    9  C   LIG     1      19.168  37.913  20.057  1.00  0.00     0.001 A 
HETATM   10  C   LIG     1      18.652  37.505  21.289  1.00  0.00     0.012 A 
ENDROOT
BRANCH   1  11
HETATM   11  O   LIG     1      15.454  34.641  18.988  1.00  0.00    -0.336 OA
BRANCH  11  12
HETATM   12  C   LIG     1      15.651  33.328  18.459  1.00  0.00     0.216 C 
HETATM   13  C   LIG     1      14.823  32.290  19.226  1.00  0.00     0.050 C 
BRANCH  12  14
HETATM   14  C   LIG     1      15.306  33.329  16.988  1.00  0.00     0.248 C 
HETATM   15  O   LIG     1      15.163  34.442  16.413  1.00  0.00    -0.270 OA
HETATM   16  N   LIG     1      15.155  32.112  16.221  1.00  0.00    -0.351 N 
BRANCH  16  17
HETATM   17  C   LIG     1      15.557  32.134  14.804  1.00  0.00     0.121 C 
HETATM   18  C   LIG     1      17.039  32.472  14.653  1.00  0.00     0.026 C 
ENDBRANCH  16  17
BRANCH  16  19
HETATM   19  C   LIG     1      14.320  31.007  16.729  1.00  0.00     0.121 C 
HETATM   20  C   LIG     1      12.867  31.131  16.269  1.00  0.00     0.026 C 
ENDBRANCH  16  19
ENDBRANCH  12  14
ENDBRANCH  11  12
ENDBRANCH   1  11
TORSDOF 5
ENDMDL
MODEL 12
REMARK VINA RESULT:      -5.4     14.715     16.272
REMARK  5 active torsions:
REMARK  status: ('A' for Active; 'I' for Inactive)
REMARK    1  A    between atoms: C_2  and  C_8 
REMARK       I    between atoms: C_2  and  N_3 
REMARK    2  A    between atoms: N_3  and  C_4 
REMARK    3  A    between atoms: N_3  and  C_6 
REMARK    4  A    between atoms: C_8  and  O_9 
REMARK    5  A    between atoms: O_9  and  C_10 
ROOT
HETATM    1  C   LIG     1      25.864  22.813  21.590  1.00  0.00     0.081 A 
HETATM    2  C   LIG     1      25.338  22.725  22.895  1.00  0.00     0.038 A 
HETATM    3  C   LIG     1      24.014  22.334  23.102  1.00  0.00     0.004 A 
HETATM    4  C   LIG     1      23.190  22.029  22.020  1.00  0.00     0.012 A 
HETATM    5  C   LIG     1      23.686  22.119  20.712  1.00  0.00    -0.023 A 
HETATM    6  C   LIG     1      25.030  22.515  20.491  1.00  0.00     0.007 A 
HETATM    7  C   LIG     1      25.510  22.600  19.170  1.00  0.00     0.015 A 
HETATM    8  C   LIG     1      24.673  22.297  18.093  1.00  0.00     0.001 A 
HETATM    9  C   LIG     1      23.352  21.906  18.316  1.00  0.00     0.001 A 
HETATM   10  C   LIG     1      22.858  21.816  19.619  1.00  0.00     0.012 A 
ENDROOT
BRANCH   1  11
HETATM   11  O   LIG     1      27.195  23.205  21.347  1.00  0.00    -0.336 OA
BRANCH  11  12
HETATM   12  C   LIG     1      27.690  24.545  21.314  1.00  0.00     0.216 C 
HETATM   13  C   LIG     1      28.222  24.974  22.687  1.00  0.00     0.050 C 
BRANCH  12  14
HETATM   14  C   LIG     1      28.759  24.653  20.252  1.00  0.00     0.248 C 
HETATM   15  O   LIG     1      29.881  24.124  20.484  1.00  0.00    -0.270 OA
HETATM   16  N   LIG     1      28.537  25.316  18.986  1.00  0.00    -0.351 N 
BRANCH  16  17
HETATM   17  C   LIG     1      29.231  24.787  17.798  1.00  0.00     0.121 C 
HETATM   18  C   LIG     1      28.312  23.886  16.975  1.00  0.00     0.026 C 
ENDBRANCH  16  17
BRANCH  16  19
HETATM   19  C   LIG     1      27.929  26.658  18.942  1.00  0.00     0.121 C 
HETATM   20  C   LIG     1      28.796  27.654  18.171  1.00  0.00     0.026 C 
ENDBRANCH  16  19
ENDBRANCH  12  14
ENDBRANCH  11  12
ENDBRANCH   1  11
TORSDOF 5
ENDMDL
MODEL 13
REMARK VINA RESULT:      -5.2     14.292     16.138
REMARK  5 active torsions:
REMARK  status: ('A' for Active; 'I' for Inactive)
REMARK    1  A    between atoms: C_2  and  C_8 
REMARK       I    between atoms: C_2  and  N_3 
REMARK    2  A    between atoms: N_3  and  C_4 
REMARK    3  A    between atoms: N_3  and  C_6 
REMARK    4  A    between atoms: C_8  and  O_9 
REMARK    5  A    between atoms: O_9  and  C_10 
ROOT
HETATM    1  C   LIG     1      24.244  21.906  23.946  1.00  0.00     0.081 A 
HETATM    2  C   LIG     1      23.382  20.796  24.058  1.00  0.00     0.038 A 
HETATM    3  C   LIG     1      23.071  20.262  25.309  1.00  0.00     0.004 A 
HETATM    4  C   LIG     1      23.612  20.816  26.468  1.00  0.00     0.012 A 
HETATM    5  C   LIG     1      24.480  21.913  26.384  1.00  0.00    -0.023 A 
HETATM    6  C   LIG     1      24.802  22.463  25.117  1.00  0.00     0.007 A 
HETATM    7  C   LIG     1      25.676  23.566  25.051  1.00  0.00     0.015 A 
HETATM    8  C   LIG     1      26.217  24.109  26.220  1.00  0.00     0.001 A 
HETATM    9  C   LIG     1      25.895  23.564  27.464  1.00  0.00     0.001 A 
HETATM   10  C   LIG     1      25.030  22.471  27.549  1.00  0.00     0.012 A 
ENDROOT
BRANCH   1  11
HETATM   11  O   LIG     1      24.577  22.468  22.699  1.00  0.00    -0.336 OA
BRANCH  11  12
HETATM   12  C   LIG     1      23.821  22.359  21.491  1.00  0.00     0.216 C 
HETATM   13  C   LIG     1      22.550  23.215  21.553  1.00  0.00     0.050 C 
BRANCH  12  14
HETATM   14  C   LIG     1      24.692  22.752  20.323  1.00  0.00     0.248 C 
HETATM   15  O   LIG     1      25.535  23.675  20.495  1.00  0.00    -0.270 OA
HETATM   16  N   LIG     1      24.609  22.103  19.033  1.00  0.00    -0.351 N 
BRANCH  16  17
HETATM   17  C   LIG     1      25.847  21.967  18.246  1.00  0.00     0.121 C 
HETATM   18  C   LIG     1      26.676  20.774  18.719  1.00  0.00     0.026 C 
ENDBRANCH  16  17
BRANCH  16  19
HETATM   19  C   LIG     1      23.301  21.899  18.382  1.00  0.00     0.121 C 
HETATM   20  C   LIG     1      22.898  20.425  18.360  1.00  0.00     0.026 C 
ENDBRANCH  16  19
ENDBRANCH  12  14
ENDBRANCH  11  12
ENDBRANCH   1  11
TORSDOF 5
ENDMDL
