REMARK  2 active torsions:
REMARK  status: ('A' for Active; 'I' for Inactive)
REMARK    1  A    between atoms: C_2  and  C_3 
REMARK       I    between atoms: C_2  and  N_10 
REMARK    2  A    between atoms: N_10  and  C_11 
ROOT
HETATM    1  O   LIG     1       0.079  -1.244  -1.383  1.00  0.00    -0.267 OA
HETATM    2  C   LIG     1       0.484  -0.416  -0.524  1.00  0.00     0.257 C 
HETATM    3  N   LIG     1      -0.439   0.496   0.096  1.00  0.00    -0.323 N 
HETATM    4  H   LIG     1      -0.056   1.307   0.631  1.00  0.00     0.169 HD
ENDROOT
BRANCH   2   5
HETATM    5  C   LIG     1       1.926  -0.351  -0.205  1.00  0.00     0.048 A 
HETATM    6  C   LIG     1       2.571   0.898  -0.179  1.00  0.00     0.018 A 
HETATM    7  C   LIG     1       3.937   0.987   0.099  1.00  0.00     0.001 A 
HETATM    8  C   LIG     1       4.675  -0.168   0.354  1.00  0.00     0.001 A 
HETATM    9  C   LIG     1       4.049  -1.416   0.335  1.00  0.00     0.019 A 
HETATM   10  C   LIG     1       2.680  -1.519   0.058  1.00  0.00     0.022 A 
HETATM   11  I   LIG     1       1.816  -3.457   0.138  1.00  0.00    -0.043 I 
ENDBRANCH   2   5
BRANCH   3  12
HETATM   12  C   LIG     1      -1.869   0.400  -0.029  1.00  0.00     0.035 A 
HETATM   13  C   LIG     1      -2.521  -0.847  -0.077  1.00  0.00     0.029 A 
HETATM   14  C   LIG     1      -3.914  -0.910  -0.173  1.00  0.00     0.002 A 
HETATM   15  C   LIG     1      -4.669   0.266  -0.210  1.00  0.00     0.000 A 
HETATM   16  C   LIG     1      -4.031   1.507  -0.140  1.00  0.00     0.002 A 
HETATM   17  C   LIG     1      -2.638   1.574  -0.042  1.00  0.00     0.029 A 
ENDBRANCH   3  12
TORSDOF 2
