MODEL 1
REMARK VINA RESULT:      -8.2      0.000      0.000
REMARK  2 active torsions:
REMARK  status: ('A' for Active; 'I' for Inactive)
REMARK    1  A    between atoms: C_2  and  C_3 
REMARK       I    between atoms: C_2  and  N_10 
REMARK    2  A    between atoms: N_10  and  C_11 
ROOT
HETATM    1  O   LIG     1      17.790  35.724  21.224  1.00  0.00    -0.267 OA
HETATM    2  C   LIG     1      16.952  35.405  22.109  1.00  0.00     0.257 C 
HETATM    3  N   LIG     1      15.744  34.712  21.748  1.00  0.00    -0.323 N 
HETATM    4  H   LIG     1      14.974  34.653  22.451  1.00  0.00     0.169 HD
ENDROOT
BRANCH   2   5
HETATM    5  C   LIG     1      17.194  35.801  23.513  1.00  0.00     0.048 A 
HETATM    6  C   LIG     1      17.365  34.806  24.491  1.00  0.00     0.018 A 
HETATM    7  C   LIG     1      17.575  35.152  25.828  1.00  0.00     0.001 A 
HETATM    8  C   LIG     1      17.617  36.494  26.204  1.00  0.00     0.001 A 
HETATM    9  C   LIG     1      17.452  37.495  25.244  1.00  0.00     0.019 A 
HETATM   10  C   LIG     1      17.241  37.161  23.901  1.00  0.00     0.022 A 
HETATM   11  I   LIG     1      17.088  38.763  22.515  1.00  0.00    -0.043 I 
ENDBRANCH   2   5
BRANCH   3  12
HETATM   12  C   LIG     1      15.500  34.148  20.448  1.00  0.00     0.035 A 
HETATM   13  C   LIG     1      15.500  34.946  19.288  1.00  0.00     0.029 A 
HETATM   14  C   LIG     1      15.286  34.366  18.034  1.00  0.00     0.002 A 
HETATM   15  C   LIG     1      15.082  32.987  17.924  1.00  0.00     0.000 A 
HETATM   16  C   LIG     1      15.103  32.186  19.068  1.00  0.00     0.002 A 
HETATM   17  C   LIG     1      15.319  32.762  20.323  1.00  0.00     0.029 A 
ENDBRANCH   3  12
TORSDOF 2
ENDMDL
MODEL 2
REMARK VINA RESULT:      -7.2      4.059      8.127
REMARK  2 active torsions:
REMARK  status: ('A' for Active; 'I' for Inactive)
REMARK    1  A    between atoms: C_2  and  C_3 
REMARK       I    between atoms: C_2  and  N_10 
REMARK    2  A    between atoms: N_10  and  C_11 
ROOT
HETATM    1  O   LIG     1      14.361  34.054  16.707  1.00  0.00    -0.267 OA
HETATM    2  C   LIG     1      14.835  32.910  16.938  1.00  0.00     0.257 C 
HETATM    3  N   LIG     1      15.501  32.638  18.184  1.00  0.00    -0.323 N 
HETATM    4  H   LIG     1      16.070  31.767  18.266  1.00  0.00     0.169 HD
ENDROOT
BRANCH   2   5
HETATM    5  C   LIG     1      14.753  31.868  15.893  1.00  0.00     0.048 A 
HETATM    6  C   LIG     1      13.697  30.940  15.925  1.00  0.00     0.018 A 
HETATM    7  C   LIG     1      13.607  29.933  14.961  1.00  0.00     0.001 A 
HETATM    8  C   LIG     1      14.568  29.839  13.956  1.00  0.00     0.001 A 
HETATM    9  C   LIG     1      15.621  30.754  13.908  1.00  0.00     0.019 A 
HETATM   10  C   LIG     1      15.723  31.770  14.868  1.00  0.00     0.022 A 
HETATM   11  I   LIG     1      17.317  33.156  14.650  1.00  0.00    -0.043 I 
ENDBRANCH   2   5
BRANCH   3  12
HETATM   12  C   LIG     1      15.486  33.530  19.313  1.00  0.00     0.035 A 
HETATM   13  C   LIG     1      16.002  34.837  19.224  1.00  0.00     0.029 A 
HETATM   14  C   LIG     1      15.952  35.690  20.330  1.00  0.00     0.002 A 
HETATM   15  C   LIG     1      15.378  35.254  21.528  1.00  0.00     0.000 A 
HETATM   16  C   LIG     1      14.844  33.966  21.617  1.00  0.00     0.002 A 
HETATM   17  C   LIG     1      14.890  33.110  20.512  1.00  0.00     0.029 A 
ENDBRANCH   3  12
TORSDOF 2
ENDMDL
MODEL 3
REMARK VINA RESULT:      -7.2      3.367      7.475
REMARK  2 active torsions:
REMARK  status: ('A' for Active; 'I' for Inactive)
REMARK    1  A    between atoms: C_2  and  C_3 
REMARK       I    between atoms: C_2  and  N_10 
REMARK    2  A    between atoms: N_10  and  C_11 
ROOT
HETATM    1  O   LIG     1      15.650  34.675  17.394  1.00  0.00    -0.267 OA
HETATM    2  C   LIG     1      15.252  33.573  17.858  1.00  0.00     0.257 C 
HETATM    3  N   LIG     1      15.308  33.319  19.272  1.00  0.00    -0.323 N 
HETATM    4  H   LIG     1      15.184  32.338  19.608  1.00  0.00     0.169 HD
ENDROOT
BRANCH   2   5
HETATM    5  C   LIG     1      14.783  32.523  16.928  1.00  0.00     0.048 A 
HETATM    6  C   LIG     1      13.603  31.818  17.222  1.00  0.00     0.018 A 
HETATM    7  C   LIG     1      13.148  30.807  16.372  1.00  0.00     0.001 A 
HETATM    8  C   LIG     1      13.866  30.488  15.220  1.00  0.00     0.001 A 
HETATM    9  C   LIG     1      15.039  31.180  14.912  1.00  0.00     0.019 A 
HETATM   10  C   LIG     1      15.505  32.196  15.756  1.00  0.00     0.022 A 
HETATM   11  I   LIG     1      17.252  33.238  15.147  1.00  0.00    -0.043 I 
ENDBRANCH   2   5
BRANCH   3  12
HETATM   12  C   LIG     1      15.593  34.326  20.258  1.00  0.00     0.035 A 
HETATM   13  C   LIG     1      14.672  35.350  20.551  1.00  0.00     0.029 A 
HETATM   14  C   LIG     1      14.964  36.301  21.532  1.00  0.00     0.002 A 
HETATM   15  C   LIG     1      16.169  36.234  22.238  1.00  0.00     0.000 A 
HETATM   16  C   LIG     1      17.078  35.208  21.970  1.00  0.00     0.002 A 
HETATM   17  C   LIG     1      16.788  34.253  20.990  1.00  0.00     0.029 A 
ENDBRANCH   3  12
TORSDOF 2
ENDMDL
MODEL 4
REMARK VINA RESULT:      -7.2      2.153      2.798
REMARK  2 active torsions:
REMARK  status: ('A' for Active; 'I' for Inactive)
REMARK    1  A    between atoms: C_2  and  C_3 
REMARK       I    between atoms: C_2  and  N_10 
REMARK    2  A    between atoms: N_10  and  C_11 
ROOT
HETATM    1  O   LIG     1      17.224  34.434  21.622  1.00  0.00    -0.267 OA
HETATM    2  C   LIG     1      16.704  35.454  21.098  1.00  0.00     0.257 C 
HETATM    3  N   LIG     1      15.920  35.334  19.898  1.00  0.00    -0.323 N 
HETATM    4  H   LIG     1      15.687  36.201  19.365  1.00  0.00     0.169 HD
ENDROOT
BRANCH   2   5
HETATM    5  C   LIG     1      16.957  36.783  21.694  1.00  0.00     0.048 A 
HETATM    6  C   LIG     1      16.238  37.175  22.837  1.00  0.00     0.018 A 
HETATM    7  C   LIG     1      16.442  38.433  23.409  1.00  0.00     0.001 A 
HETATM    8  C   LIG     1      17.365  39.314  22.848  1.00  0.00     0.001 A 
HETATM    9  C   LIG     1      18.090  38.939  21.714  1.00  0.00     0.019 A 
HETATM   10  C   LIG     1      17.895  37.681  21.131  1.00  0.00     0.022 A 
HETATM   11  I   LIG     1      19.110  37.185  19.462  1.00  0.00    -0.043 I 
ENDBRANCH   2   5
BRANCH   3  12
HETATM   12  C   LIG     1      15.489  34.079  19.343  1.00  0.00     0.035 A 
HETATM   13  C   LIG     1      15.269  32.952  20.157  1.00  0.00     0.029 A 
HETATM   14  C   LIG     1      14.825  31.752  19.594  1.00  0.00     0.002 A 
HETATM   15  C   LIG     1      14.586  31.668  18.219  1.00  0.00     0.000 A 
HETATM   16  C   LIG     1      14.781  32.788  17.407  1.00  0.00     0.002 A 
HETATM   17  C   LIG     1      15.223  33.991  17.967  1.00  0.00     0.029 A 
ENDBRANCH   3  12
TORSDOF 2
ENDMDL
MODEL 5
REMARK VINA RESULT:      -7.1      2.591      3.663
REMARK  2 active torsions:
REMARK  status: ('A' for Active; 'I' for Inactive)
REMARK    1  A    between atoms: C_2  and  C_3 
REMARK       I    between atoms: C_2  and  N_10 
REMARK    2  A    between atoms: N_10  and  C_11 
ROOT
HETATM    1  O   LIG     1      17.618  35.032  22.068  1.00  0.00    -0.267 OA
HETATM    2  C   LIG     1      17.346  35.652  21.005  1.00  0.00     0.257 C 
HETATM    3  N   LIG     1      16.452  35.076  20.037  1.00  0.00    -0.323 N 
HETATM    4  H   LIG     1      16.413  35.497  19.082  1.00  0.00     0.169 HD
ENDROOT
BRANCH   2   5
HETATM    5  C   LIG     1      18.002  36.949  20.737  1.00  0.00     0.048 A 
HETATM    6  C   LIG     1      18.907  37.056  19.666  1.00  0.00     0.018 A 
HETATM    7  C   LIG     1      19.557  38.264  19.403  1.00  0.00     0.001 A 
HETATM    8  C   LIG     1      19.313  39.379  20.204  1.00  0.00     0.001 A 
HETATM    9  C   LIG     1      18.415  39.290  21.270  1.00  0.00     0.019 A 
HETATM   10  C   LIG     1      17.756  38.085  21.544  1.00  0.00     0.022 A 
HETATM   11  I   LIG     1      16.351  38.087  23.136  1.00  0.00    -0.043 I 
ENDBRANCH   2   5
BRANCH   3  12
HETATM   12  C   LIG     1      15.649  33.908  20.281  1.00  0.00     0.035 A 
HETATM   13  C   LIG     1      15.786  32.745  19.499  1.00  0.00     0.029 A 
HETATM   14  C   LIG     1      15.010  31.616  19.774  1.00  0.00     0.002 A 
HETATM   15  C   LIG     1      14.102  31.630  20.837  1.00  0.00     0.000 A 
HETATM   16  C   LIG     1      13.977  32.772  21.632  1.00  0.00     0.002 A 
HETATM   17  C   LIG     1      14.752  33.903  21.360  1.00  0.00     0.029 A 
ENDBRANCH   3  12
TORSDOF 2
ENDMDL
MODEL 6
REMARK VINA RESULT:      -6.7      7.177      9.385
REMARK  2 active torsions:
REMARK  status: ('A' for Active; 'I' for Inactive)
REMARK    1  A    between atoms: C_2  and  C_3 
REMARK       I    between atoms: C_2  and  N_10 
REMARK    2  A    between atoms: N_10  and  C_11 
ROOT
HETATM    1  O   LIG     1      16.701  31.806  13.084  1.00  0.00    -0.267 OA
HETATM    2  C   LIG     1      16.768  32.609  14.052  1.00  0.00     0.257 C 
HETATM    3  N   LIG     1      17.793  33.617  14.088  1.00  0.00    -0.323 N 
HETATM    4  H   LIG     1      17.965  34.122  14.986  1.00  0.00     0.169 HD
ENDROOT
BRANCH   2   5
HETATM    5  C   LIG     1      15.820  32.467  15.178  1.00  0.00     0.048 A 
HETATM    6  C   LIG     1      15.706  33.506  16.119  1.00  0.00     0.018 A 
HETATM    7  C   LIG     1      14.834  33.389  17.204  1.00  0.00     0.001 A 
HETATM    8  C   LIG     1      14.066  32.236  17.362  1.00  0.00     0.001 A 
HETATM    9  C   LIG     1      14.165  31.197  16.435  1.00  0.00     0.019 A 
HETATM   10  C   LIG     1      15.036  31.301  15.343  1.00  0.00     0.022 A 
HETATM   11  I   LIG     1      15.044  29.698  13.951  1.00  0.00    -0.043 I 
ENDBRANCH   2   5
BRANCH   3  12
HETATM   12  C   LIG     1      18.648  33.933  12.976  1.00  0.00     0.035 A 
HETATM   13  C   LIG     1      18.145  34.542  11.810  1.00  0.00     0.029 A 
HETATM   14  C   LIG     1      19.004  34.861  10.755  1.00  0.00     0.002 A 
HETATM   15  C   LIG     1      20.371  34.587  10.855  1.00  0.00     0.000 A 
HETATM   16  C   LIG     1      20.882  34.003  12.017  1.00  0.00     0.002 A 
HETATM   17  C   LIG     1      20.026  33.685  13.076  1.00  0.00     0.029 A 
ENDBRANCH   3  12
TORSDOF 2
ENDMDL
MODEL 7
REMARK VINA RESULT:      -6.7      7.839      9.731
REMARK  2 active torsions:
REMARK  status: ('A' for Active; 'I' for Inactive)
REMARK    1  A    between atoms: C_2  and  C_3 
REMARK       I    between atoms: C_2  and  N_10 
REMARK    2  A    between atoms: N_10  and  C_11 
ROOT
HETATM    1  O   LIG     1      17.937  32.567  15.147  1.00  0.00    -0.267 OA
HETATM    2  C   LIG     1      17.007  32.440  14.306  1.00  0.00     0.257 C 
HETATM    3  N   LIG     1      17.109  33.063  13.013  1.00  0.00    -0.323 N 
HETATM    4  H   LIG     1      16.250  33.131  12.423  1.00  0.00     0.169 HD
ENDROOT
BRANCH   2   5
HETATM    5  C   LIG     1      15.786  31.697  14.683  1.00  0.00     0.048 A 
HETATM    6  C   LIG     1      15.442  30.532  13.975  1.00  0.00     0.018 A 
HETATM    7  C   LIG     1      14.283  29.821  14.296  1.00  0.00     0.001 A 
HETATM    8  C   LIG     1      13.455  30.264  15.326  1.00  0.00     0.001 A 
HETATM    9  C   LIG     1      13.784  31.417  16.041  1.00  0.00     0.019 A 
HETATM   10  C   LIG     1      14.943  32.139  15.729  1.00  0.00     0.022 A 
HETATM   11  I   LIG     1      15.389  33.829  16.935  1.00  0.00    -0.043 I 
ENDBRANCH   2   5
BRANCH   3  12
HETATM   12  C   LIG     1      18.313  33.663  12.503  1.00  0.00     0.035 A 
HETATM   13  C   LIG     1      19.552  33.489  13.149  1.00  0.00     0.029 A 
HETATM   14  C   LIG     1      20.710  34.062  12.617  1.00  0.00     0.002 A 
HETATM   15  C   LIG     1      20.646  34.802  11.432  1.00  0.00     0.000 A 
HETATM   16  C   LIG     1      19.425  34.960  10.773  1.00  0.00     0.002 A 
HETATM   17  C   LIG     1      18.264  34.386  11.302  1.00  0.00     0.029 A 
ENDBRANCH   3  12
TORSDOF 2
ENDMDL
MODEL 8
REMARK VINA RESULT:      -6.3      4.262      8.314
REMARK  2 active torsions:
REMARK  status: ('A' for Active; 'I' for Inactive)
REMARK    1  A    between atoms: C_2  and  C_3 
REMARK       I    between atoms: C_2  and  N_10 
REMARK    2  A    between atoms: N_10  and  C_11 
ROOT
HETATM    1  O   LIG     1      14.972  34.499  16.528  1.00  0.00    -0.267 OA
HETATM    2  C   LIG     1      15.336  33.302  16.679  1.00  0.00     0.257 C 
HETATM    3  N   LIG     1      15.700  32.813  17.982  1.00  0.00    -0.323 N 
HETATM    4  H   LIG     1      16.201  31.900  18.050  1.00  0.00     0.169 HD
ENDROOT
BRANCH   2   5
HETATM    5  C   LIG     1      15.443  32.423  15.495  1.00  0.00     0.048 A 
HETATM    6  C   LIG     1      16.442  32.674  14.538  1.00  0.00     0.018 A 
HETATM    7  C   LIG     1      16.553  31.873  13.399  1.00  0.00     0.001 A 
HETATM    8  C   LIG     1      15.669  30.813  13.202  1.00  0.00     0.001 A 
HETATM    9  C   LIG     1      14.673  30.548  14.144  1.00  0.00     0.019 A 
HETATM   10  C   LIG     1      14.552  31.344  15.290  1.00  0.00     0.022 A 
HETATM   11  I   LIG     1      13.056  30.800  16.696  1.00  0.00    -0.043 I 
ENDBRANCH   2   5
BRANCH   3  12
HETATM   12  C   LIG     1      15.475  33.539  19.203  1.00  0.00     0.035 A 
HETATM   13  C   LIG     1      14.897  32.922  20.329  1.00  0.00     0.029 A 
HETATM   14  C   LIG     1      14.714  33.644  21.512  1.00  0.00     0.002 A 
HETATM   15  C   LIG     1      15.115  34.981  21.587  1.00  0.00     0.000 A 
HETATM   16  C   LIG     1      15.709  35.594  20.481  1.00  0.00     0.002 A 
HETATM   17  C   LIG     1      15.896  34.874  19.297  1.00  0.00     0.029 A 
ENDBRANCH   3  12
TORSDOF 2
ENDMDL
MODEL 9
REMARK VINA RESULT:      -6.1      1.925      2.610
REMARK  2 active torsions:
REMARK  status: ('A' for Active; 'I' for Inactive)
REMARK    1  A    between atoms: C_2  and  C_3 
REMARK       I    between atoms: C_2  and  N_10 
REMARK    2  A    between atoms: N_10  and  C_11 
ROOT
HETATM    1  O   LIG     1      14.872  36.161  21.591  1.00  0.00    -0.267 OA
HETATM    2  C   LIG     1      16.119  36.140  21.415  1.00  0.00     0.257 C 
HETATM    3  N   LIG     1      16.720  35.115  20.604  1.00  0.00    -0.323 N 
HETATM    4  H   LIG     1      17.755  34.985  20.649  1.00  0.00     0.169 HD
ENDROOT
BRANCH   2   5
HETATM    5  C   LIG     1      16.964  37.141  22.099  1.00  0.00     0.048 A 
HETATM    6  C   LIG     1      17.304  38.330  21.430  1.00  0.00     0.018 A 
HETATM    7  C   LIG     1      18.117  39.285  22.044  1.00  0.00     0.001 A 
HETATM    8  C   LIG     1      18.602  39.064  23.333  1.00  0.00     0.001 A 
HETATM    9  C   LIG     1      18.272  37.890  24.013  1.00  0.00     0.019 A 
HETATM   10  C   LIG     1      17.457  36.925  23.408  1.00  0.00     0.022 A 
HETATM   11  I   LIG     1      16.951  35.218  24.564  1.00  0.00    -0.043 I 
ENDBRANCH   2   5
BRANCH   3  12
HETATM   12  C   LIG     1      15.973  34.206  19.776  1.00  0.00     0.035 A 
HETATM   13  C   LIG     1      15.591  34.549  18.465  1.00  0.00     0.029 A 
HETATM   14  C   LIG     1      14.888  33.636  17.675  1.00  0.00     0.002 A 
HETATM   15  C   LIG     1      14.571  32.370  18.177  1.00  0.00     0.000 A 
HETATM   16  C   LIG     1      14.967  32.014  19.469  1.00  0.00     0.002 A 
HETATM   17  C   LIG     1      15.672  32.924  20.262  1.00  0.00     0.029 A 
ENDBRANCH   3  12
TORSDOF 2
ENDMDL
MODEL 10
REMARK VINA RESULT:      -5.9      2.393      6.716
REMARK  2 active torsions:
REMARK  status: ('A' for Active; 'I' for Inactive)
REMARK    1  A    between atoms: C_2  and  C_3 
REMARK       I    between atoms: C_2  and  N_10 
REMARK    2  A    between atoms: N_10  and  C_11 
ROOT
HETATM    1  O   LIG     1      14.534  34.120  21.507  1.00  0.00    -0.267 OA
HETATM    2  C   LIG     1      15.404  34.447  20.656  1.00  0.00     0.257 C 
HETATM    3  N   LIG     1      16.451  35.368  21.007  1.00  0.00    -0.323 N 
HETATM    4  H   LIG     1      17.022  35.790  20.241  1.00  0.00     0.169 HD
ENDROOT
BRANCH   2   5
HETATM    5  C   LIG     1      15.301  33.923  19.278  1.00  0.00     0.048 A 
HETATM    6  C   LIG     1      15.393  34.812  18.193  1.00  0.00     0.018 A 
HETATM    7  C   LIG     1      15.279  34.347  16.881  1.00  0.00     0.001 A 
HETATM    8  C   LIG     1      15.072  32.990  16.636  1.00  0.00     0.001 A 
HETATM    9  C   LIG     1      14.981  32.093  17.702  1.00  0.00     0.019 A 
HETATM   10  C   LIG     1      15.094  32.547  19.022  1.00  0.00     0.022 A 
HETATM   11  I   LIG     1      15.026  31.084  20.561  1.00  0.00    -0.043 I 
ENDBRANCH   2   5
BRANCH   3  12
HETATM   12  C   LIG     1      16.724  35.799  22.352  1.00  0.00     0.035 A 
HETATM   13  C   LIG     1      17.085  34.884  23.359  1.00  0.00     0.029 A 
HETATM   14  C   LIG     1      17.369  35.334  24.652  1.00  0.00     0.002 A 
HETATM   15  C   LIG     1      17.309  36.699  24.948  1.00  0.00     0.000 A 
HETATM   16  C   LIG     1      16.974  37.616  23.949  1.00  0.00     0.002 A 
HETATM   17  C   LIG     1      16.691  37.169  22.655  1.00  0.00     0.029 A 
ENDBRANCH   3  12
TORSDOF 2
ENDMDL
MODEL 11
REMARK VINA RESULT:      -5.3     16.548     17.547
REMARK  2 active torsions:
REMARK  status: ('A' for Active; 'I' for Inactive)
REMARK    1  A    between atoms: C_2  and  C_3 
REMARK       I    between atoms: C_2  and  N_10 
REMARK    2  A    between atoms: N_10  and  C_11 
ROOT
HETATM    1  O   LIG     1      28.581  28.805  33.473  1.00  0.00    -0.267 OA
HETATM    2  C   LIG     1      27.399  28.569  33.842  1.00  0.00     0.257 C 
HETATM    3  N   LIG     1      26.544  27.730  33.047  1.00  0.00    -0.323 N 
HETATM    4  H   LIG     1      25.520  27.726  33.250  1.00  0.00     0.169 HD
ENDROOT
BRANCH   2   5
HETATM    5  C   LIG     1      26.882  29.212  35.069  1.00  0.00     0.048 A 
HETATM    6  C   LIG     1      26.300  30.489  34.985  1.00  0.00     0.018 A 
HETATM    7  C   LIG     1      25.822  31.129  36.131  1.00  0.00     0.001 A 
HETATM    8  C   LIG     1      25.920  30.504  37.373  1.00  0.00     0.001 A 
HETATM    9  C   LIG     1      26.494  29.234  37.473  1.00  0.00     0.019 A 
HETATM   10  C   LIG     1      26.976  28.582  36.332  1.00  0.00     0.022 A 
HETATM   11  I   LIG     1      27.751  26.622  36.589  1.00  0.00    -0.043 I 
ENDBRANCH   2   5
BRANCH   3  12
HETATM   12  C   LIG     1      27.004  26.939  31.936  1.00  0.00     0.035 A 
HETATM   13  C   LIG     1      27.124  27.485  30.644  1.00  0.00     0.029 A 
HETATM   14  C   LIG     1      27.597  26.699  29.589  1.00  0.00     0.002 A 
HETATM   15  C   LIG     1      27.965  25.370  29.814  1.00  0.00     0.000 A 
HETATM   16  C   LIG     1      27.870  24.827  31.098  1.00  0.00     0.002 A 
HETATM   17  C   LIG     1      27.399  25.610  32.156  1.00  0.00     0.029 A 
ENDBRANCH   3  12
TORSDOF 2
ENDMDL
