REMARK  4 active torsions:
REMARK  status: ('A' for Active; 'I' for Inactive)
REMARK    1  A    between atoms: C_2  and  C_3 
REMARK    2  A    between atoms: C_3  and  C_7 
REMARK    3  A    between atoms: C_3  and  C_4 
REMARK    4  A    between atoms: C_7  and  C_8 
ROOT
HETATM    1  C   LIG     1      -0.489   0.335  -0.103  1.00  0.00     0.124 C 
ENDROOT
BRANCH   1   2
HETATM    2  C   LIG     1      -1.266   1.609  -0.346  1.00  0.00     0.134 C 
HETATM    3  C   LIG     1      -1.522   2.565   0.780  1.00  0.00     0.091 C 
HETATM    4  O   LIG     1      -1.685   1.869  -1.465  1.00  0.00    -0.298 OA
ENDBRANCH   1   2
BRANCH   1   5
HETATM    5  C   LIG     1       0.780   0.301  -0.979  1.00  0.00     0.019 C 
BRANCH   5   6
HETATM    6  C   LIG     1       1.699  -0.876  -0.618  1.00  0.00    -0.003 C 
HETATM    7  C   LIG     1       2.971  -0.860  -1.461  1.00  0.00     0.005 C 
ENDBRANCH   5   6
ENDBRANCH   1   5
BRANCH   1   8
HETATM    8  C   LIG     1      -1.377  -0.865  -0.358  1.00  0.00     0.134 C 
HETATM    9  C   LIG     1      -1.740  -1.815   0.746  1.00  0.00     0.091 C 
HETATM   10  O   LIG     1      -1.811  -1.075  -1.482  1.00  0.00    -0.298 OA
ENDBRANCH   1   8
TORSDOF 4
