MODEL 1
REMARK VINA RESULT:      -5.6      0.000      0.000
REMARK  4 active torsions:
REMARK  status: ('A' for Active; 'I' for Inactive)
REMARK    1  A    between atoms: C_2  and  C_3 
REMARK    2  A    between atoms: C_3  and  C_7 
REMARK    3  A    between atoms: C_3  and  C_4 
REMARK    4  A    between atoms: C_7  and  C_8 
ROOT
HETATM    1  C   LIG     1      17.403  36.601  23.700  1.00  0.00     0.124 C 
ENDROOT
BRANCH   1   2
HETATM    2  C   LIG     1      16.559  37.821  23.403  1.00  0.00     0.134 C 
HETATM    3  C   LIG     1      17.148  38.987  22.668  1.00  0.00     0.091 C 
HETATM    4  O   LIG     1      15.390  37.859  23.757  1.00  0.00    -0.298 OA
ENDBRANCH   1   2
BRANCH   1   5
HETATM    5  C   LIG     1      16.838  35.364  22.973  1.00  0.00     0.019 C 
BRANCH   5   6
HETATM    6  C   LIG     1      16.997  35.468  21.449  1.00  0.00    -0.003 C 
HETATM    7  C   LIG     1      15.646  35.366  20.746  1.00  0.00     0.005 C 
ENDBRANCH   5   6
ENDBRANCH   1   5
BRANCH   1   8
HETATM    8  C   LIG     1      17.482  36.383  25.197  1.00  0.00     0.134 C 
HETATM    9  C   LIG     1      17.443  35.003  25.786  1.00  0.00     0.091 C 
HETATM   10  O   LIG     1      17.577  37.343  25.949  1.00  0.00    -0.298 OA
ENDBRANCH   1   8
TORSDOF 4
ENDMDL
MODEL 2
REMARK VINA RESULT:      -5.6      1.576      3.764
REMARK  4 active torsions:
REMARK  status: ('A' for Active; 'I' for Inactive)
REMARK    1  A    between atoms: C_2  and  C_3 
REMARK    2  A    between atoms: C_3  and  C_7 
REMARK    3  A    between atoms: C_3  and  C_4 
REMARK    4  A    between atoms: C_7  and  C_8 
ROOT
HETATM    1  C   LIG     1      17.409  37.385  23.355  1.00  0.00     0.124 C 
ENDROOT
BRANCH   1   2
HETATM    2  C   LIG     1      16.532  36.469  22.533  1.00  0.00     0.134 C 
HETATM    3  C   LIG     1      17.014  35.102  22.149  1.00  0.00     0.091 C 
HETATM    4  O   LIG     1      15.420  36.837  22.180  1.00  0.00    -0.298 OA
ENDBRANCH   1   2
BRANCH   1   5
HETATM    5  C   LIG     1      16.988  37.346  24.839  1.00  0.00     0.019 C 
BRANCH   5   6
HETATM    6  C   LIG     1      18.047  36.668  25.722  1.00  0.00    -0.003 C 
HETATM    7  C   LIG     1      17.758  35.178  25.882  1.00  0.00     0.005 C 
ENDBRANCH   5   6
ENDBRANCH   1   5
BRANCH   1   8
HETATM    8  C   LIG     1      17.354  38.790  22.795  1.00  0.00     0.134 C 
HETATM    9  C   LIG     1      18.266  39.223  21.684  1.00  0.00     0.091 C 
HETATM   10  O   LIG     1      16.555  39.598  23.249  1.00  0.00    -0.298 OA
ENDBRANCH   1   8
TORSDOF 4
ENDMDL
MODEL 3
REMARK VINA RESULT:      -5.5      1.487      3.573
REMARK  4 active torsions:
REMARK  status: ('A' for Active; 'I' for Inactive)
REMARK    1  A    between atoms: C_2  and  C_3 
REMARK    2  A    between atoms: C_3  and  C_7 
REMARK    3  A    between atoms: C_3  and  C_4 
REMARK    4  A    between atoms: C_7  and  C_8 
ROOT
HETATM    1  C   LIG     1      17.196  37.207  22.715  1.00  0.00     0.124 C 
ENDROOT
BRANCH   1   2
HETATM    2  C   LIG     1      16.991  37.164  24.213  1.00  0.00     0.134 C 
HETATM    3  C   LIG     1      17.431  35.969  25.003  1.00  0.00     0.091 C 
HETATM    4  O   LIG     1      16.468  38.108  24.788  1.00  0.00    -0.298 OA
ENDBRANCH   1   2
BRANCH   1   5
HETATM    5  C   LIG     1      17.124  38.659  22.202  1.00  0.00     0.019 C 
BRANCH   5   6
HETATM    6  C   LIG     1      18.517  39.240  21.915  1.00  0.00    -0.003 C 
HETATM    7  C   LIG     1      18.803  39.270  20.416  1.00  0.00     0.005 C 
ENDBRANCH   5   6
ENDBRANCH   1   5
BRANCH   1   8
HETATM    8  C   LIG     1      16.177  36.320  22.031  1.00  0.00     0.134 C 
HETATM    9  C   LIG     1      16.571  35.007  21.419  1.00  0.00     0.091 C 
HETATM   10  O   LIG     1      15.007  36.671  21.969  1.00  0.00    -0.298 OA
ENDBRANCH   1   8
TORSDOF 4
ENDMDL
MODEL 4
REMARK VINA RESULT:      -5.5      1.090      2.945
REMARK  4 active torsions:
REMARK  status: ('A' for Active; 'I' for Inactive)
REMARK    1  A    between atoms: C_2  and  C_3 
REMARK    2  A    between atoms: C_3  and  C_7 
REMARK    3  A    between atoms: C_3  and  C_4 
REMARK    4  A    between atoms: C_7  and  C_8 
ROOT
HETATM    1  C   LIG     1      16.542  37.209  23.626  1.00  0.00     0.124 C 
ENDROOT
BRANCH   1   2
HETATM    2  C   LIG     1      17.192  37.477  24.964  1.00  0.00     0.134 C 
HETATM    3  C   LIG     1      17.929  36.385  25.680  1.00  0.00     0.091 C 
HETATM    4  O   LIG     1      17.125  38.590  25.467  1.00  0.00    -0.298 OA
ENDBRANCH   1   2
BRANCH   1   5
HETATM    5  C   LIG     1      17.179  35.976  22.954  1.00  0.00     0.019 C 
BRANCH   5   6
HETATM    6  C   LIG     1      16.175  35.213  22.076  1.00  0.00    -0.003 C 
HETATM    7  C   LIG     1      16.467  35.427  20.593  1.00  0.00     0.005 C 
ENDBRANCH   5   6
ENDBRANCH   1   5
BRANCH   1   8
HETATM    8  C   LIG     1      16.644  38.439  22.749  1.00  0.00     0.134 C 
HETATM    9  C   LIG     1      17.890  38.740  21.969  1.00  0.00     0.091 C 
HETATM   10  O   LIG     1      15.698  39.211  22.668  1.00  0.00    -0.298 OA
ENDBRANCH   1   8
TORSDOF 4
ENDMDL
MODEL 5
REMARK VINA RESULT:      -5.3      2.208      3.628
REMARK  4 active torsions:
REMARK  status: ('A' for Active; 'I' for Inactive)
REMARK    1  A    between atoms: C_2  and  C_3 
REMARK    2  A    between atoms: C_3  and  C_7 
REMARK    3  A    between atoms: C_3  and  C_4 
REMARK    4  A    between atoms: C_7  and  C_8 
ROOT
HETATM    1  C   LIG     1      17.154  37.940  22.106  1.00  0.00     0.124 C 
ENDROOT
BRANCH   1   2
HETATM    2  C   LIG     1      17.246  36.537  21.550  1.00  0.00     0.134 C 
HETATM    3  C   LIG     1      16.351  35.455  22.075  1.00  0.00     0.091 C 
HETATM    4  O   LIG     1      18.048  36.279  20.663  1.00  0.00    -0.298 OA
ENDBRANCH   1   2
BRANCH   1   5
HETATM    5  C   LIG     1      18.507  38.667  21.963  1.00  0.00     0.019 C 
BRANCH   5   6
HETATM    6  C   LIG     1      18.615  39.429  20.634  1.00  0.00    -0.003 C 
HETATM    7  C   LIG     1      19.887  39.048  19.883  1.00  0.00     0.005 C 
ENDBRANCH   5   6
ENDBRANCH   1   5
BRANCH   1   8
HETATM    8  C   LIG     1      16.695  37.892  23.549  1.00  0.00     0.134 C 
HETATM    9  C   LIG     1      17.662  37.630  24.667  1.00  0.00     0.091 C 
HETATM   10  O   LIG     1      15.515  38.066  23.819  1.00  0.00    -0.298 OA
ENDBRANCH   1   8
TORSDOF 4
ENDMDL
MODEL 6
REMARK VINA RESULT:      -5.1      2.138      3.319
REMARK  4 active torsions:
REMARK  status: ('A' for Active; 'I' for Inactive)
REMARK    1  A    between atoms: C_2  and  C_3 
REMARK    2  A    between atoms: C_3  and  C_7 
REMARK    3  A    between atoms: C_3  and  C_4 
REMARK    4  A    between atoms: C_7  and  C_8 
ROOT
HETATM    1  C   LIG     1      16.966  37.319  21.889  1.00  0.00     0.124 C 
ENDROOT
BRANCH   1   2
HETATM    2  C   LIG     1      16.906  38.274  23.060  1.00  0.00     0.134 C 
HETATM    3  C   LIG     1      17.786  38.063  24.255  1.00  0.00     0.091 C 
HETATM    4  O   LIG     1      16.142  39.229  23.035  1.00  0.00    -0.298 OA
ENDBRANCH   1   2
BRANCH   1   5
HETATM    5  C   LIG     1      17.115  35.866  22.385  1.00  0.00     0.019 C 
BRANCH   5   6
HETATM    6  C   LIG     1      16.094  34.925  21.727  1.00  0.00    -0.003 C 
HETATM    7  C   LIG     1      14.851  35.688  21.278  1.00  0.00     0.005 C 
ENDBRANCH   5   6
ENDBRANCH   1   5
BRANCH   1   8
HETATM    8  C   LIG     1      18.098  37.713  20.963  1.00  0.00     0.134 C 
HETATM    9  C   LIG     1      18.602  39.126  20.904  1.00  0.00     0.091 C 
HETATM   10  O   LIG     1      18.617  36.872  20.243  1.00  0.00    -0.298 OA
ENDBRANCH   1   8
TORSDOF 4
ENDMDL
MODEL 7
REMARK VINA RESULT:      -5.0      6.686      8.091
REMARK  4 active torsions:
REMARK  status: ('A' for Active; 'I' for Inactive)
REMARK    1  A    between atoms: C_2  and  C_3 
REMARK    2  A    between atoms: C_3  and  C_7 
REMARK    3  A    between atoms: C_3  and  C_4 
REMARK    4  A    between atoms: C_7  and  C_8 
ROOT
HETATM    1  C   LIG     1      14.866  32.235  17.244  1.00  0.00     0.124 C 
ENDROOT
BRANCH   1   2
HETATM    2  C   LIG     1      15.454  33.360  16.422  1.00  0.00     0.134 C 
HETATM    3  C   LIG     1      16.558  33.087  15.445  1.00  0.00     0.091 C 
HETATM    4  O   LIG     1      15.027  34.499  16.546  1.00  0.00    -0.298 OA
ENDBRANCH   1   2
BRANCH   1   5
HETATM    5  C   LIG     1      13.359  32.086  16.955  1.00  0.00     0.019 C 
BRANCH   5   6
HETATM    6  C   LIG     1      13.017  30.708  16.368  1.00  0.00    -0.003 C 
HETATM    7  C   LIG     1      13.883  30.398  15.151  1.00  0.00     0.005 C 
ENDBRANCH   5   6
ENDBRANCH   1   5
BRANCH   1   8
HETATM    8  C   LIG     1      15.133  32.480  18.714  1.00  0.00     0.134 C 
HETATM    9  C   LIG     1      14.804  31.443  19.749  1.00  0.00     0.091 C 
HETATM   10  O   LIG     1      15.624  33.539  19.078  1.00  0.00    -0.298 OA
ENDBRANCH   1   8
TORSDOF 4
ENDMDL
MODEL 8
REMARK VINA RESULT:      -4.8      6.840      8.702
REMARK  4 active torsions:
REMARK  status: ('A' for Active; 'I' for Inactive)
REMARK    1  A    between atoms: C_2  and  C_3 
REMARK    2  A    between atoms: C_3  and  C_7 
REMARK    3  A    between atoms: C_3  and  C_4 
REMARK    4  A    between atoms: C_7  and  C_8 
ROOT
HETATM    1  C   LIG     1      15.208  32.254  17.195  1.00  0.00     0.124 C 
ENDROOT
BRANCH   1   2
HETATM    2  C   LIG     1      13.945  31.616  16.661  1.00  0.00     0.134 C 
HETATM    3  C   LIG     1      14.016  30.623  15.540  1.00  0.00     0.091 C 
HETATM    4  O   LIG     1      12.860  31.904  17.145  1.00  0.00    -0.298 OA
ENDBRANCH   1   2
BRANCH   1   5
HETATM    5  C   LIG     1      14.953  32.876  18.583  1.00  0.00     0.019 C 
BRANCH   5   6
HETATM    6  C   LIG     1      15.693  32.122  19.698  1.00  0.00    -0.003 C 
HETATM    7  C   LIG     1      14.861  30.955  20.221  1.00  0.00     0.005 C 
ENDBRANCH   5   6
ENDBRANCH   1   5
BRANCH   1   8
HETATM    8  C   LIG     1      15.722  33.281  16.208  1.00  0.00     0.134 C 
HETATM    9  C   LIG     1      16.681  32.902  15.118  1.00  0.00     0.091 C 
HETATM   10  O   LIG     1      15.357  34.445  16.293  1.00  0.00    -0.298 OA
ENDBRANCH   1   8
TORSDOF 4
ENDMDL
MODEL 9
REMARK VINA RESULT:      -4.8      7.036      9.418
REMARK  4 active torsions:
REMARK  status: ('A' for Active; 'I' for Inactive)
REMARK    1  A    between atoms: C_2  and  C_3 
REMARK    2  A    between atoms: C_3  and  C_7 
REMARK    3  A    between atoms: C_3  and  C_4 
REMARK    4  A    between atoms: C_7  and  C_8 
ROOT
HETATM    1  C   LIG     1      14.850  32.401  16.010  1.00  0.00     0.124 C 
ENDROOT
BRANCH   1   2
HETATM    2  C   LIG     1      15.147  33.240  17.233  1.00  0.00     0.134 C 
HETATM    3  C   LIG     1      15.156  32.614  18.595  1.00  0.00     0.091 C 
HETATM    4  O   LIG     1      15.387  34.433  17.116  1.00  0.00    -0.298 OA
ENDBRANCH   1   2
BRANCH   1   5
HETATM    5  C   LIG     1      14.284  31.027  16.422  1.00  0.00     0.019 C 
BRANCH   5   6
HETATM    6  C   LIG     1      13.050  30.640  15.593  1.00  0.00    -0.003 C 
HETATM    7  C   LIG     1      13.396  29.577  14.554  1.00  0.00     0.005 C 
ENDBRANCH   5   6
ENDBRANCH   1   5
BRANCH   1   8
HETATM    8  C   LIG     1      16.101  32.261  15.168  1.00  0.00     0.134 C 
HETATM    9  C   LIG     1      16.023  32.080  13.680  1.00  0.00     0.091 C 
HETATM   10  O   LIG     1      17.202  32.291  15.700  1.00  0.00    -0.298 OA
ENDBRANCH   1   8
TORSDOF 4
ENDMDL
MODEL 10
REMARK VINA RESULT:      -4.6      5.779      8.144
REMARK  4 active torsions:
REMARK  status: ('A' for Active; 'I' for Inactive)
REMARK    1  A    between atoms: C_2  and  C_3 
REMARK    2  A    between atoms: C_3  and  C_7 
REMARK    3  A    between atoms: C_3  and  C_4 
REMARK    4  A    between atoms: C_7  and  C_8 
ROOT
HETATM    1  C   LIG     1      14.479  32.691  17.882  1.00  0.00     0.124 C 
ENDROOT
BRANCH   1   2
HETATM    2  C   LIG     1      15.308  32.672  19.147  1.00  0.00     0.134 C 
HETATM    3  C   LIG     1      15.528  33.933  19.926  1.00  0.00     0.091 C 
HETATM    4  O   LIG     1      15.798  31.624  19.545  1.00  0.00    -0.298 OA
ENDBRANCH   1   2
BRANCH   1   5
HETATM    5  C   LIG     1      14.048  31.261  17.498  1.00  0.00     0.019 C 
BRANCH   5   6
HETATM    6  C   LIG     1      12.900  31.259  16.477  1.00  0.00    -0.003 C 
HETATM    7  C   LIG     1      13.202  30.324  15.310  1.00  0.00     0.005 C 
ENDBRANCH   5   6
ENDBRANCH   1   5
BRANCH   1   8
HETATM    8  C   LIG     1      15.258  33.359  16.768  1.00  0.00     0.134 C 
HETATM    9  C   LIG     1      16.189  32.575  15.889  1.00  0.00     0.091 C 
HETATM   10  O   LIG     1      15.136  34.560  16.573  1.00  0.00    -0.298 OA
ENDBRANCH   1   8
TORSDOF 4
ENDMDL
MODEL 11
REMARK VINA RESULT:      -4.4      6.969      9.215
REMARK  4 active torsions:
REMARK  status: ('A' for Active; 'I' for Inactive)
REMARK    1  A    between atoms: C_2  and  C_3 
REMARK    2  A    between atoms: C_3  and  C_7 
REMARK    3  A    between atoms: C_3  and  C_4 
REMARK    4  A    between atoms: C_7  and  C_8 
ROOT
HETATM    1  C   LIG     1      14.948  31.742  16.429  1.00  0.00     0.124 C 
ENDROOT
BRANCH   1   2
HETATM    2  C   LIG     1      14.901  32.995  17.274  1.00  0.00     0.134 C 
HETATM    3  C   LIG     1      15.188  32.927  18.744  1.00  0.00     0.091 C 
HETATM    4  O   LIG     1      14.632  34.072  16.761  1.00  0.00    -0.298 OA
ENDBRANCH   1   2
BRANCH   1   5
HETATM    5  C   LIG     1      15.631  32.029  15.076  1.00  0.00     0.019 C 
BRANCH   5   6
HETATM    6  C   LIG     1      17.138  32.282  15.232  1.00  0.00    -0.003 C 
HETATM    7  C   LIG     1      17.551  33.585  14.553  1.00  0.00     0.005 C 
ENDBRANCH   5   6
ENDBRANCH   1   5
BRANCH   1   8
HETATM    8  C   LIG     1      13.549  31.193  16.244  1.00  0.00     0.134 C 
HETATM    9  C   LIG     1      13.236  30.206  15.158  1.00  0.00     0.091 C 
HETATM   10  O   LIG     1      12.648  31.556  16.988  1.00  0.00    -0.298 OA
ENDBRANCH   1   8
TORSDOF 4
ENDMDL
MODEL 12
REMARK VINA RESULT:      -4.4      7.841      9.991
REMARK  4 active torsions:
REMARK  status: ('A' for Active; 'I' for Inactive)
REMARK    1  A    between atoms: C_2  and  C_3 
REMARK    2  A    between atoms: C_3  and  C_7 
REMARK    3  A    between atoms: C_3  and  C_4 
REMARK    4  A    between atoms: C_7  and  C_8 
ROOT
HETATM    1  C   LIG     1      15.226  32.146  15.191  1.00  0.00     0.124 C 
ENDROOT
BRANCH   1   2
HETATM    2  C   LIG     1      14.944  32.685  16.575  1.00  0.00     0.134 C 
HETATM    3  C   LIG     1      15.090  34.150  16.860  1.00  0.00     0.091 C 
HETATM    4  O   LIG     1      14.591  31.929  17.469  1.00  0.00    -0.298 OA
ENDBRANCH   1   2
BRANCH   1   5
HETATM    5  C   LIG     1      14.865  30.649  15.111  1.00  0.00     0.019 C 
BRANCH   5   6
HETATM    6  C   LIG     1      15.169  30.055  13.727  1.00  0.00    -0.003 C 
HETATM    7  C   LIG     1      15.258  28.532  13.789  1.00  0.00     0.005 C 
ENDBRANCH   5   6
ENDBRANCH   1   5
BRANCH   1   8
HETATM    8  C   LIG     1      16.676  32.391  14.830  1.00  0.00     0.134 C 
HETATM    9  C   LIG     1      17.054  33.126  13.577  1.00  0.00     0.091 C 
HETATM   10  O   LIG     1      17.566  31.985  15.565  1.00  0.00    -0.298 OA
ENDBRANCH   1   8
TORSDOF 4
ENDMDL
MODEL 13
REMARK VINA RESULT:      -4.3      8.447     10.299
REMARK  4 active torsions:
REMARK  status: ('A' for Active; 'I' for Inactive)
REMARK    1  A    between atoms: C_2  and  C_3 
REMARK    2  A    between atoms: C_3  and  C_7 
REMARK    3  A    between atoms: C_3  and  C_4 
REMARK    4  A    between atoms: C_7  and  C_8 
ROOT
HETATM    1  C   LIG     1      15.837  31.768  15.496  1.00  0.00     0.124 C 
ENDROOT
BRANCH   1   2
HETATM    2  C   LIG     1      15.163  30.577  14.854  1.00  0.00     0.134 C 
HETATM    3  C   LIG     1      13.698  30.337  15.057  1.00  0.00     0.091 C 
HETATM    4  O   LIG     1      15.811  29.805  14.161  1.00  0.00    -0.298 OA
ENDBRANCH   1   2
BRANCH   1   5
HETATM    5  C   LIG     1      14.812  32.611  16.282  1.00  0.00     0.019 C 
BRANCH   5   6
HETATM    6  C   LIG     1      15.233  32.815  17.745  1.00  0.00    -0.003 C 
HETATM    7  C   LIG     1      14.592  31.769  18.654  1.00  0.00     0.005 C 
ENDBRANCH   5   6
ENDBRANCH   1   5
BRANCH   1   8
HETATM    8  C   LIG     1      16.543  32.591  14.438  1.00  0.00     0.134 C 
HETATM    9  C   LIG     1      17.895  33.191  14.691  1.00  0.00     0.091 C 
HETATM   10  O   LIG     1      16.009  32.778  13.354  1.00  0.00    -0.298 OA
ENDBRANCH   1   8
TORSDOF 4
ENDMDL
MODEL 14
REMARK VINA RESULT:      -4.3      8.256     10.144
REMARK  4 active torsions:
REMARK  status: ('A' for Active; 'I' for Inactive)
REMARK    1  A    between atoms: C_2  and  C_3 
REMARK    2  A    between atoms: C_3  and  C_7 
REMARK    3  A    between atoms: C_3  and  C_4 
REMARK    4  A    between atoms: C_7  and  C_8 
ROOT
HETATM    1  C   LIG     1      15.298  32.072  15.256  1.00  0.00     0.124 C 
ENDROOT
BRANCH   1   2
HETATM    2  C   LIG     1      16.389  32.648  14.383  1.00  0.00     0.134 C 
HETATM    3  C   LIG     1      17.750  32.918  14.953  1.00  0.00     0.091 C 
HETATM    4  O   LIG     1      16.170  32.892  13.205  1.00  0.00    -0.298 OA
ENDBRANCH   1   2
BRANCH   1   5
HETATM    5  C   LIG     1      15.702  32.142  16.743  1.00  0.00     0.019 C 
BRANCH   5   6
HETATM    6  C   LIG     1      14.479  32.198  17.671  1.00  0.00    -0.003 C 
HETATM    7  C   LIG     1      14.881  31.975  19.126  1.00  0.00     0.005 C 
ENDBRANCH   5   6
ENDBRANCH   1   5
BRANCH   1   8
HETATM    8  C   LIG     1      14.992  30.653  14.826  1.00  0.00     0.134 C 
HETATM    9  C   LIG     1      13.598  30.099  14.900  1.00  0.00     0.091 C 
HETATM   10  O   LIG     1      15.890  29.934  14.410  1.00  0.00    -0.298 OA
ENDBRANCH   1   8
TORSDOF 4
ENDMDL
MODEL 15
REMARK VINA RESULT:      -4.3      7.480      9.263
REMARK  4 active torsions:
REMARK  status: ('A' for Active; 'I' for Inactive)
REMARK    1  A    between atoms: C_2  and  C_3 
REMARK    2  A    between atoms: C_3  and  C_7 
REMARK    3  A    between atoms: C_3  and  C_4 
REMARK    4  A    between atoms: C_7  and  C_8 
ROOT
HETATM    1  C   LIG     1      15.248  31.946  16.286  1.00  0.00     0.124 C 
ENDROOT
BRANCH   1   2
HETATM    2  C   LIG     1      15.629  33.408  16.327  1.00  0.00     0.134 C 
HETATM    3  C   LIG     1      15.008  34.323  17.339  1.00  0.00     0.091 C 
HETATM    4  O   LIG     1      16.452  33.851  15.538  1.00  0.00    -0.298 OA
ENDBRANCH   1   2
BRANCH   1   5
HETATM    5  C   LIG     1      15.004  31.492  14.832  1.00  0.00     0.019 C 
BRANCH   5   6
HETATM    6  C   LIG     1      15.111  29.967  14.678  1.00  0.00    -0.003 C 
HETATM    7  C   LIG     1      13.778  29.362  14.247  1.00  0.00     0.005 C 
ENDBRANCH   5   6
ENDBRANCH   1   5
BRANCH   1   8
HETATM    8  C   LIG     1      14.033  31.707  17.158  1.00  0.00     0.134 C 
HETATM    9  C   LIG     1      12.644  31.957  16.645  1.00  0.00     0.091 C 
HETATM   10  O   LIG     1      14.174  31.304  18.304  1.00  0.00    -0.298 OA
ENDBRANCH   1   8
TORSDOF 4
ENDMDL
MODEL 16
REMARK VINA RESULT:      -4.2      8.578     10.837
REMARK  4 active torsions:
REMARK  status: ('A' for Active; 'I' for Inactive)
REMARK    1  A    between atoms: C_2  and  C_3 
REMARK    2  A    between atoms: C_3  and  C_7 
REMARK    3  A    between atoms: C_3  and  C_4 
REMARK    4  A    between atoms: C_7  and  C_8 
ROOT
HETATM    1  C   LIG     1      15.318  31.037  15.324  1.00  0.00     0.124 C 
ENDROOT
BRANCH   1   2
HETATM    2  C   LIG     1      14.957  29.781  14.565  1.00  0.00     0.134 C 
HETATM    3  C   LIG     1      13.521  29.457  14.279  1.00  0.00     0.091 C 
HETATM    4  O   LIG     1      15.835  29.024  14.176  1.00  0.00    -0.298 OA
ENDBRANCH   1   2
BRANCH   1   5
HETATM    5  C   LIG     1      14.050  31.716  15.881  1.00  0.00     0.019 C 
BRANCH   5   6
HETATM    6  C   LIG     1      13.972  31.623  17.413  1.00  0.00    -0.003 C 
HETATM    7  C   LIG     1      15.019  32.515  18.073  1.00  0.00     0.005 C 
ENDBRANCH   5   6
ENDBRANCH   1   5
BRANCH   1   8
HETATM    8  C   LIG     1      16.104  31.971  14.427  1.00  0.00     0.134 C 
HETATM    9  C   LIG     1      17.236  32.798  14.963  1.00  0.00     0.091 C 
HETATM   10  O   LIG     1      15.818  32.062  13.241  1.00  0.00    -0.298 OA
ENDBRANCH   1   8
TORSDOF 4
ENDMDL
MODEL 17
REMARK VINA RESULT:      -4.1      7.509      9.557
REMARK  4 active torsions:
REMARK  status: ('A' for Active; 'I' for Inactive)
REMARK    1  A    between atoms: C_2  and  C_3 
REMARK    2  A    between atoms: C_3  and  C_7 
REMARK    3  A    between atoms: C_3  and  C_4 
REMARK    4  A    between atoms: C_7  and  C_8 
ROOT
HETATM    1  C   LIG     1      15.284  32.338  15.482  1.00  0.00     0.124 C 
ENDROOT
BRANCH   1   2
HETATM    2  C   LIG     1      14.534  31.025  15.453  1.00  0.00     0.134 C 
HETATM    3  C   LIG     1      13.159  30.927  16.041  1.00  0.00     0.091 C 
HETATM    4  O   LIG     1      15.044  30.038  14.943  1.00  0.00    -0.298 OA
ENDBRANCH   1   2
BRANCH   1   5
HETATM    5  C   LIG     1      16.797  32.100  15.304  1.00  0.00     0.019 C 
BRANCH   5   6
HETATM    6  C   LIG     1      17.517  33.343  14.760  1.00  0.00    -0.003 C 
HETATM    7  C   LIG     1      17.546  33.340  13.234  1.00  0.00     0.005 C 
ENDBRANCH   5   6
ENDBRANCH   1   5
BRANCH   1   8
HETATM    8  C   LIG     1      14.981  33.074  16.771  1.00  0.00     0.134 C 
HETATM    9  C   LIG     1      15.192  32.425  18.107  1.00  0.00     0.091 C 
HETATM   10  O   LIG     1      14.555  34.220  16.733  1.00  0.00    -0.298 OA
ENDBRANCH   1   8
TORSDOF 4
ENDMDL
MODEL 18
REMARK VINA RESULT:      -4.1      8.602     10.729
REMARK  4 active torsions:
REMARK  status: ('A' for Active; 'I' for Inactive)
REMARK    1  A    between atoms: C_2  and  C_3 
REMARK    2  A    between atoms: C_3  and  C_7 
REMARK    3  A    between atoms: C_3  and  C_4 
REMARK    4  A    between atoms: C_7  and  C_8 
ROOT
HETATM    1  C   LIG     1      14.502  31.172  15.066  1.00  0.00     0.124 C 
ENDROOT
BRANCH   1   2
HETATM    2  C   LIG     1      14.153  29.827  14.470  1.00  0.00     0.134 C 
HETATM    3  C   LIG     1      15.238  28.872  14.071  1.00  0.00     0.091 C 
HETATM    4  O   LIG     1      12.983  29.509  14.315  1.00  0.00    -0.298 OA
ENDBRANCH   1   2
BRANCH   1   5
HETATM    5  C   LIG     1      16.016  31.439  14.946  1.00  0.00     0.019 C 
BRANCH   5   6
HETATM    6  C   LIG     1      16.330  32.517  13.897  1.00  0.00    -0.003 C 
HETATM    7  C   LIG     1      17.596  33.288  14.261  1.00  0.00     0.005 C 
ENDBRANCH   5   6
ENDBRANCH   1   5
BRANCH   1   8
HETATM    8  C   LIG     1      14.036  31.231  16.506  1.00  0.00     0.134 C 
HETATM    9  C   LIG     1      14.558  32.273  17.452  1.00  0.00     0.091 C 
HETATM   10  O   LIG     1      13.219  30.419  16.917  1.00  0.00    -0.298 OA
ENDBRANCH   1   8
TORSDOF 4
ENDMDL
MODEL 19
REMARK VINA RESULT:      -3.9      9.197     10.580
REMARK  4 active torsions:
REMARK  status: ('A' for Active; 'I' for Inactive)
REMARK    1  A    between atoms: C_2  and  C_3 
REMARK    2  A    between atoms: C_3  and  C_7 
REMARK    3  A    between atoms: C_3  and  C_4 
REMARK    4  A    between atoms: C_7  and  C_8 
ROOT
HETATM    1  C   LIG     1      15.481  31.428  15.485  1.00  0.00     0.124 C 
ENDROOT
BRANCH   1   2
HETATM    2  C   LIG     1      14.114  31.547  16.121  1.00  0.00     0.134 C 
HETATM    3  C   LIG     1      13.033  30.568  15.778  1.00  0.00     0.091 C 
HETATM    4  O   LIG     1      13.886  32.441  16.924  1.00  0.00    -0.298 OA
ENDBRANCH   1   2
BRANCH   1   5
HETATM    5  C   LIG     1      16.110  32.823  15.292  1.00  0.00     0.019 C 
BRANCH   5   6
HETATM    6  C   LIG     1      17.628  32.745  15.066  1.00  0.00    -0.003 C 
HETATM    7  C   LIG     1      18.053  33.603  13.878  1.00  0.00     0.005 C 
ENDBRANCH   5   6
ENDBRANCH   1   5
BRANCH   1   8
HETATM    8  C   LIG     1      15.374  30.676  14.175  1.00  0.00     0.134 C 
HETATM    9  C   LIG     1      15.413  29.176  14.131  1.00  0.00     0.091 C 
HETATM   10  O   LIG     1      15.256  31.293  13.125  1.00  0.00    -0.298 OA
ENDBRANCH   1   8
TORSDOF 4
ENDMDL
MODEL 20
REMARK VINA RESULT:      -3.6      2.192      3.392
REMARK  4 active torsions:
REMARK  status: ('A' for Active; 'I' for Inactive)
REMARK    1  A    between atoms: C_2  and  C_3 
REMARK    2  A    between atoms: C_3  and  C_7 
REMARK    3  A    between atoms: C_3  and  C_4 
REMARK    4  A    between atoms: C_7  and  C_8 
ROOT
HETATM    1  C   LIG     1      17.180  37.804  22.260  1.00  0.00     0.124 C 
ENDROOT
BRANCH   1   2
HETATM    2  C   LIG     1      17.105  37.157  23.625  1.00  0.00     0.134 C 
HETATM    3  C   LIG     1      16.945  38.000  24.854  1.00  0.00     0.091 C 
HETATM    4  O   LIG     1      17.170  35.941  23.732  1.00  0.00    -0.298 OA
ENDBRANCH   1   2
BRANCH   1   5
HETATM    5  C   LIG     1      17.281  36.730  21.158  1.00  0.00     0.019 C 
BRANCH   5   6
HETATM    6  C   LIG     1      18.643  36.758  20.449  1.00  0.00    -0.003 C 
HETATM    7  C   LIG     1      18.475  36.895  18.938  1.00  0.00     0.005 C 
ENDBRANCH   5   6
ENDBRANCH   1   5
BRANCH   1   8
HETATM    8  C   LIG     1      18.347  38.767  22.211  1.00  0.00     0.134 C 
HETATM    9  C   LIG     1      18.521  39.725  21.068  1.00  0.00     0.091 C 
HETATM   10  O   LIG     1      19.172  38.773  23.114  1.00  0.00    -0.298 OA
ENDBRANCH   1   8
TORSDOF 4
ENDMDL
