REMARK  1 active torsions:
REMARK  status: ('A' for Active; 'I' for Inactive)
REMARK    1  A    between atoms: C_2  and  C_3 
ROOT
HETATM    1  C   LIG     1      -0.050   0.213   0.531  1.00  0.00     0.178 A 
HETATM    2  N   LIG     1      -1.121  -0.618   1.079  1.00  0.00    -0.330 N 
HETATM    3  C   LIG     1      -2.300  -0.378   0.324  1.00  0.00     0.323 A 
HETATM    4  O   LIG     1      -3.400  -0.944   0.556  1.00  0.00    -0.247 OA
HETATM    5  N   LIG     1      -2.114   0.570  -0.708  1.00  0.00    -0.278 N 
HETATM    6  C   LIG     1      -0.752   0.949  -0.581  1.00  0.00     0.248 A 
HETATM    7  O   LIG     1      -0.224   1.841  -1.296  1.00  0.00    -0.271 OA
HETATM    8  H   LIG     1      -1.043  -1.259   1.900  1.00  0.00     0.165 HD
HETATM    9  H   LIG     1      -2.826   0.942  -1.375  1.00  0.00     0.173 HD
ENDROOT
BRANCH   1  10
HETATM   10  C   LIG     1       1.096  -0.677   0.023  1.00  0.00     0.030 C 
HETATM   11  C   LIG     1       2.334   0.130  -0.363  1.00  0.00     0.007 C 
ENDBRANCH   1  10
TORSDOF 1
