MODEL 1
REMARK VINA RESULT:      -5.3      0.000      0.000
REMARK  1 active torsions:
REMARK  status: ('A' for Active; 'I' for Inactive)
REMARK    1  A    between atoms: C_2  and  C_3 
ROOT
HETATM    1  C   LIG     1      16.759  37.630  22.348  1.00  0.00     0.178 A 
HETATM    2  N   LIG     1      16.803  38.651  23.394  1.00  0.00    -0.330 N 
HETATM    3  C   LIG     1      17.041  38.005  24.636  1.00  0.00     0.323 A 
HETATM    4  O   LIG     1      17.128  38.618  25.732  1.00  0.00    -0.247 OA
HETATM    5  N   LIG     1      17.160  36.601  24.517  1.00  0.00    -0.278 N 
HETATM    6  C   LIG     1      16.973  36.360  23.131  1.00  0.00     0.248 A 
HETATM    7  O   LIG     1      16.943  35.201  22.640  1.00  0.00    -0.271 OA
HETATM    8  H   LIG     1      16.658  39.677  23.258  1.00  0.00     0.165 HD
HETATM    9  H   LIG     1      17.301  35.901  25.279  1.00  0.00     0.173 HD
ENDROOT
BRANCH   1  10
HETATM   10  C   LIG     1      17.871  37.887  21.318  1.00  0.00     0.030 C 
HETATM   11  C   LIG     1      18.464  39.290  21.438  1.00  0.00     0.007 C 
ENDBRANCH   1  10
TORSDOF 1
ENDMDL
MODEL 2
REMARK VINA RESULT:      -5.2      1.885      4.055
REMARK  1 active torsions:
REMARK  status: ('A' for Active; 'I' for Inactive)
REMARK    1  A    between atoms: C_2  and  C_3 
ROOT
HETATM    1  C   LIG     1      17.037  36.338  25.000  1.00  0.00     0.178 A 
HETATM    2  N   LIG     1      17.089  35.276  23.996  1.00  0.00    -0.330 N 
HETATM    3  C   LIG     1      17.099  35.881  22.711  1.00  0.00     0.323 A 
HETATM    4  O   LIG     1      17.136  35.227  21.636  1.00  0.00    -0.247 OA
HETATM    5  N   LIG     1      17.051  37.293  22.762  1.00  0.00    -0.278 N 
HETATM    6  C   LIG     1      16.997  37.582  24.151  1.00  0.00     0.248 A 
HETATM    7  O   LIG     1      16.876  38.752  24.599  1.00  0.00    -0.271 OA
HETATM    8  H   LIG     1      17.093  34.249  24.186  1.00  0.00     0.165 HD
HETATM    9  H   LIG     1      17.013  37.964  21.963  1.00  0.00     0.173 HD
ENDROOT
BRANCH   1  10
HETATM   10  C   LIG     1      18.284  36.272  25.898  1.00  0.00     0.030 C 
HETATM   11  C   LIG     1      18.541  34.866  26.436  1.00  0.00     0.007 C 
ENDBRANCH   1  10
TORSDOF 1
ENDMDL
MODEL 3
REMARK VINA RESULT:      -5.1      7.629      8.410
REMARK  1 active torsions:
REMARK  status: ('A' for Active; 'I' for Inactive)
REMARK    1  A    between atoms: C_2  and  C_3 
ROOT
HETATM    1  C   LIG     1      14.631  32.579  16.542  1.00  0.00     0.178 A 
HETATM    2  N   LIG     1      15.543  33.092  17.563  1.00  0.00    -0.330 N 
HETATM    3  C   LIG     1      15.225  32.465  18.798  1.00  0.00     0.323 A 
HETATM    4  O   LIG     1      15.833  32.703  19.874  1.00  0.00    -0.247 OA
HETATM    5  N   LIG     1      14.148  31.556  18.696  1.00  0.00    -0.278 N 
HETATM    6  C   LIG     1      13.767  31.629  17.331  1.00  0.00     0.248 A 
HETATM    7  O   LIG     1      12.782  31.000  16.864  1.00  0.00    -0.271 OA
HETATM    8  H   LIG     1      16.285  33.813  17.419  1.00  0.00     0.165 HD
HETATM    9  H   LIG     1      13.703  30.999  19.459  1.00  0.00     0.173 HD
ENDROOT
BRANCH   1  10
HETATM   10  C   LIG     1      15.430  31.874  15.433  1.00  0.00     0.030 C 
HETATM   11  C   LIG     1      16.862  32.394  15.325  1.00  0.00     0.007 C 
ENDBRANCH   1  10
TORSDOF 1
ENDMDL
MODEL 4
REMARK VINA RESULT:      -4.9      6.935      7.862
REMARK  1 active torsions:
REMARK  status: ('A' for Active; 'I' for Inactive)
REMARK    1  A    between atoms: C_2  and  C_3 
ROOT
HETATM    1  C   LIG     1      14.704  32.430  17.433  1.00  0.00     0.178 A 
HETATM    2  N   LIG     1      14.711  32.202  18.878  1.00  0.00    -0.330 N 
HETATM    3  C   LIG     1      15.130  33.401  19.514  1.00  0.00     0.323 A 
HETATM    4  O   LIG     1      15.243  33.521  20.762  1.00  0.00    -0.247 OA
HETATM    5  N   LIG     1      15.418  34.442  18.602  1.00  0.00    -0.278 N 
HETATM    6  C   LIG     1      15.178  33.857  17.331  1.00  0.00     0.248 A 
HETATM    7  O   LIG     1      15.394  34.465  16.250  1.00  0.00    -0.271 OA
HETATM    8  H   LIG     1      14.475  31.307  19.360  1.00  0.00     0.165 HD
HETATM    9  H   LIG     1      15.774  35.400  18.812  1.00  0.00     0.173 HD
ENDROOT
BRANCH   1  10
HETATM   10  C   LIG     1      13.283  32.236  16.879  1.00  0.00     0.030 C 
HETATM   11  C   LIG     1      13.085  30.858  16.250  1.00  0.00     0.007 C 
ENDBRANCH   1  10
TORSDOF 1
ENDMDL
MODEL 5
REMARK VINA RESULT:      -4.9      2.209      3.315
REMARK  1 active torsions:
REMARK  status: ('A' for Active; 'I' for Inactive)
REMARK    1  A    between atoms: C_2  and  C_3 
ROOT
HETATM    1  C   LIG     1      17.493  37.613  22.189  1.00  0.00     0.178 A 
HETATM    2  N   LIG     1      17.667  36.647  21.105  1.00  0.00    -0.330 N 
HETATM    3  C   LIG     1      16.450  35.933  20.946  1.00  0.00     0.323 A 
HETATM    4  O   LIG     1      16.285  35.024  20.091  1.00  0.00    -0.247 OA
HETATM    5  N   LIG     1      15.446  36.339  21.855  1.00  0.00    -0.278 N 
HETATM    6  C   LIG     1      16.075  37.350  22.628  1.00  0.00     0.248 A 
HETATM    7  O   LIG     1      15.508  37.915  23.600  1.00  0.00    -0.271 OA
HETATM    8  H   LIG     1      18.543  36.489  20.558  1.00  0.00     0.165 HD
HETATM    9  H   LIG     1      14.483  35.950  21.965  1.00  0.00     0.173 HD
ENDROOT
BRANCH   1  10
HETATM   10  C   LIG     1      17.694  39.041  21.657  1.00  0.00     0.030 C 
HETATM   11  C   LIG     1      18.956  39.173  20.807  1.00  0.00     0.007 C 
ENDBRANCH   1  10
TORSDOF 1
ENDMDL
MODEL 6
REMARK VINA RESULT:      -4.9      2.082      3.063
REMARK  1 active torsions:
REMARK  status: ('A' for Active; 'I' for Inactive)
REMARK    1  A    between atoms: C_2  and  C_3 
ROOT
HETATM    1  C   LIG     1      16.877  36.725  22.945  1.00  0.00     0.178 A 
HETATM    2  N   LIG     1      17.120  35.419  23.556  1.00  0.00    -0.330 N 
HETATM    3  C   LIG     1      17.254  35.603  24.958  1.00  0.00     0.323 A 
HETATM    4  O   LIG     1      17.475  34.661  25.764  1.00  0.00    -0.247 OA
HETATM    5  N   LIG     1      17.125  36.954  25.355  1.00  0.00    -0.278 N 
HETATM    6  C   LIG     1      16.912  37.648  24.135  1.00  0.00     0.248 A 
HETATM    7  O   LIG     1      16.816  38.902  24.074  1.00  0.00    -0.271 OA
HETATM    8  H   LIG     1      17.206  34.510  23.050  1.00  0.00     0.165 HD
HETATM    9  H   LIG     1      17.216  37.353  26.315  1.00  0.00     0.173 HD
ENDROOT
BRANCH   1  10
HETATM   10  C   LIG     1      15.515  36.725  22.233  1.00  0.00     0.030 C 
HETATM   11  C   LIG     1      15.340  35.521  21.309  1.00  0.00     0.007 C 
ENDBRANCH   1  10
TORSDOF 1
ENDMDL
MODEL 7
REMARK VINA RESULT:      -4.9      7.998      9.218
REMARK  1 active torsions:
REMARK  status: ('A' for Active; 'I' for Inactive)
REMARK    1  A    between atoms: C_2  and  C_3 
ROOT
HETATM    1  C   LIG     1      14.719  32.707  18.005  1.00  0.00     0.178 A 
HETATM    2  N   LIG     1      13.510  31.889  17.929  1.00  0.00    -0.330 N 
HETATM    3  C   LIG     1      13.515  31.204  16.684  1.00  0.00     0.323 A 
HETATM    4  O   LIG     1      12.600  30.421  16.319  1.00  0.00    -0.247 OA
HETATM    5  N   LIG     1      14.648  31.502  15.892  1.00  0.00    -0.278 N 
HETATM    6  C   LIG     1      15.380  32.429  16.679  1.00  0.00     0.248 A 
HETATM    7  O   LIG     1      16.435  32.983  16.273  1.00  0.00    -0.271 OA
HETATM    8  H   LIG     1      12.758  31.834  18.651  1.00  0.00     0.165 HD
HETATM    9  H   LIG     1      14.869  31.158  14.931  1.00  0.00     0.173 HD
ENDROOT
BRANCH   1  10
HETATM   10  C   LIG     1      15.578  32.265  19.201  1.00  0.00     0.030 C 
HETATM   11  C   LIG     1      14.861  31.250  20.089  1.00  0.00     0.007 C 
ENDBRANCH   1  10
TORSDOF 1
ENDMDL
MODEL 8
REMARK VINA RESULT:      -4.9      2.691      3.957
REMARK  1 active torsions:
REMARK  status: ('A' for Active; 'I' for Inactive)
REMARK    1  A    between atoms: C_2  and  C_3 
ROOT
HETATM    1  C   LIG     1      17.288  37.701  21.566  1.00  0.00     0.178 A 
HETATM    2  N   LIG     1      18.364  37.756  20.576  1.00  0.00    -0.330 N 
HETATM    3  C   LIG     1      19.095  38.956  20.781  1.00  0.00     0.323 A 
HETATM    4  O   LIG     1      20.085  39.294  20.081  1.00  0.00    -0.247 OA
HETATM    5  N   LIG     1      18.591  39.738  21.846  1.00  0.00    -0.278 N 
HETATM    6  C   LIG     1      17.480  38.991  22.320  1.00  0.00     0.248 A 
HETATM    7  O   LIG     1      16.723  39.405  23.237  1.00  0.00    -0.271 OA
HETATM    8  H   LIG     1      18.549  37.049  19.830  1.00  0.00     0.165 HD
HETATM    9  H   LIG     1      18.926  40.671  22.173  1.00  0.00     0.173 HD
ENDROOT
BRANCH   1  10
HETATM   10  C   LIG     1      17.460  36.460  22.457  1.00  0.00     0.030 C 
HETATM   11  C   LIG     1      16.916  35.192  21.803  1.00  0.00     0.007 C 
ENDBRANCH   1  10
TORSDOF 1
ENDMDL
MODEL 9
REMARK VINA RESULT:      -4.7      2.394      3.859
REMARK  1 active torsions:
REMARK  status: ('A' for Active; 'I' for Inactive)
REMARK    1  A    between atoms: C_2  and  C_3 
ROOT
HETATM    1  C   LIG     1      17.239  38.316  22.426  1.00  0.00     0.178 A 
HETATM    2  N   LIG     1      16.677  36.992  22.165  1.00  0.00    -0.330 N 
HETATM    3  C   LIG     1      17.303  36.464  21.004  1.00  0.00     0.323 A 
HETATM    4  O   LIG     1      17.028  35.336  20.519  1.00  0.00    -0.247 OA
HETATM    5  N   LIG     1      18.259  37.341  20.443  1.00  0.00    -0.278 N 
HETATM    6  C   LIG     1      18.217  38.479  21.291  1.00  0.00     0.248 A 
HETATM    7  O   LIG     1      18.893  39.518  21.070  1.00  0.00    -0.271 OA
HETATM    8  H   LIG     1      15.925  36.523  22.718  1.00  0.00     0.165 HD
HETATM    9  H   LIG     1      18.827  37.204  19.577  1.00  0.00     0.173 HD
ENDROOT
BRANCH   1  10
HETATM   10  C   LIG     1      17.921  38.333  23.804  1.00  0.00     0.030 C 
HETATM   11  C   LIG     1      17.038  37.739  24.899  1.00  0.00     0.007 C 
ENDBRANCH   1  10
TORSDOF 1
ENDMDL
MODEL 10
REMARK VINA RESULT:      -4.7      2.355      3.163
REMARK  1 active torsions:
REMARK  status: ('A' for Active; 'I' for Inactive)
REMARK    1  A    between atoms: C_2  and  C_3 
ROOT
HETATM    1  C   LIG     1      17.139  35.931  21.517  1.00  0.00     0.178 A 
HETATM    2  N   LIG     1      16.380  36.151  22.747  1.00  0.00    -0.330 N 
HETATM    3  C   LIG     1      16.499  37.521  23.104  1.00  0.00     0.323 A 
HETATM    4  O   LIG     1      15.958  38.023  24.124  1.00  0.00    -0.247 OA
HETATM    5  N   LIG     1      17.296  38.262  22.201  1.00  0.00    -0.278 N 
HETATM    6  C   LIG     1      17.705  37.300  21.240  1.00  0.00     0.248 A 
HETATM    7  O   LIG     1      18.495  37.573  20.298  1.00  0.00    -0.271 OA
HETATM    8  H   LIG     1      15.861  35.424  23.288  1.00  0.00     0.165 HD
HETATM    9  H   LIG     1      17.563  39.270  22.257  1.00  0.00     0.173 HD
ENDROOT
BRANCH   1  10
HETATM   10  C   LIG     1      16.200  35.440  20.403  1.00  0.00     0.030 C 
HETATM   11  C   LIG     1      15.809  33.974  20.574  1.00  0.00     0.007 C 
ENDBRANCH   1  10
TORSDOF 1
ENDMDL
MODEL 11
REMARK VINA RESULT:      -4.6      9.694     10.804
REMARK  1 active torsions:
REMARK  status: ('A' for Active; 'I' for Inactive)
REMARK    1  A    between atoms: C_2  and  C_3 
ROOT
HETATM    1  C   LIG     1      15.699  32.088  14.263  1.00  0.00     0.178 A 
HETATM    2  N   LIG     1      16.514  32.525  13.130  1.00  0.00    -0.330 N 
HETATM    3  C   LIG     1      17.644  33.220  13.637  1.00  0.00     0.323 A 
HETATM    4  O   LIG     1      18.535  33.724  12.904  1.00  0.00    -0.247 OA
HETATM    5  N   LIG     1      17.661  33.297  15.048  1.00  0.00    -0.278 N 
HETATM    6  C   LIG     1      16.473  32.625  15.440  1.00  0.00     0.248 A 
HETATM    7  O   LIG     1      16.101  32.544  16.640  1.00  0.00    -0.271 OA
HETATM    8  H   LIG     1      16.292  32.376  12.120  1.00  0.00     0.165 HD
HETATM    9  H   LIG     1      18.358  33.779  15.658  1.00  0.00     0.173 HD
ENDROOT
BRANCH   1  10
HETATM   10  C   LIG     1      15.594  30.555  14.273  1.00  0.00     0.030 C 
HETATM   11  C   LIG     1      14.200  30.069  14.665  1.00  0.00     0.007 C 
ENDBRANCH   1  10
TORSDOF 1
ENDMDL
MODEL 12
REMARK VINA RESULT:      -4.6      1.995      2.787
REMARK  1 active torsions:
REMARK  status: ('A' for Active; 'I' for Inactive)
REMARK    1  A    between atoms: C_2  and  C_3 
ROOT
HETATM    1  C   LIG     1      16.856  36.294  21.990  1.00  0.00     0.178 A 
HETATM    2  N   LIG     1      17.524  37.372  22.717  1.00  0.00    -0.330 N 
HETATM    3  C   LIG     1      16.533  38.285  23.166  1.00  0.00     0.323 A 
HETATM    4  O   LIG     1      16.796  39.327  23.822  1.00  0.00    -0.247 OA
HETATM    5  N   LIG     1      15.223  37.910  22.792  1.00  0.00    -0.278 N 
HETATM    6  C   LIG     1      15.409  36.708  22.061  1.00  0.00     0.248 A 
HETATM    7  O   LIG     1      14.461  36.099  21.499  1.00  0.00    -0.271 OA
HETATM    8  H   LIG     1      18.554  37.471  22.862  1.00  0.00     0.165 HD
HETATM    9  H   LIG     1      14.332  38.425  22.968  1.00  0.00     0.173 HD
ENDROOT
BRANCH   1  10
HETATM   10  C   LIG     1      17.124  34.949  22.685  1.00  0.00     0.030 C 
HETATM   11  C   LIG     1      17.160  35.076  24.207  1.00  0.00     0.007 C 
ENDBRANCH   1  10
TORSDOF 1
ENDMDL
MODEL 13
REMARK VINA RESULT:      -4.6      2.919      3.762
REMARK  1 active torsions:
REMARK  status: ('A' for Active; 'I' for Inactive)
REMARK    1  A    between atoms: C_2  and  C_3 
ROOT
HETATM    1  C   LIG     1      16.637  36.371  22.247  1.00  0.00     0.178 A 
HETATM    2  N   LIG     1      17.730  36.847  21.400  1.00  0.00    -0.330 N 
HETATM    3  C   LIG     1      17.588  36.254  20.117  1.00  0.00     0.323 A 
HETATM    4  O   LIG     1      18.382  36.464  19.163  1.00  0.00    -0.247 OA
HETATM    5  N   LIG     1      16.469  35.395  20.024  1.00  0.00    -0.278 N 
HETATM    6  C   LIG     1      15.892  35.446  21.320  1.00  0.00     0.248 A 
HETATM    7  O   LIG     1      14.898  34.747  21.650  1.00  0.00    -0.271 OA
HETATM    8  H   LIG     1      18.499  37.490  21.692  1.00  0.00     0.165 HD
HETATM    9  H   LIG     1      16.167  34.819  19.207  1.00  0.00     0.173 HD
ENDROOT
BRANCH   1  10
HETATM   10  C   LIG     1      15.781  37.560  22.713  1.00  0.00     0.030 C 
HETATM   11  C   LIG     1      16.540  38.884  22.653  1.00  0.00     0.007 C 
ENDBRANCH   1  10
TORSDOF 1
ENDMDL
MODEL 14
REMARK VINA RESULT:      -4.4      2.396      3.514
REMARK  1 active torsions:
REMARK  status: ('A' for Active; 'I' for Inactive)
REMARK    1  A    between atoms: C_2  and  C_3 
ROOT
HETATM    1  C   LIG     1      17.415  36.793  22.806  1.00  0.00     0.178 A 
HETATM    2  N   LIG     1      17.162  36.906  21.370  1.00  0.00    -0.330 N 
HETATM    3  C   LIG     1      16.662  35.660  20.907  1.00  0.00     0.323 A 
HETATM    4  O   LIG     1      16.352  35.438  19.708  1.00  0.00    -0.247 OA
HETATM    5  N   LIG     1      16.559  34.689  21.930  1.00  0.00    -0.278 N 
HETATM    6  C   LIG     1      17.030  35.363  23.087  1.00  0.00     0.248 A 
HETATM    7  O   LIG     1      17.153  34.794  24.204  1.00  0.00    -0.271 OA
HETATM    8  H   LIG     1      17.340  37.749  20.779  1.00  0.00     0.165 HD
HETATM    9  H   LIG     1      16.256  33.694  21.844  1.00  0.00     0.173 HD
ENDROOT
BRANCH   1  10
HETATM   10  C   LIG     1      16.547  37.803  23.573  1.00  0.00     0.030 C 
HETATM   11  C   LIG     1      17.177  38.226  24.898  1.00  0.00     0.007 C 
ENDBRANCH   1  10
TORSDOF 1
ENDMDL
MODEL 15
REMARK VINA RESULT:      -4.3      8.022      9.291
REMARK  1 active torsions:
REMARK  status: ('A' for Active; 'I' for Inactive)
REMARK    1  A    between atoms: C_2  and  C_3 
ROOT
HETATM    1  C   LIG     1      14.284  32.473  16.867  1.00  0.00     0.178 A 
HETATM    2  N   LIG     1      14.698  31.522  15.836  1.00  0.00    -0.330 N 
HETATM    3  C   LIG     1      15.892  32.007  15.238  1.00  0.00     0.323 A 
HETATM    4  O   LIG     1      16.495  31.409  14.309  1.00  0.00    -0.247 OA
HETATM    5  N   LIG     1      16.328  33.234  15.787  1.00  0.00    -0.278 N 
HETATM    6  C   LIG     1      15.348  33.536  16.768  1.00  0.00     0.248 A 
HETATM    7  O   LIG     1      15.358  34.605  17.435  1.00  0.00    -0.271 OA
HETATM    8  H   LIG     1      14.191  30.650  15.565  1.00  0.00     0.165 HD
HETATM    9  H   LIG     1      17.151  33.810  15.502  1.00  0.00     0.173 HD
ENDROOT
BRANCH   1  10
HETATM   10  C   LIG     1      14.262  31.781  18.239  1.00  0.00     0.030 C 
HETATM   11  C   LIG     1      15.399  32.248  19.146  1.00  0.00     0.007 C 
ENDBRANCH   1  10
TORSDOF 1
ENDMDL
MODEL 16
REMARK VINA RESULT:      -4.2      9.344     10.321
REMARK  1 active torsions:
REMARK  status: ('A' for Active; 'I' for Inactive)
REMARK    1  A    between atoms: C_2  and  C_3 
ROOT
HETATM    1  C   LIG     1      14.685  31.568  14.972  1.00  0.00     0.178 A 
HETATM    2  N   LIG     1      16.000  31.857  14.404  1.00  0.00    -0.330 N 
HETATM    3  C   LIG     1      16.785  32.495  15.401  1.00  0.00     0.323 A 
HETATM    4  O   LIG     1      17.971  32.874  15.214  1.00  0.00    -0.247 OA
HETATM    5  N   LIG     1      16.094  32.670  16.622  1.00  0.00    -0.278 N 
HETATM    6  C   LIG     1      14.809  32.125  16.367  1.00  0.00     0.248 A 
HETATM    7  O   LIG     1      13.875  32.159  17.212  1.00  0.00    -0.271 OA
HETATM    8  H   LIG     1      16.305  31.654  13.426  1.00  0.00     0.165 HD
HETATM    9  H   LIG     1      16.434  33.139  17.491  1.00  0.00     0.173 HD
ENDROOT
BRANCH   1  10
HETATM   10  C   LIG     1      14.429  30.052  14.959  1.00  0.00     0.030 C 
HETATM   11  C   LIG     1      15.249  29.332  13.891  1.00  0.00     0.007 C 
ENDBRANCH   1  10
TORSDOF 1
ENDMDL
MODEL 17
REMARK VINA RESULT:      -4.1     10.323     11.397
REMARK  1 active torsions:
REMARK  status: ('A' for Active; 'I' for Inactive)
REMARK    1  A    between atoms: C_2  and  C_3 
ROOT
HETATM    1  C   LIG     1      14.986  30.845  15.643  1.00  0.00     0.178 A 
HETATM    2  N   LIG     1      14.668  29.906  14.569  1.00  0.00    -0.330 N 
HETATM    3  C   LIG     1      13.284  29.596  14.644  1.00  0.00     0.323 A 
HETATM    4  O   LIG     1      12.705  28.807  13.852  1.00  0.00    -0.247 OA
HETATM    5  N   LIG     1      12.625  30.258  15.705  1.00  0.00    -0.278 N 
HETATM    6  C   LIG     1      13.655  31.008  16.331  1.00  0.00     0.248 A 
HETATM    7  O   LIG     1      13.465  31.686  17.375  1.00  0.00    -0.271 OA
HETATM    8  H   LIG     1      15.345  29.509  13.879  1.00  0.00     0.165 HD
HETATM    9  H   LIG     1      11.625  30.174  15.992  1.00  0.00     0.173 HD
ENDROOT
BRANCH   1  10
HETATM   10  C   LIG     1      15.513  32.161  15.050  1.00  0.00     0.030 C 
HETATM   11  C   LIG     1      16.026  31.993  13.621  1.00  0.00     0.007 C 
ENDBRANCH   1  10
TORSDOF 1
ENDMDL
MODEL 18
REMARK VINA RESULT:      -4.0      3.321      4.397
REMARK  1 active torsions:
REMARK  status: ('A' for Active; 'I' for Inactive)
REMARK    1  A    between atoms: C_2  and  C_3 
ROOT
HETATM    1  C   LIG     1      19.138  37.989  19.292  1.00  0.00     0.178 A 
HETATM    2  N   LIG     1      18.598  36.635  19.412  1.00  0.00    -0.330 N 
HETATM    3  C   LIG     1      17.847  36.562  20.616  1.00  0.00     0.323 A 
HETATM    4  O   LIG     1      17.259  35.520  21.005  1.00  0.00    -0.247 OA
HETATM    5  N   LIG     1      17.839  37.777  21.338  1.00  0.00    -0.278 N 
HETATM    6  C   LIG     1      18.635  38.648  20.550  1.00  0.00     0.248 A 
HETATM    7  O   LIG     1      18.919  39.822  20.907  1.00  0.00    -0.271 OA
HETATM    8  H   LIG     1      18.755  35.848  18.744  1.00  0.00     0.165 HD
HETATM    9  H   LIG     1      17.393  37.973  22.262  1.00  0.00     0.173 HD
ENDROOT
BRANCH   1  10
HETATM   10  C   LIG     1      18.600  38.656  18.015  1.00  0.00     0.030 C 
HETATM   11  C   LIG     1      19.625  39.584  17.366  1.00  0.00     0.007 C 
ENDBRANCH   1  10
TORSDOF 1
ENDMDL
MODEL 19
REMARK VINA RESULT:      -3.9      3.310      4.070
REMARK  1 active torsions:
REMARK  status: ('A' for Active; 'I' for Inactive)
REMARK    1  A    between atoms: C_2  and  C_3 
ROOT
HETATM    1  C   LIG     1      19.074  37.665  20.008  1.00  0.00     0.178 A 
HETATM    2  N   LIG     1      17.962  37.608  20.956  1.00  0.00    -0.330 N 
HETATM    3  C   LIG     1      17.911  38.844  21.654  1.00  0.00     0.323 A 
HETATM    4  O   LIG     1      17.060  39.102  22.545  1.00  0.00    -0.247 OA
HETATM    5  N   LIG     1      18.920  39.749  21.254  1.00  0.00    -0.278 N 
HETATM    6  C   LIG     1      19.644  39.036  20.264  1.00  0.00     0.248 A 
HETATM    7  O   LIG     1      20.677  39.498  19.711  1.00  0.00    -0.271 OA
HETATM    8  H   LIG     1      17.329  36.792  21.113  1.00  0.00     0.165 HD
HETATM    9  H   LIG     1      19.116  40.701  21.635  1.00  0.00     0.173 HD
ENDROOT
BRANCH   1  10
HETATM   10  C   LIG     1      18.549  37.498  18.573  1.00  0.00     0.030 C 
HETATM   11  C   LIG     1      18.671  38.782  17.755  1.00  0.00     0.007 C 
ENDBRANCH   1  10
TORSDOF 1
ENDMDL
MODEL 20
REMARK VINA RESULT:      -3.4      1.635      2.953
REMARK  1 active torsions:
REMARK  status: ('A' for Active; 'I' for Inactive)
REMARK    1  A    between atoms: C_2  and  C_3 
ROOT
HETATM    1  C   LIG     1      17.720  37.752  23.293  1.00  0.00     0.178 A 
HETATM    2  N   LIG     1      17.353  36.918  22.149  1.00  0.00    -0.330 N 
HETATM    3  C   LIG     1      16.906  35.663  22.640  1.00  0.00     0.323 A 
HETATM    4  O   LIG     1      16.523  34.722  21.896  1.00  0.00    -0.247 OA
HETATM    5  N   LIG     1      16.944  35.573  24.050  1.00  0.00    -0.278 N 
HETATM    6  C   LIG     1      17.453  36.834  24.458  1.00  0.00     0.248 A 
HETATM    7  O   LIG     1      17.696  37.113  25.661  1.00  0.00    -0.271 OA
HETATM    8  H   LIG     1      17.431  37.186  21.143  1.00  0.00     0.165 HD
HETATM    9  H   LIG     1      16.701  34.753  24.649  1.00  0.00     0.173 HD
ENDROOT
BRANCH   1  10
HETATM   10  C   LIG     1      16.845  39.016  23.321  1.00  0.00     0.030 C 
HETATM   11  C   LIG     1      15.663  38.929  22.358  1.00  0.00     0.007 C 
ENDBRANCH   1  10
TORSDOF 1
ENDMDL
