REMARK  0 active torsions:
REMARK  status: ('A' for Active; 'I' for Inactive)
ROOT
HETATM    1 CL   LIG     1       1.617   1.295   0.056  1.00  0.00    -0.096 Cl
HETATM    2  C   LIG     1       0.667  -0.185   0.007  1.00  0.00     0.096 C 
HETATM    3  C   LIG     1      -0.669  -0.176  -0.015  1.00  0.00     0.096 C 
HETATM    4 CL   LIG     1      -1.600   1.318   0.002  1.00  0.00    -0.096 Cl
ENDROOT
TORSDOF 0
