MODEL 1
REMARK VINA RESULT:      -3.1      0.000      0.000
REMARK  0 active torsions:
REMARK  status: ('A' for Active; 'I' for Inactive)
ROOT
HETATM    1 CL   LIG     1      18.466  36.282  26.904  1.00  0.00    -0.096 Cl
HETATM    2  C   LIG     1      17.713  37.272  25.660  1.00  0.00     0.096 C 
HETATM    3  C   LIG     1      17.205  36.748  24.540  1.00  0.00     0.096 C 
HETATM    4 CL   LIG     1      17.240  35.019  24.210  1.00  0.00    -0.096 Cl
ENDROOT
TORSDOF 0
ENDMDL
MODEL 2
REMARK VINA RESULT:      -3.1      0.068      2.464
REMARK  0 active torsions:
REMARK  status: ('A' for Active; 'I' for Inactive)
ROOT
HETATM    1 CL   LIG     1      17.229  35.073  24.123  1.00  0.00    -0.096 Cl
HETATM    2  C   LIG     1      17.180  36.784  24.528  1.00  0.00     0.096 C 
HETATM    3  C   LIG     1      17.688  37.263  25.668  1.00  0.00     0.096 C 
HETATM    4 CL   LIG     1      18.453  36.224  26.866  1.00  0.00    -0.096 Cl
ENDROOT
TORSDOF 0
ENDMDL
MODEL 3
REMARK VINA RESULT:      -2.9      1.646      2.020
REMARK  0 active torsions:
REMARK  status: ('A' for Active; 'I' for Inactive)
ROOT
HETATM    1 CL   LIG     1      17.458  34.775  25.550  1.00  0.00    -0.096 Cl
HETATM    2  C   LIG     1      18.046  36.272  26.262  1.00  0.00     0.096 C 
HETATM    3  C   LIG     1      17.704  37.473  25.785  1.00  0.00     0.096 C 
HETATM    4 CL   LIG     1      16.632  37.665  24.401  1.00  0.00    -0.096 Cl
ENDROOT
TORSDOF 0
ENDMDL
MODEL 4
REMARK VINA RESULT:      -2.9      5.433      6.061
REMARK  0 active torsions:
REMARK  status: ('A' for Active; 'I' for Inactive)
ROOT
HETATM    1 CL   LIG     1      19.286  36.854  19.493  1.00  0.00    -0.096 Cl
HETATM    2  C   LIG     1      19.705  38.558  19.627  1.00  0.00     0.096 C 
HETATM    3  C   LIG     1      19.081  39.382  20.474  1.00  0.00     0.096 C 
HETATM    4 CL   LIG     1      17.784  38.837  21.533  1.00  0.00    -0.096 Cl
ENDROOT
TORSDOF 0
ENDMDL
MODEL 5
REMARK VINA RESULT:      -2.8      5.270      5.992
REMARK  0 active torsions:
REMARK  status: ('A' for Active; 'I' for Inactive)
ROOT
HETATM    1 CL   LIG     1      18.321  36.639  20.179  1.00  0.00    -0.096 Cl
HETATM    2  C   LIG     1      18.339  38.233  20.922  1.00  0.00     0.096 C 
HETATM    3  C   LIG     1      19.234  39.168  20.586  1.00  0.00     0.096 C 
HETATM    4 CL   LIG     1      20.475  38.888  19.369  1.00  0.00    -0.096 Cl
ENDROOT
TORSDOF 0
ENDMDL
MODEL 6
REMARK VINA RESULT:      -2.8      5.077      5.629
REMARK  0 active torsions:
REMARK  status: ('A' for Active; 'I' for Inactive)
ROOT
HETATM    1 CL   LIG     1      20.312  38.935  19.570  1.00  0.00    -0.096 Cl
HETATM    2  C   LIG     1      19.102  39.111  20.834  1.00  0.00     0.096 C 
HETATM    3  C   LIG     1      18.218  38.149  21.115  1.00  0.00     0.096 C 
HETATM    4 CL   LIG     1      18.184  36.619  20.246  1.00  0.00    -0.096 Cl
ENDROOT
TORSDOF 0
ENDMDL
MODEL 7
REMARK VINA RESULT:      -2.8      1.687      2.587
REMARK  0 active torsions:
REMARK  status: ('A' for Active; 'I' for Inactive)
ROOT
HETATM    1 CL   LIG     1      15.961  37.615  22.906  1.00  0.00    -0.096 Cl
HETATM    2  C   LIG     1      16.805  37.678  24.448  1.00  0.00     0.096 C 
HETATM    3  C   LIG     1      17.340  36.592  25.015  1.00  0.00     0.096 C 
HETATM    4 CL   LIG     1      17.250  35.001  24.268  1.00  0.00    -0.096 Cl
ENDROOT
TORSDOF 0
ENDMDL
MODEL 8
REMARK VINA RESULT:      -2.6      4.424      5.137
REMARK  0 active torsions:
REMARK  status: ('A' for Active; 'I' for Inactive)
ROOT
HETATM    1 CL   LIG     1      17.851  36.509  20.660  1.00  0.00    -0.096 Cl
HETATM    2  C   LIG     1      17.472  37.783  21.813  1.00  0.00     0.096 C 
HETATM    3  C   LIG     1      18.002  39.006  21.726  1.00  0.00     0.096 C 
HETATM    4 CL   LIG     1      19.129  39.454  20.450  1.00  0.00    -0.096 Cl
ENDROOT
TORSDOF 0
ENDMDL
MODEL 9
REMARK VINA RESULT:      -2.6      1.696      2.301
REMARK  0 active torsions:
REMARK  status: ('A' for Active; 'I' for Inactive)
ROOT
HETATM    1 CL   LIG     1      17.376  35.055  24.815  1.00  0.00    -0.096 Cl
HETATM    2  C   LIG     1      17.124  36.576  23.968  1.00  0.00     0.096 C 
HETATM    3  C   LIG     1      16.853  36.630  22.661  1.00  0.00     0.096 C 
HETATM    4 CL   LIG     1      16.722  35.183  21.667  1.00  0.00    -0.096 Cl
ENDROOT
TORSDOF 0
ENDMDL
MODEL 10
REMARK VINA RESULT:      -2.6      3.652      4.527
REMARK  0 active torsions:
REMARK  status: ('A' for Active; 'I' for Inactive)
ROOT
HETATM    1 CL   LIG     1      18.826  36.751  19.885  1.00  0.00    -0.096 Cl
HETATM    2  C   LIG     1      17.816  37.518  21.105  1.00  0.00     0.096 C 
HETATM    3  C   LIG     1      17.090  36.813  21.977  1.00  0.00     0.096 C 
HETATM    4 CL   LIG     1      17.078  35.053  21.987  1.00  0.00    -0.096 Cl
ENDROOT
TORSDOF 0
ENDMDL
MODEL 11
REMARK VINA RESULT:      -2.6      7.863      8.964
REMARK  0 active torsions:
REMARK  status: ('A' for Active; 'I' for Inactive)
ROOT
HETATM    1 CL   LIG     1      13.865  31.310  17.139  1.00  0.00    -0.096 Cl
HETATM    2  C   LIG     1      14.915  32.491  17.913  1.00  0.00     0.096 C 
HETATM    3  C   LIG     1      15.317  32.367  19.181  1.00  0.00     0.096 C 
HETATM    4 CL   LIG     1      14.835  31.009  20.192  1.00  0.00    -0.096 Cl
ENDROOT
TORSDOF 0
ENDMDL
MODEL 12
REMARK VINA RESULT:      -2.6      3.883      4.741
REMARK  0 active torsions:
REMARK  status: ('A' for Active; 'I' for Inactive)
ROOT
HETATM    1 CL   LIG     1      17.120  35.638  21.789  1.00  0.00    -0.096 Cl
HETATM    2  C   LIG     1      17.436  37.360  21.616  1.00  0.00     0.096 C 
HETATM    3  C   LIG     1      18.298  37.842  20.716  1.00  0.00     0.096 C 
HETATM    4 CL   LIG     1      19.196  36.796  19.620  1.00  0.00    -0.096 Cl
ENDROOT
TORSDOF 0
ENDMDL
MODEL 13
REMARK VINA RESULT:      -2.6      7.944      8.830
REMARK  0 active torsions:
REMARK  status: ('A' for Active; 'I' for Inactive)
ROOT
HETATM    1 CL   LIG     1      14.850  31.155  20.102  1.00  0.00    -0.096 Cl
HETATM    2  C   LIG     1      15.179  32.430  18.935  1.00  0.00     0.096 C 
HETATM    3  C   LIG     1      14.735  32.378  17.676  1.00  0.00     0.096 C 
HETATM    4 CL   LIG     1      13.779  31.029  17.071  1.00  0.00    -0.096 Cl
ENDROOT
TORSDOF 0
ENDMDL
MODEL 14
REMARK VINA RESULT:      -2.5     13.298     14.039
REMARK  0 active torsions:
REMARK  status: ('A' for Active; 'I' for Inactive)
ROOT
HETATM    1 CL   LIG     1      22.023  34.912  12.858  1.00  0.00    -0.096 Cl
HETATM    2  C   LIG     1      23.435  35.632  13.620  1.00  0.00     0.096 C 
HETATM    3  C   LIG     1      24.210  36.522  12.994  1.00  0.00     0.096 C 
HETATM    4 CL   LIG     1      23.886  37.057  11.348  1.00  0.00    -0.096 Cl
ENDROOT
TORSDOF 0
ENDMDL
MODEL 15
REMARK VINA RESULT:      -2.5      2.919      3.545
REMARK  0 active torsions:
REMARK  status: ('A' for Active; 'I' for Inactive)
ROOT
HETATM    1 CL   LIG     1      15.777  37.686  22.855  1.00  0.00    -0.096 Cl
HETATM    2  C   LIG     1      16.276  36.332  21.848  1.00  0.00     0.096 C 
HETATM    3  C   LIG     1      16.862  35.243  22.354  1.00  0.00     0.096 C 
HETATM    4 CL   LIG     1      17.188  35.064  24.075  1.00  0.00    -0.096 Cl
ENDROOT
TORSDOF 0
ENDMDL
MODEL 16
REMARK VINA RESULT:      -2.4     12.686     12.827
REMARK  0 active torsions:
REMARK  status: ('A' for Active; 'I' for Inactive)
ROOT
HETATM    1 CL   LIG     1      15.886  32.027  13.943  1.00  0.00    -0.096 Cl
HETATM    2  C   LIG     1      15.269  30.423  13.567  1.00  0.00     0.096 C 
HETATM    3  C   LIG     1      14.315  29.836  14.296  1.00  0.00     0.096 C 
HETATM    4 CL   LIG     1      13.589  30.614  15.698  1.00  0.00    -0.096 Cl
ENDROOT
TORSDOF 0
ENDMDL
MODEL 17
REMARK VINA RESULT:      -2.4      3.240      3.371
REMARK  0 active torsions:
REMARK  status: ('A' for Active; 'I' for Inactive)
ROOT
HETATM    1 CL   LIG     1      17.666  38.578  23.033  1.00  0.00    -0.096 Cl
HETATM    2  C   LIG     1      16.844  37.047  23.310  1.00  0.00     0.096 C 
HETATM    3  C   LIG     1      16.819  36.074  22.396  1.00  0.00     0.096 C 
HETATM    4 CL   LIG     1      17.609  36.233  20.830  1.00  0.00    -0.096 Cl
ENDROOT
TORSDOF 0
ENDMDL
MODEL 18
REMARK VINA RESULT:      -2.4      4.628      5.045
REMARK  0 active torsions:
REMARK  status: ('A' for Active; 'I' for Inactive)
ROOT
HETATM    1 CL   LIG     1      17.359  36.000  20.788  1.00  0.00    -0.096 Cl
HETATM    2  C   LIG     1      15.841  35.649  21.605  1.00  0.00     0.096 C 
HETATM    3  C   LIG     1      15.142  34.536  21.367  1.00  0.00     0.096 C 
HETATM    4 CL   LIG     1      15.678  33.317  20.215  1.00  0.00    -0.096 Cl
ENDROOT
TORSDOF 0
ENDMDL
MODEL 19
REMARK VINA RESULT:      -2.4     10.352     10.671
REMARK  0 active torsions:
REMARK  status: ('A' for Active; 'I' for Inactive)
ROOT
HETATM    1 CL   LIG     1      15.735  32.409  15.476  1.00  0.00    -0.096 Cl
HETATM    2  C   LIG     1      14.648  32.753  16.816  1.00  0.00     0.096 C 
HETATM    3  C   LIG     1      13.557  32.019  17.057  1.00  0.00     0.096 C 
HETATM    4 CL   LIG     1      13.110  30.641  16.056  1.00  0.00    -0.096 Cl
ENDROOT
TORSDOF 0
ENDMDL
MODEL 20
REMARK VINA RESULT:      -2.3      2.625      3.659
REMARK  0 active torsions:
REMARK  status: ('A' for Active; 'I' for Inactive)
ROOT
HETATM    1 CL   LIG     1      15.929  36.829  22.187  1.00  0.00    -0.096 Cl
HETATM    2  C   LIG     1      17.248  37.985  22.326  1.00  0.00     0.096 C 
HETATM    3  C   LIG     1      17.708  38.405  23.508  1.00  0.00     0.096 C 
HETATM    4 CL   LIG     1      17.037  37.839  25.033  1.00  0.00    -0.096 Cl
ENDROOT
TORSDOF 0
ENDMDL
