REMARK  5 active torsions:
REMARK  status: ('A' for Active; 'I' for Inactive)
REMARK    1  A    between atoms: C_2  and  C_3 
REMARK    2  A    between atoms: C_3  and  C_4 
REMARK    3  A    between atoms: C_9  and  C_10 
REMARK    4  A    between atoms: C_10  and  C_12 
REMARK    5  A    between atoms: C_12  and  O_13 
ROOT
HETATM    1  C   LIG     1      -0.755  -0.393  -0.741  1.00  0.00    -0.058 A 
HETATM    2  C   LIG     1       0.214   0.545  -1.125  1.00  0.00     0.007 A 
HETATM    3  C   LIG     1       1.514   0.470  -0.615  1.00  0.00     0.008 A 
HETATM    4  C   LIG     1      -0.403  -1.411   0.158  1.00  0.00     0.007 A 
HETATM    5  C   LIG     1       0.894  -1.483   0.674  1.00  0.00     0.008 A 
HETATM    6  C   LIG     1       1.873  -0.551   0.286  1.00  0.00    -0.044 A 
ENDROOT
BRANCH   6   7
HETATM    7  C   LIG     1       3.267  -0.645   0.884  1.00  0.00     0.112 C 
HETATM    8  C   LIG     1       4.386  -0.451  -0.149  1.00  0.00     0.026 C 
BRANCH   7   9
HETATM    9  C   LIG     1       3.417   0.302   2.048  1.00  0.00     0.148 C 
HETATM   10  O   LIG     1       3.575  -0.165   3.208  1.00  0.00    -0.649 OA
BRANCH   9  11
HETATM   11  O   LIG     1       3.387   1.684   1.879  1.00  0.00    -0.776 OA
HETATM   12  H   LIG     1       3.278   2.113   0.969  1.00  0.00     0.167 HD
ENDBRANCH   9  11
ENDBRANCH   7   9
ENDBRANCH   6   7
BRANCH   1  13
HETATM   13  C   LIG     1      -2.155  -0.321  -1.300  1.00  0.00     0.042 C 
BRANCH  13  14
HETATM   14  C   LIG     1      -3.201   0.045  -0.224  1.00  0.00    -0.019 C 
HETATM   15  C   LIG     1      -4.616  -0.037  -0.812  1.00  0.00     0.010 C 
HETATM   16  C   LIG     1      -2.952   1.448   0.351  1.00  0.00     0.010 C 
ENDBRANCH  13  14
ENDBRANCH   1  13
TORSDOF 5
