MODEL 1
REMARK VINA RESULT:      -7.9      0.000      0.000
REMARK  5 active torsions:
REMARK  status: ('A' for Active; 'I' for Inactive)
REMARK    1  A    between atoms: C_2  and  C_3 
REMARK    2  A    between atoms: C_3  and  C_4 
REMARK    3  A    between atoms: C_9  and  C_10 
REMARK    4  A    between atoms: C_10  and  C_12 
REMARK    5  A    between atoms: C_12  and  O_13 
ROOT
HETATM    1  C   LIG     1      18.055  37.177  20.490  1.00  0.00    -0.058 A 
HETATM    2  C   LIG     1      17.586  35.915  20.882  1.00  0.00     0.007 A 
HETATM    3  C   LIG     1      17.216  35.678  22.210  1.00  0.00     0.008 A 
HETATM    4  C   LIG     1      18.145  38.200  21.445  1.00  0.00     0.007 A 
HETATM    5  C   LIG     1      17.783  37.962  22.774  1.00  0.00     0.008 A 
HETATM    6  C   LIG     1      17.303  36.702  23.172  1.00  0.00    -0.044 A 
ENDROOT
BRANCH   6   7
HETATM    7  C   LIG     1      16.939  36.472  24.630  1.00  0.00     0.112 C 
HETATM    8  C   LIG     1      17.279  35.059  25.125  1.00  0.00     0.026 C 
BRANCH   7   9
HETATM    9  C   LIG     1      17.553  37.531  25.510  1.00  0.00     0.148 C 
HETATM   10  O   LIG     1      16.903  38.582  25.758  1.00  0.00    -0.649 OA
BRANCH   9  11
HETATM   11  O   LIG     1      18.824  37.382  26.061  1.00  0.00    -0.776 OA
HETATM   12  H   LIG     1      18.965  37.204  27.047  1.00  0.00     0.167 HD
ENDBRANCH   9  11
ENDBRANCH   7   9
ENDBRANCH   6   7
BRANCH   1  13
HETATM   13  C   LIG     1      18.443  37.438  19.055  1.00  0.00     0.042 C 
BRANCH  13  14
HETATM   14  C   LIG     1      19.069  38.836  18.859  1.00  0.00    -0.019 C 
HETATM   15  C   LIG     1      18.850  39.317  17.418  1.00  0.00     0.010 C 
HETATM   16  C   LIG     1      20.570  38.834  19.189  1.00  0.00     0.010 C 
ENDBRANCH  13  14
ENDBRANCH   1  13
TORSDOF 5
ENDMDL
MODEL 2
REMARK VINA RESULT:      -7.4      2.783      6.087
REMARK  5 active torsions:
REMARK  status: ('A' for Active; 'I' for Inactive)
REMARK    1  A    between atoms: C_2  and  C_3 
REMARK    2  A    between atoms: C_3  and  C_4 
REMARK    3  A    between atoms: C_9  and  C_10 
REMARK    4  A    between atoms: C_10  and  C_12 
REMARK    5  A    between atoms: C_12  and  O_13 
ROOT
HETATM    1  C   LIG     1      17.376  37.256  23.216  1.00  0.00    -0.058 A 
HETATM    2  C   LIG     1      17.954  38.515  23.000  1.00  0.00     0.007 A 
HETATM    3  C   LIG     1      18.432  38.867  21.734  1.00  0.00     0.008 A 
HETATM    4  C   LIG     1      17.278  36.355  22.145  1.00  0.00     0.007 A 
HETATM    5  C   LIG     1      17.761  36.704  20.880  1.00  0.00     0.008 A 
HETATM    6  C   LIG     1      18.334  37.968  20.654  1.00  0.00    -0.044 A 
ENDROOT
BRANCH   6   7
HETATM    7  C   LIG     1      18.869  38.305  19.273  1.00  0.00     0.112 C 
HETATM    8  C   LIG     1      18.150  39.491  18.615  1.00  0.00     0.026 C 
BRANCH   7   9
HETATM    9  C   LIG     1      20.362  38.515  19.312  1.00  0.00     0.148 C 
HETATM   10  O   LIG     1      21.104  37.594  19.748  1.00  0.00    -0.649 OA
BRANCH   9  11
HETATM   11  O   LIG     1      20.949  39.701  18.878  1.00  0.00    -0.776 OA
HETATM   12  H   LIG     1      20.620  40.196  18.059  1.00  0.00     0.167 HD
ENDBRANCH   9  11
ENDBRANCH   7   9
ENDBRANCH   6   7
BRANCH   1  13
HETATM   13  C   LIG     1      16.849  36.878  24.579  1.00  0.00     0.042 C 
BRANCH  13  14
HETATM   14  C   LIG     1      17.858  36.034  25.388  1.00  0.00    -0.019 C 
HETATM   15  C   LIG     1      17.176  34.772  25.933  1.00  0.00     0.010 C 
HETATM   16  C   LIG     1      18.471  36.841  26.543  1.00  0.00     0.010 C 
ENDBRANCH  13  14
ENDBRANCH   1  13
TORSDOF 5
ENDMDL
MODEL 3
REMARK VINA RESULT:      -7.1      3.226      6.140
REMARK  5 active torsions:
REMARK  status: ('A' for Active; 'I' for Inactive)
REMARK    1  A    between atoms: C_2  and  C_3 
REMARK    2  A    between atoms: C_3  and  C_4 
REMARK    3  A    between atoms: C_9  and  C_10 
REMARK    4  A    between atoms: C_10  and  C_12 
REMARK    5  A    between atoms: C_12  and  O_13 
ROOT
HETATM    1  C   LIG     1      17.361  37.392  22.593  1.00  0.00    -0.058 A 
HETATM    2  C   LIG     1      17.647  36.670  21.425  1.00  0.00     0.007 A 
HETATM    3  C   LIG     1      18.335  37.275  20.369  1.00  0.00     0.008 A 
HETATM    4  C   LIG     1      17.778  38.728  22.691  1.00  0.00     0.007 A 
HETATM    5  C   LIG     1      18.460  39.336  21.633  1.00  0.00     0.008 A 
HETATM    6  C   LIG     1      18.758  38.615  20.463  1.00  0.00    -0.044 A 
ENDROOT
BRANCH   6   7
HETATM    7  C   LIG     1      19.481  39.314  19.324  1.00  0.00     0.112 C 
HETATM    8  C   LIG     1      20.884  38.751  19.057  1.00  0.00     0.026 C 
BRANCH   7   9
HETATM    9  C   LIG     1      18.638  39.317  18.073  1.00  0.00     0.148 C 
HETATM   10  O   LIG     1      18.471  38.241  17.439  1.00  0.00    -0.649 OA
BRANCH   9  11
HETATM   11  O   LIG     1      18.034  40.478  17.597  1.00  0.00    -0.776 OA
HETATM   12  H   LIG     1      17.807  40.604  16.619  1.00  0.00     0.167 HD
ENDBRANCH   9  11
ENDBRANCH   7   9
ENDBRANCH   6   7
BRANCH   1  13
HETATM   13  C   LIG     1      16.629  36.736  23.738  1.00  0.00     0.042 C 
BRANCH  13  14
HETATM   14  C   LIG     1      17.579  36.314  24.880  1.00  0.00    -0.019 C 
HETATM   15  C   LIG     1      17.176  34.936  25.422  1.00  0.00     0.010 C 
HETATM   16  C   LIG     1      17.585  37.345  26.020  1.00  0.00     0.010 C 
ENDBRANCH  13  14
ENDBRANCH   1  13
TORSDOF 5
ENDMDL
MODEL 4
REMARK VINA RESULT:      -7.1      2.665      4.630
REMARK  5 active torsions:
REMARK  status: ('A' for Active; 'I' for Inactive)
REMARK    1  A    between atoms: C_2  and  C_3 
REMARK    2  A    between atoms: C_3  and  C_4 
REMARK    3  A    between atoms: C_9  and  C_10 
REMARK    4  A    between atoms: C_10  and  C_12 
REMARK    5  A    between atoms: C_12  and  O_13 
ROOT
HETATM    1  C   LIG     1      15.355  34.605  21.428  1.00  0.00    -0.058 A 
HETATM    2  C   LIG     1      14.738  35.860  21.527  1.00  0.00     0.007 A 
HETATM    3  C   LIG     1      15.456  36.968  21.988  1.00  0.00     0.008 A 
HETATM    4  C   LIG     1      16.703  34.475  21.794  1.00  0.00     0.007 A 
HETATM    5  C   LIG     1      17.420  35.580  22.261  1.00  0.00     0.008 A 
HETATM    6  C   LIG     1      16.810  36.843  22.354  1.00  0.00    -0.044 A 
ENDROOT
BRANCH   6   7
HETATM    7  C   LIG     1      17.613  38.018  22.888  1.00  0.00     0.112 C 
HETATM    8  C   LIG     1      17.163  39.371  22.317  1.00  0.00     0.026 C 
BRANCH   7   9
HETATM    9  C   LIG     1      17.614  38.027  24.396  1.00  0.00     0.148 C 
HETATM   10  O   LIG     1      16.525  38.169  25.014  1.00  0.00    -0.649 OA
BRANCH   9  11
HETATM   11  O   LIG     1      18.789  37.880  25.129  1.00  0.00    -0.776 OA
HETATM   12  H   LIG     1      19.166  36.971  25.367  1.00  0.00     0.167 HD
ENDBRANCH   9  11
ENDBRANCH   7   9
ENDBRANCH   6   7
BRANCH   1  13
HETATM   13  C   LIG     1      14.585  33.411  20.920  1.00  0.00     0.042 C 
BRANCH  13  14
HETATM   14  C   LIG     1      15.419  32.539  19.955  1.00  0.00    -0.019 C 
HETATM   15  C   LIG     1      15.232  33.022  18.510  1.00  0.00     0.010 C 
HETATM   16  C   LIG     1      15.040  31.054  20.065  1.00  0.00     0.010 C 
ENDBRANCH  13  14
ENDBRANCH   1  13
TORSDOF 5
ENDMDL
MODEL 5
REMARK VINA RESULT:      -6.9      3.037      4.743
REMARK  5 active torsions:
REMARK  status: ('A' for Active; 'I' for Inactive)
REMARK    1  A    between atoms: C_2  and  C_3 
REMARK    2  A    between atoms: C_3  and  C_4 
REMARK    3  A    between atoms: C_9  and  C_10 
REMARK    4  A    between atoms: C_10  and  C_12 
REMARK    5  A    between atoms: C_12  and  O_13 
ROOT
HETATM    1  C   LIG     1      15.402  34.821  21.528  1.00  0.00    -0.058 A 
HETATM    2  C   LIG     1      16.767  34.798  21.845  1.00  0.00     0.007 A 
HETATM    3  C   LIG     1      17.406  35.951  22.311  1.00  0.00     0.008 A 
HETATM    4  C   LIG     1      14.683  36.015  21.688  1.00  0.00     0.007 A 
HETATM    5  C   LIG     1      15.322  37.171  22.146  1.00  0.00     0.008 A 
HETATM    6  C   LIG     1      16.689  37.152  22.475  1.00  0.00    -0.044 A 
ENDROOT
BRANCH   6   7
HETATM    7  C   LIG     1      17.357  38.432  22.949  1.00  0.00     0.112 C 
HETATM    8  C   LIG     1      17.962  38.317  24.355  1.00  0.00     0.026 C 
BRANCH   7   9
HETATM    9  C   LIG     1      18.375  38.910  21.945  1.00  0.00     0.148 C 
HETATM   10  O   LIG     1      18.066  38.952  20.724  1.00  0.00    -0.649 OA
BRANCH   9  11
HETATM   11  O   LIG     1      19.654  39.309  22.328  1.00  0.00    -0.776 OA
HETATM   12  H   LIG     1      20.013  40.232  22.124  1.00  0.00     0.167 HD
ENDBRANCH   9  11
ENDBRANCH   7   9
ENDBRANCH   6   7
BRANCH   1  13
HETATM   13  C   LIG     1      14.708  33.574  21.037  1.00  0.00     0.042 C 
BRANCH  13  14
HETATM   14  C   LIG     1      15.527  32.828  19.961  1.00  0.00    -0.019 C 
HETATM   15  C   LIG     1      15.292  33.461  18.583  1.00  0.00     0.010 C 
HETATM   16  C   LIG     1      15.175  31.333  19.919  1.00  0.00     0.010 C 
ENDBRANCH  13  14
ENDBRANCH   1  13
TORSDOF 5
ENDMDL
MODEL 6
REMARK VINA RESULT:      -6.7      9.498     11.286
REMARK  5 active torsions:
REMARK  status: ('A' for Active; 'I' for Inactive)
REMARK    1  A    between atoms: C_2  and  C_3 
REMARK    2  A    between atoms: C_3  and  C_4 
REMARK    3  A    between atoms: C_9  and  C_10 
REMARK    4  A    between atoms: C_10  and  C_12 
REMARK    5  A    between atoms: C_12  and  O_13 
ROOT
HETATM    1  C   LIG     1      14.533  32.049  16.872  1.00  0.00    -0.058 A 
HETATM    2  C   LIG     1      15.552  31.924  15.917  1.00  0.00     0.007 A 
HETATM    3  C   LIG     1      15.447  30.983  14.887  1.00  0.00     0.008 A 
HETATM    4  C   LIG     1      13.404  31.223  16.779  1.00  0.00     0.007 A 
HETATM    5  C   LIG     1      13.300  30.277  15.755  1.00  0.00     0.008 A 
HETATM    6  C   LIG     1      14.314  30.152  14.789  1.00  0.00    -0.044 A 
ENDROOT
BRANCH   6   7
HETATM    7  C   LIG     1      14.179  29.098  13.702  1.00  0.00     0.112 C 
HETATM    8  C   LIG     1      15.355  28.111  13.664  1.00  0.00     0.026 C 
BRANCH   7   9
HETATM    9  C   LIG     1      12.857  28.381  13.810  1.00  0.00     0.148 C 
HETATM   10  O   LIG     1      12.833  27.185  14.207  1.00  0.00    -0.649 OA
BRANCH   9  11
HETATM   11  O   LIG     1      11.655  29.005  13.484  1.00  0.00    -0.776 OA
HETATM   12  H   LIG     1      10.761  28.640  13.786  1.00  0.00     0.167 HD
ENDBRANCH   9  11
ENDBRANCH   7   9
ENDBRANCH   6   7
BRANCH   1  13
HETATM   13  C   LIG     1      14.640  33.073  17.976  1.00  0.00     0.042 C 
BRANCH  13  14
HETATM   14  C   LIG     1      15.464  32.559  19.178  1.00  0.00    -0.019 C 
HETATM   15  C   LIG     1      14.774  31.344  19.811  1.00  0.00     0.010 C 
HETATM   16  C   LIG     1      15.667  33.657  20.233  1.00  0.00     0.010 C 
ENDBRANCH  13  14
ENDBRANCH   1  13
TORSDOF 5
ENDMDL
MODEL 7
REMARK VINA RESULT:      -6.4      6.183      8.070
REMARK  5 active torsions:
REMARK  status: ('A' for Active; 'I' for Inactive)
REMARK    1  A    between atoms: C_2  and  C_3 
REMARK    2  A    between atoms: C_3  and  C_4 
REMARK    3  A    between atoms: C_9  and  C_10 
REMARK    4  A    between atoms: C_10  and  C_12 
REMARK    5  A    between atoms: C_12  and  O_13 
ROOT
HETATM    1  C   LIG     1      15.445  34.177  19.938  1.00  0.00    -0.058 A 
HETATM    2  C   LIG     1      15.382  34.776  18.672  1.00  0.00     0.007 A 
HETATM    3  C   LIG     1      15.313  33.990  17.518  1.00  0.00     0.008 A 
HETATM    4  C   LIG     1      15.433  32.777  20.033  1.00  0.00     0.007 A 
HETATM    5  C   LIG     1      15.371  31.989  18.881  1.00  0.00     0.008 A 
HETATM    6  C   LIG     1      15.298  32.584  17.608  1.00  0.00    -0.044 A 
ENDROOT
BRANCH   6   7
HETATM    7  C   LIG     1      15.255  31.698  16.375  1.00  0.00     0.112 C 
HETATM    8  C   LIG     1      13.839  31.507  15.812  1.00  0.00     0.026 C 
BRANCH   7   9
HETATM    9  C   LIG     1      16.208  32.200  15.319  1.00  0.00     0.148 C 
HETATM   10  O   LIG     1      17.448  32.163  15.539  1.00  0.00    -0.649 OA
BRANCH   9  11
HETATM   11  O   LIG     1      15.756  32.704  14.102  1.00  0.00    -0.776 OA
HETATM   12  H   LIG     1      15.155  33.516  14.045  1.00  0.00     0.167 HD
ENDBRANCH   9  11
ENDBRANCH   7   9
ENDBRANCH   6   7
BRANCH   1  13
HETATM   13  C   LIG     1      15.507  35.025  21.185  1.00  0.00     0.042 C 
BRANCH  13  14
HETATM   14  C   LIG     1      16.956  35.263  21.664  1.00  0.00    -0.019 C 
HETATM   15  C   LIG     1      17.004  35.326  23.196  1.00  0.00     0.010 C 
HETATM   16  C   LIG     1      17.543  36.552  21.068  1.00  0.00     0.010 C 
ENDBRANCH  13  14
ENDBRANCH   1  13
TORSDOF 5
ENDMDL
MODEL 8
REMARK VINA RESULT:      -6.4      6.161      7.938
REMARK  5 active torsions:
REMARK  status: ('A' for Active; 'I' for Inactive)
REMARK    1  A    between atoms: C_2  and  C_3 
REMARK    2  A    between atoms: C_3  and  C_4 
REMARK    3  A    between atoms: C_9  and  C_10 
REMARK    4  A    between atoms: C_10  and  C_12 
REMARK    5  A    between atoms: C_12  and  O_13 
ROOT
HETATM    1  C   LIG     1      15.780  34.107  20.116  1.00  0.00    -0.058 A 
HETATM    2  C   LIG     1      15.578  34.940  19.007  1.00  0.00     0.007 A 
HETATM    3  C   LIG     1      15.151  34.406  17.787  1.00  0.00     0.008 A 
HETATM    4  C   LIG     1      15.543  32.730  19.988  1.00  0.00     0.007 A 
HETATM    5  C   LIG     1      15.124  32.193  18.767  1.00  0.00     0.008 A 
HETATM    6  C   LIG     1      14.911  33.025  17.654  1.00  0.00    -0.044 A 
ENDROOT
BRANCH   6   7
HETATM    7  C   LIG     1      14.476  32.406  16.336  1.00  0.00     0.112 C 
HETATM    8  C   LIG     1      15.646  31.851  15.510  1.00  0.00     0.026 C 
BRANCH   7   9
HETATM    9  C   LIG     1      13.411  31.362  16.558  1.00  0.00     0.148 C 
HETATM   10  O   LIG     1      13.603  30.186  16.148  1.00  0.00    -0.649 OA
BRANCH   9  11
HETATM   11  O   LIG     1      12.215  31.660  17.207  1.00  0.00    -0.776 OA
HETATM   12  H   LIG     1      11.873  32.608  17.298  1.00  0.00     0.167 HD
ENDBRANCH   9  11
ENDBRANCH   7   9
ENDBRANCH   6   7
BRANCH   1  13
HETATM   13  C   LIG     1      16.228  34.683  21.436  1.00  0.00     0.042 C 
BRANCH  13  14
HETATM   14  C   LIG     1      16.556  36.189  21.341  1.00  0.00    -0.019 C 
HETATM   15  C   LIG     1      17.946  36.390  20.722  1.00  0.00     0.010 C 
HETATM   16  C   LIG     1      16.491  36.870  22.717  1.00  0.00     0.010 C 
ENDBRANCH  13  14
ENDBRANCH   1  13
TORSDOF 5
ENDMDL
MODEL 9
REMARK VINA RESULT:      -6.3      5.242      6.646
REMARK  5 active torsions:
REMARK  status: ('A' for Active; 'I' for Inactive)
REMARK    1  A    between atoms: C_2  and  C_3 
REMARK    2  A    between atoms: C_3  and  C_4 
REMARK    3  A    between atoms: C_9  and  C_10 
REMARK    4  A    between atoms: C_10  and  C_12 
REMARK    5  A    between atoms: C_12  and  O_13 
ROOT
HETATM    1  C   LIG     1      15.118  32.936  17.500  1.00  0.00    -0.058 A 
HETATM    2  C   LIG     1      15.107  32.114  18.637  1.00  0.00     0.007 A 
HETATM    3  C   LIG     1      15.373  32.649  19.901  1.00  0.00     0.008 A 
HETATM    4  C   LIG     1      15.397  34.303  17.648  1.00  0.00     0.007 A 
HETATM    5  C   LIG     1      15.670  34.838  18.910  1.00  0.00     0.008 A 
HETATM    6  C   LIG     1      15.651  34.021  20.055  1.00  0.00    -0.044 A 
ENDROOT
BRANCH   6   7
HETATM    7  C   LIG     1      15.975  34.631  21.408  1.00  0.00     0.112 C 
HETATM    8  C   LIG     1      17.478  34.855  21.630  1.00  0.00     0.026 C 
BRANCH   7   9
HETATM    9  C   LIG     1      15.188  35.898  21.629  1.00  0.00     0.148 C 
HETATM   10  O   LIG     1      15.728  36.864  22.231  1.00  0.00    -0.649 OA
BRANCH   9  11
HETATM   11  O   LIG     1      13.875  36.034  21.184  1.00  0.00    -0.776 OA
HETATM   12  H   LIG     1      13.148  35.380  21.444  1.00  0.00     0.167 HD
ENDBRANCH   9  11
ENDBRANCH   7   9
ENDBRANCH   6   7
BRANCH   1  13
HETATM   13  C   LIG     1      14.819  32.362  16.137  1.00  0.00     0.042 C 
BRANCH  13  14
HETATM   14  C   LIG     1      14.153  30.971  16.216  1.00  0.00    -0.019 C 
HETATM   15  C   LIG     1      14.476  30.157  14.956  1.00  0.00     0.010 C 
HETATM   16  C   LIG     1      12.631  31.083  16.392  1.00  0.00     0.010 C 
ENDBRANCH  13  14
ENDBRANCH   1  13
TORSDOF 5
ENDMDL
MODEL 10
REMARK VINA RESULT:      -6.3      9.460     10.688
REMARK  5 active torsions:
REMARK  status: ('A' for Active; 'I' for Inactive)
REMARK    1  A    between atoms: C_2  and  C_3 
REMARK    2  A    between atoms: C_3  and  C_4 
REMARK    3  A    between atoms: C_9  and  C_10 
REMARK    4  A    between atoms: C_10  and  C_12 
REMARK    5  A    between atoms: C_12  and  O_13 
ROOT
HETATM    1  C   LIG     1      17.173  33.286  13.938  1.00  0.00    -0.058 A 
HETATM    2  C   LIG     1      16.891  33.167  15.307  1.00  0.00     0.007 A 
HETATM    3  C   LIG     1      15.998  32.193  15.764  1.00  0.00     0.008 A 
HETATM    4  C   LIG     1      16.551  32.412  13.034  1.00  0.00     0.007 A 
HETATM    5  C   LIG     1      15.653  31.442  13.489  1.00  0.00     0.008 A 
HETATM    6  C   LIG     1      15.373  31.312  14.861  1.00  0.00    -0.044 A 
ENDROOT
BRANCH   6   7
HETATM    7  C   LIG     1      14.375  30.262  15.319  1.00  0.00     0.112 C 
HETATM    8  C   LIG     1      13.020  30.852  15.735  1.00  0.00     0.026 C 
BRANCH   7   9
HETATM    9  C   LIG     1      14.213  29.183  14.277  1.00  0.00     0.148 C 
HETATM   10  O   LIG     1      15.201  28.459  13.980  1.00  0.00    -0.649 OA
BRANCH   9  11
HETATM   11  O   LIG     1      13.000  28.962  13.631  1.00  0.00    -0.776 OA
HETATM   12  H   LIG     1      12.670  28.032  13.409  1.00  0.00     0.167 HD
ENDBRANCH   9  11
ENDBRANCH   7   9
ENDBRANCH   6   7
BRANCH   1  13
HETATM   13  C   LIG     1      18.145  34.329  13.444  1.00  0.00     0.042 C 
BRANCH  13  14
HETATM   14  C   LIG     1      19.031  33.809  12.290  1.00  0.00    -0.019 C 
HETATM   15  C   LIG     1      20.505  33.800  12.717  1.00  0.00     0.010 C 
HETATM   16  C   LIG     1      18.857  34.655  11.020  1.00  0.00     0.010 C 
ENDBRANCH  13  14
ENDBRANCH   1  13
TORSDOF 5
ENDMDL
MODEL 11
REMARK VINA RESULT:      -6.2      8.650     10.969
REMARK  5 active torsions:
REMARK  status: ('A' for Active; 'I' for Inactive)
REMARK    1  A    between atoms: C_2  and  C_3 
REMARK    2  A    between atoms: C_3  and  C_4 
REMARK    3  A    between atoms: C_9  and  C_10 
REMARK    4  A    between atoms: C_10  and  C_12 
REMARK    5  A    between atoms: C_12  and  O_13 
ROOT
HETATM    1  C   LIG     1      15.698  31.932  15.027  1.00  0.00    -0.058 A 
HETATM    2  C   LIG     1      15.836  31.694  13.652  1.00  0.00     0.007 A 
HETATM    3  C   LIG     1      16.779  32.405  12.901  1.00  0.00     0.008 A 
HETATM    4  C   LIG     1      16.519  32.889  15.641  1.00  0.00     0.007 A 
HETATM    5  C   LIG     1      17.456  33.605  14.891  1.00  0.00     0.008 A 
HETATM    6  C   LIG     1      17.607  33.365  13.514  1.00  0.00    -0.044 A 
ENDROOT
BRANCH   6   7
HETATM    7  C   LIG     1      18.620  34.177  12.724  1.00  0.00     0.112 C 
HETATM    8  C   LIG     1      19.790  33.338  12.192  1.00  0.00     0.026 C 
BRANCH   7   9
HETATM    9  C   LIG     1      17.944  34.950  11.619  1.00  0.00     0.148 C 
HETATM   10  O   LIG     1      17.037  35.776  11.907  1.00  0.00    -0.649 OA
BRANCH   9  11
HETATM   11  O   LIG     1      18.294  34.777  10.282  1.00  0.00    -0.776 OA
HETATM   12  H   LIG     1      19.103  35.228   9.874  1.00  0.00     0.167 HD
ENDBRANCH   9  11
ENDBRANCH   7   9
ENDBRANCH   6   7
BRANCH   1  13
HETATM   13  C   LIG     1      14.690  31.158  15.841  1.00  0.00     0.042 C 
BRANCH  13  14
HETATM   14  C   LIG     1      13.949  32.048  16.863  1.00  0.00    -0.019 C 
HETATM   15  C   LIG     1      14.419  31.722  18.287  1.00  0.00     0.010 C 
HETATM   16  C   LIG     1      12.425  31.876  16.760  1.00  0.00     0.010 C 
ENDBRANCH  13  14
ENDBRANCH   1  13
TORSDOF 5
ENDMDL
MODEL 12
REMARK VINA RESULT:      -6.1      8.530     10.005
REMARK  5 active torsions:
REMARK  status: ('A' for Active; 'I' for Inactive)
REMARK    1  A    between atoms: C_2  and  C_3 
REMARK    2  A    between atoms: C_3  and  C_4 
REMARK    3  A    between atoms: C_9  and  C_10 
REMARK    4  A    between atoms: C_10  and  C_12 
REMARK    5  A    between atoms: C_12  and  O_13 
ROOT
HETATM    1  C   LIG     1      14.756  30.396  14.581  1.00  0.00    -0.058 A 
HETATM    2  C   LIG     1      15.840  31.248  14.841  1.00  0.00     0.007 A 
HETATM    3  C   LIG     1      15.842  32.065  15.976  1.00  0.00     0.008 A 
HETATM    4  C   LIG     1      13.676  30.370  15.476  1.00  0.00     0.007 A 
HETATM    5  C   LIG     1      13.674  31.192  16.607  1.00  0.00     0.008 A 
HETATM    6  C   LIG     1      14.761  32.041  16.878  1.00  0.00    -0.044 A 
ENDROOT
BRANCH   6   7
HETATM    7  C   LIG     1      14.716  32.938  18.105  1.00  0.00     0.112 C 
HETATM    8  C   LIG     1      15.434  32.339  19.322  1.00  0.00     0.026 C 
BRANCH   7   9
HETATM    9  C   LIG     1      15.231  34.318  17.781  1.00  0.00     0.148 C 
HETATM   10  O   LIG     1      14.971  34.826  16.657  1.00  0.00    -0.649 OA
BRANCH   9  11
HETATM   11  O   LIG     1      15.987  35.052  18.691  1.00  0.00    -0.776 OA
HETATM   12  H   LIG     1      16.981  35.201  18.569  1.00  0.00     0.167 HD
ENDBRANCH   9  11
ENDBRANCH   7   9
ENDBRANCH   6   7
BRANCH   1  13
HETATM   13  C   LIG     1      14.758  29.504  13.363  1.00  0.00     0.042 C 
BRANCH  13  14
HETATM   14  C   LIG     1      14.790  28.004  13.732  1.00  0.00    -0.019 C 
HETATM   15  C   LIG     1      15.748  27.251  12.799  1.00  0.00     0.010 C 
HETATM   16  C   LIG     1      13.390  27.376  13.664  1.00  0.00     0.010 C 
ENDBRANCH  13  14
ENDBRANCH   1  13
TORSDOF 5
ENDMDL
MODEL 13
REMARK VINA RESULT:      -6.1      3.920      6.059
REMARK  5 active torsions:
REMARK  status: ('A' for Active; 'I' for Inactive)
REMARK    1  A    between atoms: C_2  and  C_3 
REMARK    2  A    between atoms: C_3  and  C_4 
REMARK    3  A    between atoms: C_9  and  C_10 
REMARK    4  A    between atoms: C_10  and  C_12 
REMARK    5  A    between atoms: C_12  and  O_13 
ROOT
HETATM    1  C   LIG     1      16.633  36.967  22.250  1.00  0.00    -0.058 A 
HETATM    2  C   LIG     1      15.265  36.660  22.237  1.00  0.00     0.007 A 
HETATM    3  C   LIG     1      14.745  35.780  21.282  1.00  0.00     0.008 A 
HETATM    4  C   LIG     1      17.475  36.377  21.295  1.00  0.00     0.007 A 
HETATM    5  C   LIG     1      16.955  35.503  20.336  1.00  0.00     0.008 A 
HETATM    6  C   LIG     1      15.586  35.184  20.323  1.00  0.00    -0.044 A 
ENDROOT
BRANCH   6   7
HETATM    7  C   LIG     1      15.051  34.248  19.252  1.00  0.00     0.112 C 
HETATM    8  C   LIG     1      15.711  34.452  17.881  1.00  0.00     0.026 C 
BRANCH   7   9
HETATM    9  C   LIG     1      15.139  32.811  19.701  1.00  0.00     0.148 C 
HETATM   10  O   LIG     1      16.075  32.086  19.271  1.00  0.00    -0.649 OA
BRANCH   9  11
HETATM   11  O   LIG     1      14.212  32.259  20.582  1.00  0.00    -0.776 OA
HETATM   12  H   LIG     1      13.302  31.939  20.276  1.00  0.00     0.167 HD
ENDBRANCH   9  11
ENDBRANCH   7   9
ENDBRANCH   6   7
BRANCH   1  13
HETATM   13  C   LIG     1      17.198  37.906  23.287  1.00  0.00     0.042 C 
BRANCH  13  14
HETATM   14  C   LIG     1      16.899  37.440  24.729  1.00  0.00    -0.019 C 
HETATM   15  C   LIG     1      17.448  38.457  25.739  1.00  0.00     0.010 C 
HETATM   16  C   LIG     1      17.493  36.050  25.008  1.00  0.00     0.010 C 
ENDBRANCH  13  14
ENDBRANCH   1  13
TORSDOF 5
ENDMDL
MODEL 14
REMARK VINA RESULT:      -6.0      2.832      4.789
REMARK  5 active torsions:
REMARK  status: ('A' for Active; 'I' for Inactive)
REMARK    1  A    between atoms: C_2  and  C_3 
REMARK    2  A    between atoms: C_3  and  C_4 
REMARK    3  A    between atoms: C_9  and  C_10 
REMARK    4  A    between atoms: C_10  and  C_12 
REMARK    5  A    between atoms: C_12  and  O_13 
ROOT
HETATM    1  C   LIG     1      15.935  34.787  19.857  1.00  0.00    -0.058 A 
HETATM    2  C   LIG     1      16.935  35.718  19.542  1.00  0.00     0.007 A 
HETATM    3  C   LIG     1      17.436  36.579  20.523  1.00  0.00     0.008 A 
HETATM    4  C   LIG     1      15.445  34.728  21.170  1.00  0.00     0.007 A 
HETATM    5  C   LIG     1      15.940  35.593  22.150  1.00  0.00     0.008 A 
HETATM    6  C   LIG     1      16.950  36.522  21.843  1.00  0.00    -0.044 A 
ENDROOT
BRANCH   6   7
HETATM    7  C   LIG     1      17.448  37.464  22.927  1.00  0.00     0.112 C 
HETATM    8  C   LIG     1      18.141  38.716  22.373  1.00  0.00     0.026 C 
BRANCH   7   9
HETATM    9  C   LIG     1      16.336  37.821  23.881  1.00  0.00     0.148 C 
HETATM   10  O   LIG     1      16.560  37.813  25.121  1.00  0.00    -0.649 OA
BRANCH   9  11
HETATM   11  O   LIG     1      15.064  38.163  23.430  1.00  0.00    -0.776 OA
HETATM   12  H   LIG     1      14.349  38.518  24.053  1.00  0.00     0.167 HD
ENDBRANCH   9  11
ENDBRANCH   7   9
ENDBRANCH   6   7
BRANCH   1  13
HETATM   13  C   LIG     1      15.402  33.848  18.802  1.00  0.00     0.042 C 
BRANCH  13  14
HETATM   14  C   LIG     1      14.943  32.497  19.394  1.00  0.00    -0.019 C 
HETATM   15  C   LIG     1      16.147  31.730  19.957  1.00  0.00     0.010 C 
HETATM   16  C   LIG     1      14.219  31.639  18.345  1.00  0.00     0.010 C 
ENDBRANCH  13  14
ENDBRANCH   1  13
TORSDOF 5
ENDMDL
MODEL 15
REMARK VINA RESULT:      -5.8      9.345     11.501
REMARK  5 active torsions:
REMARK  status: ('A' for Active; 'I' for Inactive)
REMARK    1  A    between atoms: C_2  and  C_3 
REMARK    2  A    between atoms: C_3  and  C_4 
REMARK    3  A    between atoms: C_9  and  C_10 
REMARK    4  A    between atoms: C_10  and  C_12 
REMARK    5  A    between atoms: C_12  and  O_13 
ROOT
HETATM    1  C   LIG     1      15.738  31.475  14.615  1.00  0.00    -0.058 A 
HETATM    2  C   LIG     1      15.862  31.679  13.233  1.00  0.00     0.007 A 
HETATM    3  C   LIG     1      16.792  32.596  12.733  1.00  0.00     0.008 A 
HETATM    4  C   LIG     1      16.562  32.198  15.490  1.00  0.00     0.007 A 
HETATM    5  C   LIG     1      17.488  33.120  14.992  1.00  0.00     0.008 A 
HETATM    6  C   LIG     1      17.624  33.323  13.607  1.00  0.00    -0.044 A 
ENDROOT
BRANCH   6   7
HETATM    7  C   LIG     1      18.624  34.349  13.101  1.00  0.00     0.112 C 
HETATM    8  C   LIG     1      20.033  33.776  12.898  1.00  0.00     0.026 C 
BRANCH   7   9
HETATM    9  C   LIG     1      18.115  35.024  11.852  1.00  0.00     0.148 C 
HETATM   10  O   LIG     1      18.718  34.839  10.761  1.00  0.00    -0.649 OA
BRANCH   9  11
HETATM   11  O   LIG     1      16.993  35.850  11.868  1.00  0.00    -0.776 OA
HETATM   12  H   LIG     1      17.001  36.777  11.462  1.00  0.00     0.167 HD
ENDBRANCH   9  11
ENDBRANCH   7   9
ENDBRANCH   6   7
BRANCH   1  13
HETATM   13  C   LIG     1      14.743  30.477  15.156  1.00  0.00     0.042 C 
BRANCH  13  14
HETATM   14  C   LIG     1      14.227  29.511  14.067  1.00  0.00    -0.019 C 
HETATM   15  C   LIG     1      12.801  29.052  14.400  1.00  0.00     0.010 C 
HETATM   16  C   LIG     1      15.148  28.290  13.914  1.00  0.00     0.010 C 
ENDBRANCH  13  14
ENDBRANCH   1  13
TORSDOF 5
ENDMDL
MODEL 16
REMARK VINA RESULT:      -5.8      8.735     10.301
REMARK  5 active torsions:
REMARK  status: ('A' for Active; 'I' for Inactive)
REMARK    1  A    between atoms: C_2  and  C_3 
REMARK    2  A    between atoms: C_3  and  C_4 
REMARK    3  A    between atoms: C_9  and  C_10 
REMARK    4  A    between atoms: C_10  and  C_12 
REMARK    5  A    between atoms: C_12  and  O_13 
ROOT
HETATM    1  C   LIG     1      13.577  30.202  14.888  1.00  0.00    -0.058 A 
HETATM    2  C   LIG     1      14.896  30.656  14.740  1.00  0.00     0.007 A 
HETATM    3  C   LIG     1      15.472  31.488  15.706  1.00  0.00     0.008 A 
HETATM    4  C   LIG     1      12.844  30.590  16.020  1.00  0.00     0.007 A 
HETATM    5  C   LIG     1      13.416  31.427  16.982  1.00  0.00     0.008 A 
HETATM    6  C   LIG     1      14.741  31.878  16.844  1.00  0.00    -0.044 A 
ENDROOT
BRANCH   6   7
HETATM    7  C   LIG     1      15.323  32.805  17.898  1.00  0.00     0.112 C 
HETATM    8  C   LIG     1      15.022  34.288  17.636  1.00  0.00     0.026 C 
BRANCH   7   9
HETATM    9  C   LIG     1      14.890  32.387  19.280  1.00  0.00     0.148 C 
HETATM   10  O   LIG     1      14.679  31.168  19.519  1.00  0.00    -0.649 OA
BRANCH   9  11
HETATM   11  O   LIG     1      14.717  33.312  20.307  1.00  0.00    -0.776 OA
HETATM   12  H   LIG     1      15.167  33.208  21.207  1.00  0.00     0.167 HD
ENDBRANCH   9  11
ENDBRANCH   7   9
ENDBRANCH   6   7
BRANCH   1  13
HETATM   13  C   LIG     1      12.959  29.295  13.853  1.00  0.00     0.042 C 
BRANCH  13  14
HETATM   14  C   LIG     1      13.356  27.816  14.054  1.00  0.00    -0.019 C 
HETATM   15  C   LIG     1      14.782  27.577  13.541  1.00  0.00     0.010 C 
HETATM   16  C   LIG     1      12.377  26.867  13.345  1.00  0.00     0.010 C 
ENDBRANCH  13  14
ENDBRANCH   1  13
TORSDOF 5
ENDMDL
MODEL 17
REMARK VINA RESULT:      -5.7     10.629     12.273
REMARK  5 active torsions:
REMARK  status: ('A' for Active; 'I' for Inactive)
REMARK    1  A    between atoms: C_2  and  C_3 
REMARK    2  A    between atoms: C_3  and  C_4 
REMARK    3  A    between atoms: C_9  and  C_10 
REMARK    4  A    between atoms: C_10  and  C_12 
REMARK    5  A    between atoms: C_12  and  O_13 
ROOT
HETATM    1  C   LIG     1      13.531  28.616  14.245  1.00  0.00    -0.058 A 
HETATM    2  C   LIG     1      14.831  28.909  13.811  1.00  0.00     0.007 A 
HETATM    3  C   LIG     1      15.443  30.115  14.168  1.00  0.00     0.008 A 
HETATM    4  C   LIG     1      12.851  29.546  15.046  1.00  0.00     0.007 A 
HETATM    5  C   LIG     1      13.458  30.754  15.398  1.00  0.00     0.008 A 
HETATM    6  C   LIG     1      14.766  31.050  14.974  1.00  0.00    -0.044 A 
ENDROOT
BRANCH   6   7
HETATM    7  C   LIG     1      15.387  32.384  15.356  1.00  0.00     0.112 C 
HETATM    8  C   LIG     1      15.614  32.538  16.867  1.00  0.00     0.026 C 
BRANCH   7   9
HETATM    9  C   LIG     1      16.655  32.628  14.578  1.00  0.00     0.148 C 
HETATM   10  O   LIG     1      17.769  32.459  15.142  1.00  0.00    -0.649 OA
BRANCH   9  11
HETATM   11  O   LIG     1      16.633  33.036  13.246  1.00  0.00    -0.776 OA
HETATM   12  H   LIG     1      17.212  32.601  12.540  1.00  0.00     0.167 HD
ENDBRANCH   9  11
ENDBRANCH   7   9
ENDBRANCH   6   7
BRANCH   1  13
HETATM   13  C   LIG     1      12.874  27.309  13.870  1.00  0.00     0.042 C 
BRANCH  13  14
HETATM   14  C   LIG     1      12.010  27.428  12.596  1.00  0.00    -0.019 C 
HETATM   15  C   LIG     1      10.801  28.336  12.859  1.00  0.00     0.010 C 
HETATM   16  C   LIG     1      11.535  26.051  12.105  1.00  0.00     0.010 C 
ENDBRANCH  13  14
ENDBRANCH   1  13
TORSDOF 5
ENDMDL
MODEL 18
REMARK VINA RESULT:      -5.7      4.981      6.135
REMARK  5 active torsions:
REMARK  status: ('A' for Active; 'I' for Inactive)
REMARK    1  A    between atoms: C_2  and  C_3 
REMARK    2  A    between atoms: C_3  and  C_4 
REMARK    3  A    between atoms: C_9  and  C_10 
REMARK    4  A    between atoms: C_10  and  C_12 
REMARK    5  A    between atoms: C_12  and  O_13 
ROOT
HETATM    1  C   LIG     1      15.043  32.725  17.902  1.00  0.00    -0.058 A 
HETATM    2  C   LIG     1      15.392  32.254  19.176  1.00  0.00     0.007 A 
HETATM    3  C   LIG     1      15.746  33.150  20.190  1.00  0.00     0.008 A 
HETATM    4  C   LIG     1      15.049  34.106  17.658  1.00  0.00     0.007 A 
HETATM    5  C   LIG     1      15.410  35.002  18.668  1.00  0.00     0.008 A 
HETATM    6  C   LIG     1      15.752  34.538  19.951  1.00  0.00    -0.044 A 
ENDROOT
BRANCH   6   7
HETATM    7  C   LIG     1      16.161  35.538  21.019  1.00  0.00     0.112 C 
HETATM    8  C   LIG     1      16.483  34.886  22.371  1.00  0.00     0.026 C 
BRANCH   7   9
HETATM    9  C   LIG     1      17.298  36.404  20.537  1.00  0.00     0.148 C 
HETATM   10  O   LIG     1      17.882  36.113  19.458  1.00  0.00    -0.649 OA
BRANCH   9  11
HETATM   11  O   LIG     1      17.724  37.522  21.250  1.00  0.00    -0.776 OA
HETATM   12  H   LIG     1      17.134  37.982  21.931  1.00  0.00     0.167 HD
ENDBRANCH   9  11
ENDBRANCH   7   9
ENDBRANCH   6   7
BRANCH   1  13
HETATM   13  C   LIG     1      14.648  31.760  16.811  1.00  0.00     0.042 C 
BRANCH  13  14
HETATM   14  C   LIG     1      15.348  32.070  15.469  1.00  0.00    -0.019 C 
HETATM   15  C   LIG     1      15.048  30.964  14.448  1.00  0.00     0.010 C 
HETATM   16  C   LIG     1      16.866  32.222  15.647  1.00  0.00     0.010 C 
ENDBRANCH  13  14
ENDBRANCH   1  13
TORSDOF 5
ENDMDL
MODEL 19
REMARK VINA RESULT:      -5.6      9.050     11.012
REMARK  5 active torsions:
REMARK  status: ('A' for Active; 'I' for Inactive)
REMARK    1  A    between atoms: C_2  and  C_3 
REMARK    2  A    between atoms: C_3  and  C_4 
REMARK    3  A    between atoms: C_9  and  C_10 
REMARK    4  A    between atoms: C_10  and  C_12 
REMARK    5  A    between atoms: C_12  and  O_13 
ROOT
HETATM    1  C   LIG     1      14.635  30.566  14.525  1.00  0.00    -0.058 A 
HETATM    2  C   LIG     1      15.336  30.852  13.344  1.00  0.00     0.007 A 
HETATM    3  C   LIG     1      16.354  31.811  13.339  1.00  0.00     0.008 A 
HETATM    4  C   LIG     1      14.971  31.251  15.702  1.00  0.00     0.007 A 
HETATM    5  C   LIG     1      15.984  32.214  15.697  1.00  0.00     0.008 A 
HETATM    6  C   LIG     1      16.697  32.499  14.519  1.00  0.00    -0.044 A 
ENDROOT
BRANCH   6   7
HETATM    7  C   LIG     1      17.776  33.569  14.543  1.00  0.00     0.112 C 
HETATM    8  C   LIG     1      18.522  33.711  13.209  1.00  0.00     0.026 C 
BRANCH   7   9
HETATM    9  C   LIG     1      17.214  34.889  15.007  1.00  0.00     0.148 C 
HETATM   10  O   LIG     1      16.963  35.058  16.231  1.00  0.00    -0.649 OA
BRANCH   9  11
HETATM   11  O   LIG     1      16.962  35.932  14.120  1.00  0.00    -0.776 OA
HETATM   12  H   LIG     1      17.693  36.555  13.799  1.00  0.00     0.167 HD
ENDBRANCH   9  11
ENDBRANCH   7   9
ENDBRANCH   6   7
BRANCH   1  13
HETATM   13  C   LIG     1      13.544  29.523  14.535  1.00  0.00     0.042 C 
BRANCH  13  14
HETATM   14  C   LIG     1      13.828  28.364  13.555  1.00  0.00    -0.019 C 
HETATM   15  C   LIG     1      12.678  27.349  13.587  1.00  0.00     0.010 C 
HETATM   16  C   LIG     1      15.156  27.662  13.880  1.00  0.00     0.010 C 
ENDBRANCH  13  14
ENDBRANCH   1  13
TORSDOF 5
ENDMDL
MODEL 20
REMARK VINA RESULT:      -5.5      4.465      6.346
REMARK  5 active torsions:
REMARK  status: ('A' for Active; 'I' for Inactive)
REMARK    1  A    between atoms: C_2  and  C_3 
REMARK    2  A    between atoms: C_3  and  C_4 
REMARK    3  A    between atoms: C_9  and  C_10 
REMARK    4  A    between atoms: C_10  and  C_12 
REMARK    5  A    between atoms: C_12  and  O_13 
ROOT
HETATM    1  C   LIG     1      15.982  36.332  21.894  1.00  0.00    -0.058 A 
HETATM    2  C   LIG     1      14.903  35.453  22.066  1.00  0.00     0.007 A 
HETATM    3  C   LIG     1      14.758  34.338  21.233  1.00  0.00     0.008 A 
HETATM    4  C   LIG     1      16.917  36.077  20.880  1.00  0.00     0.007 A 
HETATM    5  C   LIG     1      16.770  34.967  20.043  1.00  0.00     0.008 A 
HETATM    6  C   LIG     1      15.695  34.077  20.216  1.00  0.00    -0.044 A 
ENDROOT
BRANCH   6   7
HETATM    7  C   LIG     1      15.552  32.893  19.273  1.00  0.00     0.112 C 
HETATM    8  C   LIG     1      14.879  31.676  19.923  1.00  0.00     0.026 C 
BRANCH   7   9
HETATM    9  C   LIG     1      14.852  33.301  18.001  1.00  0.00     0.148 C 
HETATM   10  O   LIG     1      14.164  32.450  17.375  1.00  0.00    -0.649 OA
BRANCH   9  11
HETATM   11  O   LIG     1      14.942  34.595  17.496  1.00  0.00    -0.776 OA
HETATM   12  H   LIG     1      15.039  35.403  18.097  1.00  0.00     0.167 HD
ENDBRANCH   9  11
ENDBRANCH   7   9
ENDBRANCH   6   7
BRANCH   1  13
HETATM   13  C   LIG     1      16.147  37.528  22.800  1.00  0.00     0.042 C 
BRANCH  13  14
HETATM   14  C   LIG     1      17.294  37.343  23.817  1.00  0.00    -0.019 C 
HETATM   15  C   LIG     1      17.238  35.937  24.428  1.00  0.00     0.010 C 
HETATM   16  C   LIG     1      17.238  38.402  24.929  1.00  0.00     0.010 C 
ENDBRANCH  13  14
ENDBRANCH   1  13
TORSDOF 5
ENDMDL
