MODEL 1
REMARK VINA RESULT:      -7.9      0.000      0.000
REMARK  1 active torsions:
REMARK  status: ('A' for Active; 'I' for Inactive)
REMARK    1  A    between atoms: C_9  and  C_10 
ROOT
HETATM    1 CL   LIG     1      18.153  37.934  21.677  1.00  0.00    -0.083 Cl
HETATM    2  C   LIG     1      17.149  36.507  21.441  1.00  0.00     0.046 A 
HETATM    3  C   LIG     1      16.745  36.192  20.138  1.00  0.00     0.050 A 
HETATM    4  C   LIG     1      15.993  35.040  19.885  1.00  0.00     0.057 A 
HETATM    5 CL   LIG     1      15.509  34.686  18.232  1.00  0.00    -0.082 Cl
HETATM    6  C   LIG     1      15.645  34.188  20.944  1.00  0.00     0.056 A 
HETATM    7 CL   LIG     1      14.705  32.727  20.667  1.00  0.00    -0.083 Cl
HETATM    8  C   LIG     1      16.046  34.499  22.247  1.00  0.00     0.039 A 
HETATM    9  C   LIG     1      16.791  35.660  22.512  1.00  0.00    -0.003 A 
ENDROOT
BRANCH   9  10
HETATM   10  C   LIG     1      17.183  35.961  23.907  1.00  0.00    -0.024 A 
HETATM   11  C   LIG     1      17.527  34.926  24.793  1.00  0.00     0.012 A 
HETATM   12  C   LIG     1      17.913  35.220  26.105  1.00  0.00     0.001 A 
HETATM   13  C   LIG     1      17.967  36.548  26.538  1.00  0.00     0.000 A 
HETATM   14  C   LIG     1      17.638  37.584  25.660  1.00  0.00     0.001 A 
HETATM   15  C   LIG     1      17.252  37.294  24.348  1.00  0.00     0.012 A 
ENDBRANCH   9  10
TORSDOF 1
ENDMDL
MODEL 2
REMARK VINA RESULT:      -6.8      7.727     10.827
REMARK  1 active torsions:
REMARK  status: ('A' for Active; 'I' for Inactive)
REMARK    1  A    between atoms: C_9  and  C_10 
ROOT
HETATM    1 CL   LIG     1      13.826  30.990  17.008  1.00  0.00    -0.083 Cl
HETATM    2  C   LIG     1      14.909  31.651  15.787  1.00  0.00     0.046 A 
HETATM    3  C   LIG     1      15.548  32.867  16.060  1.00  0.00     0.050 A 
HETATM    4  C   LIG     1      16.461  33.409  15.150  1.00  0.00     0.057 A 
HETATM    5 CL   LIG     1      17.241  34.938  15.537  1.00  0.00    -0.082 Cl
HETATM    6  C   LIG     1      16.745  32.729  13.956  1.00  0.00     0.056 A 
HETATM    7 CL   LIG     1      17.891  33.376  12.789  1.00  0.00    -0.083 Cl
HETATM    8  C   LIG     1      16.108  31.515  13.680  1.00  0.00     0.039 A 
HETATM    9  C   LIG     1      15.181  30.968  14.582  1.00  0.00    -0.003 A 
ENDROOT
BRANCH   9  10
HETATM   10  C   LIG     1      14.517  29.689  14.245  1.00  0.00    -0.024 A 
HETATM   11  C   LIG     1      13.117  29.575  14.296  1.00  0.00     0.012 A 
HETATM   12  C   LIG     1      12.496  28.368  13.959  1.00  0.00     0.001 A 
HETATM   13  C   LIG     1      13.266  27.271  13.562  1.00  0.00     0.000 A 
HETATM   14  C   LIG     1      14.657  27.379  13.498  1.00  0.00     0.001 A 
HETATM   15  C   LIG     1      15.282  28.584  13.834  1.00  0.00     0.012 A 
ENDBRANCH   9  10
TORSDOF 1
ENDMDL
MODEL 3
REMARK VINA RESULT:      -6.7      2.844      5.516
REMARK  1 active torsions:
REMARK  status: ('A' for Active; 'I' for Inactive)
REMARK    1  A    between atoms: C_9  and  C_10 
ROOT
HETATM    1 CL   LIG     1      16.710  34.817  20.925  1.00  0.00    -0.083 Cl
HETATM    2  C   LIG     1      17.101  35.573  22.466  1.00  0.00     0.046 A 
HETATM    3  C   LIG     1      16.778  34.883  23.641  1.00  0.00     0.050 A 
HETATM    4  C   LIG     1      17.116  35.411  24.892  1.00  0.00     0.057 A 
HETATM    5 CL   LIG     1      16.691  34.508  26.339  1.00  0.00    -0.082 Cl
HETATM    6  C   LIG     1      17.789  36.640  24.971  1.00  0.00     0.056 A 
HETATM    7 CL   LIG     1      18.236  37.334  26.525  1.00  0.00    -0.083 Cl
HETATM    8  C   LIG     1      18.113  37.333  23.801  1.00  0.00     0.039 A 
HETATM    9  C   LIG     1      17.768  36.816  22.541  1.00  0.00    -0.003 A 
ENDROOT
BRANCH   9  10
HETATM   10  C   LIG     1      18.114  37.587  21.327  1.00  0.00    -0.024 A 
HETATM   11  C   LIG     1      18.140  38.992  21.354  1.00  0.00     0.012 A 
HETATM   12  C   LIG     1      18.486  39.714  20.208  1.00  0.00     0.001 A 
HETATM   13  C   LIG     1      18.816  39.039  19.029  1.00  0.00     0.000 A 
HETATM   14  C   LIG     1      18.804  37.642  18.995  1.00  0.00     0.001 A 
HETATM   15  C   LIG     1      18.459  36.917  20.140  1.00  0.00     0.012 A 
ENDBRANCH   9  10
TORSDOF 1
ENDMDL
MODEL 4
REMARK VINA RESULT:      -6.2      1.006      1.252
REMARK  1 active torsions:
REMARK  status: ('A' for Active; 'I' for Inactive)
REMARK    1  A    between atoms: C_9  and  C_10 
ROOT
HETATM    1 CL   LIG     1      17.913  37.283  20.285  1.00  0.00    -0.083 Cl
HETATM    2  C   LIG     1      16.828  35.908  20.462  1.00  0.00     0.046 A 
HETATM    3  C   LIG     1      16.455  35.207  19.308  1.00  0.00     0.050 A 
HETATM    4  C   LIG     1      15.641  34.074  19.396  1.00  0.00     0.057 A 
HETATM    5 CL   LIG     1      15.201  33.226  17.920  1.00  0.00    -0.082 Cl
HETATM    6  C   LIG     1      15.197  33.629  20.651  1.00  0.00     0.056 A 
HETATM    7 CL   LIG     1      14.176  32.205  20.804  1.00  0.00    -0.083 Cl
HETATM    8  C   LIG     1      15.566  34.326  21.806  1.00  0.00     0.039 A 
HETATM    9  C   LIG     1      16.374  35.472  21.727  1.00  0.00    -0.003 A 
ENDROOT
BRANCH   9  10
HETATM   10  C   LIG     1      16.729  36.190  22.970  1.00  0.00    -0.024 A 
HETATM   11  C   LIG     1      17.138  35.482  24.114  1.00  0.00     0.012 A 
HETATM   12  C   LIG     1      17.489  36.168  25.280  1.00  0.00     0.001 A 
HETATM   13  C   LIG     1      17.444  37.565  25.312  1.00  0.00     0.000 A 
HETATM   14  C   LIG     1      17.049  38.278  24.176  1.00  0.00     0.001 A 
HETATM   15  C   LIG     1      16.697  37.595  23.008  1.00  0.00     0.012 A 
ENDBRANCH   9  10
TORSDOF 1
ENDMDL
MODEL 5
REMARK VINA RESULT:      -6.0      2.883      6.050
REMARK  1 active torsions:
REMARK  status: ('A' for Active; 'I' for Inactive)
REMARK    1  A    between atoms: C_9  and  C_10 
ROOT
HETATM    1 CL   LIG     1      14.399  35.399  22.002  1.00  0.00    -0.083 Cl
HETATM    2  C   LIG     1      15.865  36.070  21.296  1.00  0.00     0.046 A 
HETATM    3  C   LIG     1      16.483  37.143  21.950  1.00  0.00     0.050 A 
HETATM    4  C   LIG     1      17.680  37.679  21.464  1.00  0.00     0.057 A 
HETATM    5 CL   LIG     1      18.418  39.026  22.320  1.00  0.00    -0.082 Cl
HETATM    6  C   LIG     1      18.272  37.134  20.315  1.00  0.00     0.056 A 
HETATM    7 CL   LIG     1      19.780  37.776  19.676  1.00  0.00    -0.083 Cl
HETATM    8  C   LIG     1      17.660  36.063  19.658  1.00  0.00     0.039 A 
HETATM    9  C   LIG     1      16.451  35.525  20.132  1.00  0.00    -0.003 A 
ENDROOT
BRANCH   9  10
HETATM   10  C   LIG     1      15.826  34.402  19.399  1.00  0.00    -0.024 A 
HETATM   11  C   LIG     1      15.450  34.546  18.053  1.00  0.00     0.012 A 
HETATM   12  C   LIG     1      14.876  33.475  17.362  1.00  0.00     0.001 A 
HETATM   13  C   LIG     1      14.682  32.250  18.007  1.00  0.00     0.000 A 
HETATM   14  C   LIG     1      15.063  32.093  19.342  1.00  0.00     0.001 A 
HETATM   15  C   LIG     1      15.637  33.163  20.036  1.00  0.00     0.012 A 
ENDBRANCH   9  10
TORSDOF 1
ENDMDL
MODEL 6
REMARK VINA RESULT:      -5.9      2.405      5.469
REMARK  1 active torsions:
REMARK  status: ('A' for Active; 'I' for Inactive)
REMARK    1  A    between atoms: C_9  and  C_10 
ROOT
HETATM    1 CL   LIG     1      16.154  38.701  22.321  1.00  0.00    -0.083 Cl
HETATM    2  C   LIG     1      16.810  37.495  23.424  1.00  0.00     0.046 A 
HETATM    3  C   LIG     1      17.232  37.919  24.690  1.00  0.00     0.050 A 
HETATM    4  C   LIG     1      17.709  36.996  25.627  1.00  0.00     0.057 A 
HETATM    5 CL   LIG     1      18.227  37.575  27.204  1.00  0.00    -0.082 Cl
HETATM    6  C   LIG     1      17.760  35.633  25.299  1.00  0.00     0.056 A 
HETATM    7 CL   LIG     1      18.348  34.440  26.451  1.00  0.00    -0.083 Cl
HETATM    8  C   LIG     1      17.340  35.205  24.036  1.00  0.00     0.039 A 
HETATM    9  C   LIG     1      16.870  36.126  23.085  1.00  0.00    -0.003 A 
ENDROOT
BRANCH   9  10
HETATM   10  C   LIG     1      16.449  35.635  21.754  1.00  0.00    -0.024 A 
HETATM   11  C   LIG     1      17.084  36.097  20.587  1.00  0.00     0.012 A 
HETATM   12  C   LIG     1      16.692  35.615  19.334  1.00  0.00     0.001 A 
HETATM   13  C   LIG     1      15.672  34.665  19.236  1.00  0.00     0.000 A 
HETATM   14  C   LIG     1      15.043  34.193  20.391  1.00  0.00     0.001 A 
HETATM   15  C   LIG     1      15.432  34.671  21.646  1.00  0.00     0.012 A 
ENDBRANCH   9  10
TORSDOF 1
ENDMDL
MODEL 7
REMARK VINA RESULT:      -5.8      2.678      5.594
REMARK  1 active torsions:
REMARK  status: ('A' for Active; 'I' for Inactive)
REMARK    1  A    between atoms: C_9  and  C_10 
ROOT
HETATM    1 CL   LIG     1      18.224  36.437  18.438  1.00  0.00    -0.083 Cl
HETATM    2  C   LIG     1      17.730  36.665  20.112  1.00  0.00     0.046 A 
HETATM    3  C   LIG     1      18.321  37.704  20.840  1.00  0.00     0.050 A 
HETATM    4  C   LIG     1      17.926  37.965  22.156  1.00  0.00     0.057 A 
HETATM    5 CL   LIG     1      18.697  39.282  23.030  1.00  0.00    -0.082 Cl
HETATM    6  C   LIG     1      16.924  37.185  22.751  1.00  0.00     0.056 A 
HETATM    7 CL   LIG     1      16.394  37.486  24.402  1.00  0.00    -0.083 Cl
HETATM    8  C   LIG     1      16.329  36.146  22.028  1.00  0.00     0.039 A 
HETATM    9  C   LIG     1      16.728  35.868  20.710  1.00  0.00    -0.003 A 
ENDROOT
BRANCH   9  10
HETATM   10  C   LIG     1      16.086  34.750  19.984  1.00  0.00    -0.024 A 
HETATM   11  C   LIG     1      15.690  34.902  18.644  1.00  0.00     0.012 A 
HETATM   12  C   LIG     1      15.100  33.835  17.959  1.00  0.00     0.001 A 
HETATM   13  C   LIG     1      14.909  32.609  18.602  1.00  0.00     0.000 A 
HETATM   14  C   LIG     1      15.311  32.446  19.930  1.00  0.00     0.001 A 
HETATM   15  C   LIG     1      15.901  33.510  20.619  1.00  0.00     0.012 A 
ENDBRANCH   9  10
TORSDOF 1
ENDMDL
MODEL 8
REMARK VINA RESULT:      -5.7      6.720     10.235
REMARK  1 active torsions:
REMARK  status: ('A' for Active; 'I' for Inactive)
REMARK    1  A    between atoms: C_9  and  C_10 
ROOT
HETATM    1 CL   LIG     1      15.862  32.102  13.228  1.00  0.00    -0.083 Cl
HETATM    2  C   LIG     1      15.443  32.032  14.936  1.00  0.00     0.046 A 
HETATM    3  C   LIG     1      15.717  33.152  15.731  1.00  0.00     0.050 A 
HETATM    4  C   LIG     1      15.354  33.172  17.081  1.00  0.00     0.057 A 
HETATM    5 CL   LIG     1      15.719  34.601  18.039  1.00  0.00    -0.082 Cl
HETATM    6  C   LIG     1      14.704  32.064  17.645  1.00  0.00     0.056 A 
HETATM    7 CL   LIG     1      14.226  32.053  19.338  1.00  0.00    -0.083 Cl
HETATM    8  C   LIG     1      14.428  30.943  16.856  1.00  0.00     0.039 A 
HETATM    9  C   LIG     1      14.799  30.909  15.502  1.00  0.00    -0.003 A 
ENDROOT
BRANCH   9  10
HETATM   10  C   LIG     1      14.503  29.699  14.704  1.00  0.00    -0.024 A 
HETATM   11  C   LIG     1      15.546  28.908  14.190  1.00  0.00     0.012 A 
HETATM   12  C   LIG     1      15.258  27.756  13.452  1.00  0.00     0.001 A 
HETATM   13  C   LIG     1      13.931  27.379  13.229  1.00  0.00     0.000 A 
HETATM   14  C   LIG     1      12.888  28.153  13.746  1.00  0.00     0.001 A 
HETATM   15  C   LIG     1      13.172  29.306  14.485  1.00  0.00     0.012 A 
ENDBRANCH   9  10
TORSDOF 1
ENDMDL
MODEL 9
REMARK VINA RESULT:      -5.3     15.105     16.064
REMARK  1 active torsions:
REMARK  status: ('A' for Active; 'I' for Inactive)
REMARK    1  A    between atoms: C_9  and  C_10 
ROOT
HETATM    1 CL   LIG     1      23.442  23.354  21.561  1.00  0.00    -0.083 Cl
HETATM    2  C   LIG     1      23.926  22.315  20.225  1.00  0.00     0.046 A 
HETATM    3  C   LIG     1      23.103  21.230  19.901  1.00  0.00     0.050 A 
HETATM    4  C   LIG     1      23.409  20.405  18.814  1.00  0.00     0.057 A 
HETATM    5 CL   LIG     1      22.345  19.054  18.445  1.00  0.00    -0.082 Cl
HETATM    6  C   LIG     1      24.547  20.669  18.036  1.00  0.00     0.056 A 
HETATM    7 CL   LIG     1      24.963  19.658  16.658  1.00  0.00    -0.083 Cl
HETATM    8  C   LIG     1      25.372  21.751  18.356  1.00  0.00     0.039 A 
HETATM    9  C   LIG     1      25.079  22.579  19.453  1.00  0.00    -0.003 A 
ENDROOT
BRANCH   9  10
HETATM   10  C   LIG     1      25.985  23.705  19.768  1.00  0.00    -0.024 A 
HETATM   11  C   LIG     1      26.816  23.660  20.902  1.00  0.00     0.012 A 
HETATM   12  C   LIG     1      27.682  24.720  21.183  1.00  0.00     0.001 A 
HETATM   13  C   LIG     1      27.733  25.829  20.333  1.00  0.00     0.000 A 
HETATM   14  C   LIG     1      26.919  25.877  19.198  1.00  0.00     0.001 A 
HETATM   15  C   LIG     1      26.051  24.818  18.913  1.00  0.00     0.012 A 
ENDBRANCH   9  10
TORSDOF 1
ENDMDL
MODEL 10
REMARK VINA RESULT:      -5.3     15.641     17.126
REMARK  1 active torsions:
REMARK  status: ('A' for Active; 'I' for Inactive)
REMARK    1  A    between atoms: C_9  and  C_10 
ROOT
HETATM    1 CL   LIG     1      22.619  22.061  21.609  1.00  0.00    -0.083 Cl
HETATM    2  C   LIG     1      23.934  22.370  20.480  1.00  0.00     0.046 A 
HETATM    3  C   LIG     1      24.763  23.474  20.717  1.00  0.00     0.050 A 
HETATM    4  C   LIG     1      25.856  23.735  19.886  1.00  0.00     0.057 A 
HETATM    5 CL   LIG     1      26.868  25.132  20.224  1.00  0.00    -0.082 Cl
HETATM    6  C   LIG     1      26.131  22.881  18.807  1.00  0.00     0.056 A 
HETATM    7 CL   LIG     1      27.500  23.171  17.741  1.00  0.00    -0.083 Cl
HETATM    8  C   LIG     1      25.307  21.777  18.565  1.00  0.00     0.039 A 
HETATM    9  C   LIG     1      24.199  21.514  19.389  1.00  0.00    -0.003 A 
ENDROOT
BRANCH   9  10
HETATM   10  C   LIG     1      23.342  20.345  19.091  1.00  0.00    -0.024 A 
HETATM   11  C   LIG     1      22.684  20.237  17.854  1.00  0.00     0.012 A 
HETATM   12  C   LIG     1      21.890  19.122  17.573  1.00  0.00     0.001 A 
HETATM   13  C   LIG     1      21.753  18.102  18.520  1.00  0.00     0.000 A 
HETATM   14  C   LIG     1      22.413  18.196  19.748  1.00  0.00     0.001 A 
HETATM   15  C   LIG     1      23.209  19.310  20.032  1.00  0.00     0.012 A 
ENDBRANCH   9  10
TORSDOF 1
ENDMDL
MODEL 11
REMARK VINA RESULT:      -5.3     15.082     15.966
REMARK  1 active torsions:
REMARK  status: ('A' for Active; 'I' for Inactive)
REMARK    1  A    between atoms: C_9  and  C_10 
ROOT
HETATM    1 CL   LIG     1      28.043  24.957  21.575  1.00  0.00    -0.083 Cl
HETATM    2  C   LIG     1      26.851  24.126  20.581  1.00  0.00     0.046 A 
HETATM    3  C   LIG     1      25.978  23.228  21.207  1.00  0.00     0.050 A 
HETATM    4  C   LIG     1      24.976  22.583  20.476  1.00  0.00     0.057 A 
HETATM    5 CL   LIG     1      23.903  21.464  21.307  1.00  0.00    -0.082 Cl
HETATM    6  C   LIG     1      24.838  22.840  19.104  1.00  0.00     0.056 A 
HETATM    7 CL   LIG     1      23.586  22.053  18.150  1.00  0.00    -0.083 Cl
HETATM    8  C   LIG     1      25.707  23.736  18.473  1.00  0.00     0.039 A 
HETATM    9  C   LIG     1      26.724  24.380  19.197  1.00  0.00    -0.003 A 
ENDROOT
BRANCH   9  10
HETATM   10  C   LIG     1      27.634  25.309  18.490  1.00  0.00    -0.024 A 
HETATM   11  C   LIG     1      27.745  26.650  18.898  1.00  0.00     0.012 A 
HETATM   12  C   LIG     1      28.620  27.517  18.237  1.00  0.00     0.001 A 
HETATM   13  C   LIG     1      29.395  27.052  17.170  1.00  0.00     0.000 A 
HETATM   14  C   LIG     1      29.299  25.718  16.765  1.00  0.00     0.001 A 
HETATM   15  C   LIG     1      28.425  24.847  17.424  1.00  0.00     0.012 A 
ENDBRANCH   9  10
TORSDOF 1
ENDMDL
MODEL 12
REMARK VINA RESULT:      -5.1     15.058     16.612
REMARK  1 active torsions:
REMARK  status: ('A' for Active; 'I' for Inactive)
REMARK    1  A    between atoms: C_9  and  C_10 
ROOT
HETATM    1 CL   LIG     1      22.374  19.556  23.491  1.00  0.00    -0.083 Cl
HETATM    2  C   LIG     1      23.365  20.892  24.069  1.00  0.00     0.046 A 
HETATM    3  C   LIG     1      23.595  20.997  25.446  1.00  0.00     0.050 A 
HETATM    4  C   LIG     1      24.421  22.004  25.955  1.00  0.00     0.057 A 
HETATM    5 CL   LIG     1      24.680  22.095  27.692  1.00  0.00    -0.082 Cl
HETATM    6  C   LIG     1      25.029  22.916  25.080  1.00  0.00     0.056 A 
HETATM    7 CL   LIG     1      26.079  24.194  25.680  1.00  0.00    -0.083 Cl
HETATM    8  C   LIG     1      24.803  22.816  23.703  1.00  0.00     0.039 A 
HETATM    9  C   LIG     1      23.966  21.814  23.184  1.00  0.00    -0.003 A 
ENDROOT
BRANCH   9  10
HETATM   10  C   LIG     1      23.740  21.751  21.723  1.00  0.00    -0.024 A 
HETATM   11  C   LIG     1      24.573  20.971  20.902  1.00  0.00     0.012 A 
HETATM   12  C   LIG     1      24.342  20.902  19.525  1.00  0.00     0.001 A 
HETATM   13  C   LIG     1      23.274  21.604  18.958  1.00  0.00     0.000 A 
HETATM   14  C   LIG     1      22.434  22.373  19.768  1.00  0.00     0.001 A 
HETATM   15  C   LIG     1      22.662  22.444  21.145  1.00  0.00     0.012 A 
ENDBRANCH   9  10
TORSDOF 1
ENDMDL
MODEL 13
REMARK VINA RESULT:      -5.0     14.906     16.084
REMARK  1 active torsions:
REMARK  status: ('A' for Active; 'I' for Inactive)
REMARK    1  A    between atoms: C_9  and  C_10 
ROOT
HETATM    1 CL   LIG     1      23.856  22.259  18.093  1.00  0.00    -0.083 Cl
HETATM    2  C   LIG     1      24.144  22.271  19.830  1.00  0.00     0.046 A 
HETATM    3  C   LIG     1      23.290  21.519  20.646  1.00  0.00     0.050 A 
HETATM    4  C   LIG     1      23.507  21.448  22.026  1.00  0.00     0.057 A 
HETATM    5 CL   LIG     1      22.409  20.490  23.011  1.00  0.00    -0.082 Cl
HETATM    6  C   LIG     1      24.591  22.130  22.598  1.00  0.00     0.056 A 
HETATM    7 CL   LIG     1      24.900  22.061  24.329  1.00  0.00    -0.083 Cl
HETATM    8  C   LIG     1      25.446  22.882  21.787  1.00  0.00     0.039 A 
HETATM    9  C   LIG     1      25.230  22.969  20.402  1.00  0.00    -0.003 A 
ENDROOT
BRANCH   9  10
HETATM   10  C   LIG     1      26.148  23.788  19.580  1.00  0.00    -0.024 A 
HETATM   11  C   LIG     1      26.145  25.190  19.685  1.00  0.00     0.012 A 
HETATM   12  C   LIG     1      27.027  25.957  18.918  1.00  0.00     0.001 A 
HETATM   13  C   LIG     1      27.924  25.331  18.047  1.00  0.00     0.000 A 
HETATM   14  C   LIG     1      27.942  23.937  17.945  1.00  0.00     0.001 A 
HETATM   15  C   LIG     1      27.061  23.167  18.710  1.00  0.00     0.012 A 
ENDBRANCH   9  10
TORSDOF 1
ENDMDL
MODEL 14
REMARK VINA RESULT:      -5.0     15.146     16.223
REMARK  1 active torsions:
REMARK  status: ('A' for Active; 'I' for Inactive)
REMARK    1  A    between atoms: C_9  and  C_10 
ROOT
HETATM    1 CL   LIG     1      27.591  21.934  21.583  1.00  0.00    -0.083 Cl
HETATM    2  C   LIG     1      27.664  23.499  20.779  1.00  0.00     0.046 A 
HETATM    3  C   LIG     1      28.842  24.246  20.893  1.00  0.00     0.050 A 
HETATM    4  C   LIG     1      28.976  25.470  20.229  1.00  0.00     0.057 A 
HETATM    5 CL   LIG     1      30.475  26.373  20.403  1.00  0.00    -0.082 Cl
HETATM    6  C   LIG     1      27.924  25.952  19.436  1.00  0.00     0.056 A 
HETATM    7 CL   LIG     1      28.055  27.483  18.581  1.00  0.00    -0.083 Cl
HETATM    8  C   LIG     1      26.745  25.209  19.319  1.00  0.00     0.039 A 
HETATM    9  C   LIG     1      26.597  23.984  19.991  1.00  0.00    -0.003 A 
ENDROOT
BRANCH   9  10
HETATM   10  C   LIG     1      25.328  23.236  19.854  1.00  0.00    -0.024 A 
HETATM   11  C   LIG     1      24.438  23.132  20.937  1.00  0.00     0.012 A 
HETATM   12  C   LIG     1      23.233  22.438  20.794  1.00  0.00     0.001 A 
HETATM   13  C   LIG     1      22.903  21.850  19.569  1.00  0.00     0.000 A 
HETATM   14  C   LIG     1      23.777  21.958  18.484  1.00  0.00     0.001 A 
HETATM   15  C   LIG     1      24.983  22.652  18.623  1.00  0.00     0.012 A 
ENDBRANCH   9  10
TORSDOF 1
ENDMDL
MODEL 15
REMARK VINA RESULT:      -5.0     15.015     15.958
REMARK  1 active torsions:
REMARK  status: ('A' for Active; 'I' for Inactive)
REMARK    1  A    between atoms: C_9  and  C_10 
ROOT
HETATM    1 CL   LIG     1      24.294  22.444  17.901  1.00  0.00    -0.083 Cl
HETATM    2  C   LIG     1      25.503  23.313  18.841  1.00  0.00     0.046 A 
HETATM    3  C   LIG     1      26.405  24.136  18.156  1.00  0.00     0.050 A 
HETATM    4  C   LIG     1      27.350  24.893  18.857  1.00  0.00     0.057 A 
HETATM    5 CL   LIG     1      28.462  25.913  17.954  1.00  0.00    -0.082 Cl
HETATM    6  C   LIG     1      27.393  24.832  20.258  1.00  0.00     0.056 A 
HETATM    7 CL   LIG     1      28.562  25.772  21.176  1.00  0.00    -0.083 Cl
HETATM    8  C   LIG     1      26.494  24.011  20.946  1.00  0.00     0.039 A 
HETATM    9  C   LIG     1      25.549  23.239  20.251  1.00  0.00    -0.003 A 
ENDROOT
BRANCH   9  10
HETATM   10  C   LIG     1      24.626  22.370  21.014  1.00  0.00    -0.024 A 
HETATM   11  C   LIG     1      23.328  22.808  21.329  1.00  0.00     0.012 A 
HETATM   12  C   LIG     1      22.455  21.976  22.036  1.00  0.00     0.001 A 
HETATM   13  C   LIG     1      22.867  20.698  22.426  1.00  0.00     0.000 A 
HETATM   14  C   LIG     1      24.152  20.250  22.107  1.00  0.00     0.001 A 
HETATM   15  C   LIG     1      25.027  21.080  21.401  1.00  0.00     0.012 A 
ENDBRANCH   9  10
TORSDOF 1
ENDMDL
