REMARK  1 active torsions:
REMARK  status: ('A' for Active; 'I' for Inactive)
REMARK    1  A    between atoms: C_9  and  C_10 
ROOT
HETATM    1 CL   LIG     1       0.423   2.682  -0.884  1.00  0.00    -0.083 Cl
HETATM    2  C   LIG     1       1.336   1.290  -0.311  1.00  0.00     0.046 A 
HETATM    3  C   LIG     1       2.731   1.393  -0.253  1.00  0.00     0.050 A 
HETATM    4  C   LIG     1       3.502   0.339   0.247  1.00  0.00     0.057 A 
HETATM    5 CL   LIG     1       5.251   0.515   0.301  1.00  0.00    -0.082 Cl
HETATM    6  C   LIG     1       2.874  -0.831   0.700  1.00  0.00     0.056 A 
HETATM    7 CL   LIG     1       3.808  -2.177   1.341  1.00  0.00    -0.083 Cl
HETATM    8  C   LIG     1       1.481  -0.939   0.644  1.00  0.00     0.039 A 
HETATM    9  C   LIG     1       0.699   0.110   0.133  1.00  0.00    -0.003 A 
ENDROOT
BRANCH   9  10
HETATM   10  C   LIG     1      -0.771  -0.049   0.076  1.00  0.00    -0.024 A 
HETATM   11  C   LIG     1      -1.457   0.072  -1.145  1.00  0.00     0.012 A 
HETATM   12  C   LIG     1      -2.844  -0.097  -1.194  1.00  0.00     0.001 A 
HETATM   13  C   LIG     1      -3.555  -0.396  -0.028  1.00  0.00     0.000 A 
HETATM   14  C   LIG     1      -2.880  -0.529   1.188  1.00  0.00     0.001 A 
HETATM   15  C   LIG     1      -1.493  -0.361   1.241  1.00  0.00     0.012 A 
ENDBRANCH   9  10
TORSDOF 1
