REMARK  6 active torsions:
REMARK  status: ('A' for Active; 'I' for Inactive)
REMARK    1  A    between atoms: C_3  and  C_4 
REMARK    2  A    between atoms: C_10  and  O_17 
REMARK    3  A    between atoms: C_11  and  C_13 
REMARK    4  A    between atoms: C_13  and  C_15 
REMARK    5  A    between atoms: C_13  and  O_14 
REMARK    6  A    between atoms: C_15  and  O_16 
ROOT
HETATM    1  C   LIG     1       0.703   0.573  -1.047  1.00  0.00     0.295 C 
HETATM    2  O   LIG     1       1.892   1.291  -0.950  1.00  0.00    -0.324 OA
HETATM    3  C   LIG     1       2.857   0.354  -0.534  1.00  0.00     0.318 C 
HETATM    4  O   LIG     1       2.244  -0.740   0.108  1.00  0.00    -0.344 OA
HETATM    5  C   LIG     1       0.905  -0.699  -0.281  1.00  0.00     0.211 C 
HETATM    6  C   LIG     1      -0.004  -0.575   0.915  1.00  0.00     0.183 C 
HETATM    7  C   LIG     1      -0.959   0.559   0.522  1.00  0.00     0.187 C 
HETATM    8  O   LIG     1      -0.353   1.328  -0.493  1.00  0.00    -0.348 OA
ENDROOT
BRANCH   7   9
HETATM    9  C   LIG     1      -2.388   0.133   0.093  1.00  0.00     0.173 C 
BRANCH   9  10
HETATM   10  C   LIG     1      -2.411  -0.666  -1.225  1.00  0.00     0.198 C 
BRANCH  10  11
HETATM   11  O   LIG     1      -3.719  -1.064  -1.535  1.00  0.00    -0.398 OA
HETATM   12  H   LIG     1      -3.940  -1.815  -0.923  1.00  0.00     0.209 HD
ENDBRANCH  10  11
ENDBRANCH   9  10
BRANCH   9  13
HETATM   13  O   LIG     1      -3.170   1.292  -0.053  1.00  0.00    -0.391 OA
HETATM   14  H   LIG     1      -4.118   1.021   0.063  1.00  0.00     0.210 HD
ENDBRANCH   9  13
ENDBRANCH   7   9
BRANCH   6  15
HETATM   15  O   LIG     1      -0.656  -1.791   1.177  1.00  0.00    -0.390 OA
HETATM   16  H   LIG     1      -1.030  -1.718   2.094  1.00  0.00     0.210 HD
ENDBRANCH   6  15
BRANCH   3  17
HETATM   17  C   LIG     1       3.863   1.023   0.412  1.00  0.00     0.237 C 
HETATM   18 CL   LIG     1       4.682   2.372  -0.418  1.00  0.00    -0.078 Cl
HETATM   19 CL   LIG     1       5.103  -0.153   0.923  1.00  0.00    -0.078 Cl
HETATM   20 CL   LIG     1       3.043   1.658   1.864  1.00  0.00    -0.078 Cl
ENDBRANCH   3  17
TORSDOF 6
