MODEL 1
REMARK VINA RESULT:      -6.1      0.000      0.000
REMARK  6 active torsions:
REMARK  status: ('A' for Active; 'I' for Inactive)
REMARK    1  A    between atoms: C_3  and  C_4 
REMARK    2  A    between atoms: C_10  and  O_17 
REMARK    3  A    between atoms: C_11  and  C_13 
REMARK    4  A    between atoms: C_13  and  C_15 
REMARK    5  A    between atoms: C_13  and  O_14 
REMARK    6  A    between atoms: C_15  and  O_16 
ROOT
HETATM    1  C   LIG     1      17.244  35.263  20.997  1.00  0.00     0.295 C 
HETATM    2  O   LIG     1      17.836  36.461  21.387  1.00  0.00    -0.324 OA
HETATM    3  C   LIG     1      17.465  36.636  22.734  1.00  0.00     0.318 C 
HETATM    4  O   LIG     1      16.295  35.907  23.026  1.00  0.00    -0.344 OA
HETATM    5  C   LIG     1      16.183  34.958  22.010  1.00  0.00     0.211 C 
HETATM    6  C   LIG     1      14.883  35.113  21.264  1.00  0.00     0.183 C 
HETATM    7  C   LIG     1      15.310  35.081  19.791  1.00  0.00     0.187 C 
HETATM    8  O   LIG     1      16.679  35.410  19.711  1.00  0.00    -0.348 OA
ENDROOT
BRANCH   7   9
HETATM    9  C   LIG     1      15.029  33.761  19.025  1.00  0.00     0.173 C 
BRANCH   9  10
HETATM   10  C   LIG     1      15.515  32.508  19.780  1.00  0.00     0.198 C 
BRANCH  10  11
HETATM   11  O   LIG     1      14.442  31.643  20.037  1.00  0.00    -0.398 OA
HETATM   12  H   LIG     1      13.660  32.217  20.252  1.00  0.00     0.209 HD
ENDBRANCH  10  11
ENDBRANCH   9  10
BRANCH   9  13
HETATM   13  O   LIG     1      15.672  33.829  17.776  1.00  0.00    -0.391 OA
HETATM   14  H   LIG     1      16.079  32.939  17.609  1.00  0.00     0.210 HD
ENDBRANCH   9  13
ENDBRANCH   7   9
BRANCH   6  15
HETATM   15  O   LIG     1      13.983  34.091  21.608  1.00  0.00    -0.390 OA
HETATM   16  H   LIG     1      14.517  33.258  21.682  1.00  0.00     0.210 HD
ENDBRANCH   6  15
BRANCH   3  17
HETATM   17  C   LIG     1      17.243  38.126  23.027  1.00  0.00     0.237 C 
HETATM   18 CL   LIG     1      17.401  38.437  24.776  1.00  0.00    -0.078 Cl
HETATM   19 CL   LIG     1      15.606  38.616  22.518  1.00  0.00    -0.078 Cl
HETATM   20 CL   LIG     1      18.437  39.128  22.158  1.00  0.00    -0.078 Cl
ENDBRANCH   3  17
TORSDOF 6
ENDMDL
MODEL 2
REMARK VINA RESULT:      -5.8      2.952      5.717
REMARK  6 active torsions:
REMARK  status: ('A' for Active; 'I' for Inactive)
REMARK    1  A    between atoms: C_3  and  C_4 
REMARK    2  A    between atoms: C_10  and  O_17 
REMARK    3  A    between atoms: C_11  and  C_13 
REMARK    4  A    between atoms: C_13  and  C_15 
REMARK    5  A    between atoms: C_13  and  O_14 
REMARK    6  A    between atoms: C_15  and  O_16 
ROOT
HETATM    1  C   LIG     1      17.707  35.599  22.782  1.00  0.00     0.295 C 
HETATM    2  O   LIG     1      16.935  34.642  22.128  1.00  0.00    -0.324 OA
HETATM    3  C   LIG     1      16.803  35.113  20.808  1.00  0.00     0.318 C 
HETATM    4  O   LIG     1      17.001  36.507  20.754  1.00  0.00    -0.344 OA
HETATM    5  C   LIG     1      17.668  36.835  21.935  1.00  0.00     0.211 C 
HETATM    6  C   LIG     1      16.880  37.831  22.745  1.00  0.00     0.183 C 
HETATM    7  C   LIG     1      16.891  37.233  24.157  1.00  0.00     0.187 C 
HETATM    8  O   LIG     1      17.164  35.853  24.060  1.00  0.00    -0.348 OA
ENDROOT
BRANCH   7   9
HETATM    9  C   LIG     1      17.853  37.900  25.176  1.00  0.00     0.173 C 
BRANCH   9  10
HETATM   10  C   LIG     1      18.444  36.904  26.192  1.00  0.00     0.198 C 
BRANCH  10  11
HETATM   11  O   LIG     1      17.420  36.266  26.908  1.00  0.00    -0.398 OA
HETATM   12  H   LIG     1      17.256  35.397  26.454  1.00  0.00     0.209 HD
ENDBRANCH  10  11
ENDBRANCH   9  10
BRANCH   9  13
HETATM   13  O   LIG     1      17.143  38.899  25.865  1.00  0.00    -0.391 OA
HETATM   14  H   LIG     1      16.573  39.364  25.198  1.00  0.00     0.210 HD
ENDBRANCH   9  13
ENDBRANCH   7   9
BRANCH   6  15
HETATM   15  O   LIG     1      17.461  39.108  22.673  1.00  0.00    -0.390 OA
HETATM   16  H   LIG     1      18.175  39.054  21.985  1.00  0.00     0.210 HD
ENDBRANCH   6  15
BRANCH   3  17
HETATM   17  C   LIG     1      15.413  34.758  20.262  1.00  0.00     0.237 C 
HETATM   18 CL   LIG     1      14.190  35.873  20.927  1.00  0.00    -0.078 Cl
HETATM   19 CL   LIG     1      14.971  33.097  20.738  1.00  0.00    -0.078 Cl
HETATM   20 CL   LIG     1      15.382  34.872  18.482  1.00  0.00    -0.078 Cl
ENDBRANCH   3  17
TORSDOF 6
ENDMDL
MODEL 3
REMARK VINA RESULT:      -5.5      5.028      7.021
REMARK  6 active torsions:
REMARK  status: ('A' for Active; 'I' for Inactive)
REMARK    1  A    between atoms: C_3  and  C_4 
REMARK    2  A    between atoms: C_10  and  O_17 
REMARK    3  A    between atoms: C_11  and  C_13 
REMARK    4  A    between atoms: C_13  and  C_15 
REMARK    5  A    between atoms: C_13  and  O_14 
REMARK    6  A    between atoms: C_15  and  O_16 
ROOT
HETATM    1  C   LIG     1      14.743  33.834  17.152  1.00  0.00     0.295 C 
HETATM    2  O   LIG     1      15.390  33.638  15.934  1.00  0.00    -0.324 OA
HETATM    3  C   LIG     1      14.900  32.411  15.448  1.00  0.00     0.318 C 
HETATM    4  O   LIG     1      14.401  31.622  16.503  1.00  0.00    -0.344 OA
HETATM    5  C   LIG     1      14.185  32.505  17.561  1.00  0.00     0.211 C 
HETATM    6  C   LIG     1      14.990  32.108  18.772  1.00  0.00     0.183 C 
HETATM    7  C   LIG     1      15.651  33.421  19.208  1.00  0.00     0.187 C 
HETATM    8  O   LIG     1      15.667  34.305  18.109  1.00  0.00    -0.348 OA
ENDROOT
BRANCH   7   9
HETATM    9  C   LIG     1      15.037  34.119  20.450  1.00  0.00     0.173 C 
BRANCH   9  10
HETATM   10  C   LIG     1      16.084  34.850  21.314  1.00  0.00     0.198 C 
BRANCH  10  11
HETATM   11  O   LIG     1      17.019  35.506  20.501  1.00  0.00    -0.398 OA
HETATM   12  H   LIG     1      16.913  36.479  20.675  1.00  0.00     0.209 HD
ENDBRANCH  10  11
ENDBRANCH   9  10
BRANCH   9  13
HETATM   13  O   LIG     1      14.390  33.144  21.230  1.00  0.00    -0.391 OA
HETATM   14  H   LIG     1      14.286  33.522  22.142  1.00  0.00     0.210 HD
ENDBRANCH   9  13
ENDBRANCH   7   9
BRANCH   6  15
HETATM   15  O   LIG     1      14.165  31.542  19.758  1.00  0.00    -0.390 OA
HETATM   16  H   LIG     1      14.508  30.624  19.919  1.00  0.00     0.210 HD
ENDBRANCH   6  15
BRANCH   3  17
HETATM   17  C   LIG     1      16.014  31.658  14.709  1.00  0.00     0.237 C 
HETATM   18 CL   LIG     1      17.560  31.842  15.578  1.00  0.00    -0.078 Cl
HETATM   19 CL   LIG     1      16.216  32.318  13.065  1.00  0.00    -0.078 Cl
HETATM   20 CL   LIG     1      15.630  29.920  14.585  1.00  0.00    -0.078 Cl
ENDBRANCH   3  17
TORSDOF 6
ENDMDL
MODEL 4
REMARK VINA RESULT:      -5.3      7.201      9.175
REMARK  6 active torsions:
REMARK  status: ('A' for Active; 'I' for Inactive)
REMARK    1  A    between atoms: C_3  and  C_4 
REMARK    2  A    between atoms: C_10  and  O_17 
REMARK    3  A    between atoms: C_11  and  C_13 
REMARK    4  A    between atoms: C_13  and  C_15 
REMARK    5  A    between atoms: C_13  and  O_14 
REMARK    6  A    between atoms: C_15  and  O_16 
ROOT
HETATM    1  C   LIG     1      17.708  34.392  13.868  1.00  0.00     0.295 C 
HETATM    2  O   LIG     1      19.039  34.630  13.535  1.00  0.00    -0.324 OA
HETATM    3  C   LIG     1      19.124  34.382  12.152  1.00  0.00     0.318 C 
HETATM    4  O   LIG     1      18.080  33.533  11.734  1.00  0.00    -0.344 OA
HETATM    5  C   LIG     1      17.118  33.600  12.742  1.00  0.00     0.211 C 
HETATM    6  C   LIG     1      16.851  32.238  13.329  1.00  0.00     0.183 C 
HETATM    7  C   LIG     1      16.916  32.482  14.842  1.00  0.00     0.187 C 
HETATM    8  O   LIG     1      17.645  33.666  15.077  1.00  0.00    -0.348 OA
ENDROOT
BRANCH   7   9
HETATM    9  C   LIG     1      15.556  32.532  15.587  1.00  0.00     0.173 C 
BRANCH   9  10
HETATM   10  C   LIG     1      15.668  33.104  17.013  1.00  0.00     0.198 C 
BRANCH  10  11
HETATM   11  O   LIG     1      15.694  34.506  16.979  1.00  0.00    -0.398 OA
HETATM   12  H   LIG     1      15.406  34.773  16.067  1.00  0.00     0.209 HD
ENDBRANCH  10  11
ENDBRANCH   9  10
BRANCH   9  13
HETATM   13  O   LIG     1      15.038  31.226  15.650  1.00  0.00    -0.391 OA
HETATM   14  H   LIG     1      14.274  31.246  16.284  1.00  0.00     0.210 HD
ENDBRANCH   9  13
ENDBRANCH   7   9
BRANCH   6  15
HETATM   15  O   LIG     1      15.611  31.740  12.895  1.00  0.00    -0.390 OA
HETATM   16  H   LIG     1      15.210  32.444  12.321  1.00  0.00     0.210 HD
ENDBRANCH   6  15
BRANCH   3  17
HETATM   17  C   LIG     1      20.482  33.750  11.816  1.00  0.00     0.237 C 
HETATM   18 CL   LIG     1      21.395  34.811  10.712  1.00  0.00    -0.078 Cl
HETATM   19 CL   LIG     1      20.246  32.177  11.009  1.00  0.00    -0.078 Cl
HETATM   20 CL   LIG     1      21.447  33.497  13.295  1.00  0.00    -0.078 Cl
ENDBRANCH   3  17
TORSDOF 6
ENDMDL
MODEL 5
REMARK VINA RESULT:      -5.3      4.325      6.161
REMARK  6 active torsions:
REMARK  status: ('A' for Active; 'I' for Inactive)
REMARK    1  A    between atoms: C_3  and  C_4 
REMARK    2  A    between atoms: C_10  and  O_17 
REMARK    3  A    between atoms: C_11  and  C_13 
REMARK    4  A    between atoms: C_13  and  C_15 
REMARK    5  A    between atoms: C_13  and  O_14 
REMARK    6  A    between atoms: C_15  and  O_16 
ROOT
HETATM    1  C   LIG     1      14.388  32.529  16.712  1.00  0.00     0.295 C 
HETATM    2  O   LIG     1      14.237  32.168  18.048  1.00  0.00    -0.324 OA
HETATM    3  C   LIG     1      14.599  33.312  18.784  1.00  0.00     0.318 C 
HETATM    4  O   LIG     1      15.431  34.152  18.019  1.00  0.00    -0.344 OA
HETATM    5  C   LIG     1      15.241  33.761  16.694  1.00  0.00     0.211 C 
HETATM    6  C   LIG     1      16.538  33.320  16.066  1.00  0.00     0.183 C 
HETATM    7  C   LIG     1      16.177  31.989  15.396  1.00  0.00     0.187 C 
HETATM    8  O   LIG     1      15.012  31.479  16.005  1.00  0.00    -0.348 OA
ENDROOT
BRANCH   7   9
HETATM    9  C   LIG     1      16.007  32.022  13.854  1.00  0.00     0.173 C 
BRANCH   9  10
HETATM   10  C   LIG     1      15.406  30.722  13.283  1.00  0.00     0.198 C 
BRANCH  10  11
HETATM   11  O   LIG     1      15.754  29.627  14.086  1.00  0.00    -0.398 OA
HETATM   12  H   LIG     1      16.693  29.773  14.375  1.00  0.00     0.209 HD
ENDBRANCH  10  11
ENDBRANCH   9  10
BRANCH   9  13
HETATM   13  O   LIG     1      17.269  32.244  13.275  1.00  0.00    -0.391 OA
HETATM   14  H   LIG     1      17.210  31.956  12.327  1.00  0.00     0.210 HD
ENDBRANCH   9  13
ENDBRANCH   7   9
BRANCH   6  15
HETATM   15  O   LIG     1      17.015  34.289  15.167  1.00  0.00    -0.390 OA
HETATM   16  H   LIG     1      16.416  34.256  14.376  1.00  0.00     0.210 HD
ENDBRANCH   6  15
BRANCH   3  17
HETATM   17  C   LIG     1      15.315  32.898  20.077  1.00  0.00     0.237 C 
HETATM   18 CL   LIG     1      16.361  31.486  19.773  1.00  0.00    -0.078 Cl
HETATM   19 CL   LIG     1      14.122  32.450  21.325  1.00  0.00    -0.078 Cl
HETATM   20 CL   LIG     1      16.322  34.233  20.700  1.00  0.00    -0.078 Cl
ENDBRANCH   3  17
TORSDOF 6
ENDMDL
MODEL 6
REMARK VINA RESULT:      -5.0      3.657      4.871
REMARK  6 active torsions:
REMARK  status: ('A' for Active; 'I' for Inactive)
REMARK    1  A    between atoms: C_3  and  C_4 
REMARK    2  A    between atoms: C_10  and  O_17 
REMARK    3  A    between atoms: C_11  and  C_13 
REMARK    4  A    between atoms: C_13  and  C_15 
REMARK    5  A    between atoms: C_13  and  O_14 
REMARK    6  A    between atoms: C_15  and  O_16 
ROOT
HETATM    1  C   LIG     1      16.866  37.439  22.179  1.00  0.00     0.295 C 
HETATM    2  O   LIG     1      16.861  36.545  23.247  1.00  0.00    -0.324 OA
HETATM    3  C   LIG     1      16.780  37.348  24.401  1.00  0.00     0.318 C 
HETATM    4  O   LIG     1      17.245  38.651  24.134  1.00  0.00    -0.344 OA
HETATM    5  C   LIG     1      17.208  38.784  22.745  1.00  0.00     0.211 C 
HETATM    6  C   LIG     1      18.576  39.096  22.194  1.00  0.00     0.183 C 
HETATM    7  C   LIG     1      18.726  38.107  21.031  1.00  0.00     0.187 C 
HETATM    8  O   LIG     1      17.830  37.036  21.230  1.00  0.00    -0.348 OA
ENDROOT
BRANCH   7   9
HETATM    9  C   LIG     1      18.553  38.695  19.606  1.00  0.00     0.173 C 
BRANCH   9  10
HETATM   10  C   LIG     1      18.602  37.623  18.499  1.00  0.00     0.198 C 
BRANCH  10  11
HETATM   11  O   LIG     1      19.192  36.446  18.981  1.00  0.00    -0.398 OA
HETATM   12  H   LIG     1      18.515  35.727  18.879  1.00  0.00     0.209 HD
ENDBRANCH  10  11
ENDBRANCH   9  10
BRANCH   9  13
HETATM   13  O   LIG     1      19.576  39.635  19.387  1.00  0.00    -0.391 OA
HETATM   14  H   LIG     1      19.984  39.833  20.271  1.00  0.00     0.210 HD
ENDBRANCH   9  13
ENDBRANCH   7   9
BRANCH   6  15
HETATM   15  O   LIG     1      18.662  40.441  21.800  1.00  0.00    -0.390 OA
HETATM   16  H   LIG     1      19.176  40.453  20.951  1.00  0.00     0.210 HD
ENDBRANCH   6  15
BRANCH   3  17
HETATM   17  C   LIG     1      17.600  36.719  25.535  1.00  0.00     0.237 C 
HETATM   18 CL   LIG     1      17.037  37.332  27.112  1.00  0.00    -0.078 Cl
HETATM   19 CL   LIG     1      19.324  37.142  25.355  1.00  0.00    -0.078 Cl
HETATM   20 CL   LIG     1      17.442  34.942  25.522  1.00  0.00    -0.078 Cl
ENDBRANCH   3  17
TORSDOF 6
ENDMDL
MODEL 7
REMARK VINA RESULT:      -4.9      1.578      2.590
REMARK  6 active torsions:
REMARK  status: ('A' for Active; 'I' for Inactive)
REMARK    1  A    between atoms: C_3  and  C_4 
REMARK    2  A    between atoms: C_10  and  O_17 
REMARK    3  A    between atoms: C_11  and  C_13 
REMARK    4  A    between atoms: C_13  and  C_15 
REMARK    5  A    between atoms: C_13  and  O_14 
REMARK    6  A    between atoms: C_15  and  O_16 
ROOT
HETATM    1  C   LIG     1      15.404  36.633  22.257  1.00  0.00     0.295 C 
HETATM    2  O   LIG     1      15.682  36.976  23.578  1.00  0.00    -0.324 OA
HETATM    3  C   LIG     1      16.710  37.935  23.503  1.00  0.00     0.318 C 
HETATM    4  O   LIG     1      17.411  37.819  22.286  1.00  0.00    -0.344 OA
HETATM    5  C   LIG     1      16.570  37.098  21.438  1.00  0.00     0.211 C 
HETATM    6  C   LIG     1      17.234  35.831  20.964  1.00  0.00     0.183 C 
HETATM    7  C   LIG     1      16.164  34.757  21.196  1.00  0.00     0.187 C 
HETATM    8  O   LIG     1      15.246  35.235  22.154  1.00  0.00    -0.348 OA
ENDROOT
BRANCH   7   9
HETATM    9  C   LIG     1      15.412  34.256  19.934  1.00  0.00     0.173 C 
BRANCH   9  10
HETATM   10  C   LIG     1      15.500  32.729  19.744  1.00  0.00     0.198 C 
BRANCH  10  11
HETATM   11  O   LIG     1      14.251  32.134  19.968  1.00  0.00    -0.398 OA
HETATM   12  H   LIG     1      13.844  31.983  19.074  1.00  0.00     0.209 HD
ENDBRANCH  10  11
ENDBRANCH   9  10
BRANCH   9  13
HETATM   13  O   LIG     1      15.960  34.897  18.809  1.00  0.00    -0.391 OA
HETATM   14  H   LIG     1      15.513  34.515  18.009  1.00  0.00     0.210 HD
ENDBRANCH   9  13
ENDBRANCH   7   9
BRANCH   6  15
HETATM   15  O   LIG     1      17.632  35.945  19.622  1.00  0.00    -0.390 OA
HETATM   16  H   LIG     1      17.275  36.813  19.296  1.00  0.00     0.210 HD
ENDBRANCH   6  15
BRANCH   3  17
HETATM   17  C   LIG     1      17.675  37.763  24.683  1.00  0.00     0.237 C 
HETATM   18 CL   LIG     1      19.311  38.300  24.222  1.00  0.00    -0.078 Cl
HETATM   19 CL   LIG     1      17.765  36.046  25.159  1.00  0.00    -0.078 Cl
HETATM   20 CL   LIG     1      17.134  38.718  26.090  1.00  0.00    -0.078 Cl
ENDBRANCH   3  17
TORSDOF 6
ENDMDL
MODEL 8
REMARK VINA RESULT:      -4.7      6.093      8.234
REMARK  6 active torsions:
REMARK  status: ('A' for Active; 'I' for Inactive)
REMARK    1  A    between atoms: C_3  and  C_4 
REMARK    2  A    between atoms: C_10  and  O_17 
REMARK    3  A    between atoms: C_11  and  C_13 
REMARK    4  A    between atoms: C_13  and  C_15 
REMARK    5  A    between atoms: C_13  and  O_14 
REMARK    6  A    between atoms: C_15  and  O_16 
ROOT
HETATM    1  C   LIG     1      17.413  32.017  14.953  1.00  0.00     0.295 C 
HETATM    2  O   LIG     1      16.841  31.965  16.221  1.00  0.00    -0.324 OA
HETATM    3  C   LIG     1      15.452  31.901  15.999  1.00  0.00     0.318 C 
HETATM    4  O   LIG     1      15.127  32.417  14.729  1.00  0.00    -0.344 OA
HETATM    5  C   LIG     1      16.319  32.402  14.004  1.00  0.00     0.211 C 
HETATM    6  C   LIG     1      16.687  33.787  13.536  1.00  0.00     0.183 C 
HETATM    7  C   LIG     1      18.166  33.914  13.925  1.00  0.00     0.187 C 
HETATM    8  O   LIG     1      18.448  32.976  14.939  1.00  0.00    -0.348 OA
ENDROOT
BRANCH   7   9
HETATM    9  C   LIG     1      19.192  33.780  12.768  1.00  0.00     0.173 C 
BRANCH   9  10
HETATM   10  C   LIG     1      20.654  33.780  13.254  1.00  0.00     0.198 C 
BRANCH  10  11
HETATM   11  O   LIG     1      21.429  34.654  12.478  1.00  0.00    -0.398 OA
HETATM   12  H   LIG     1      22.380  34.440  12.673  1.00  0.00     0.209 HD
ENDBRANCH  10  11
ENDBRANCH   9  10
BRANCH   9  13
HETATM   13  O   LIG     1      18.998  34.851  11.879  1.00  0.00    -0.391 OA
HETATM   14  H   LIG     1      18.110  34.720  11.453  1.00  0.00     0.210 HD
ENDBRANCH   9  13
ENDBRANCH   7   9
BRANCH   6  15
HETATM   15  O   LIG     1      16.456  33.929  12.158  1.00  0.00    -0.390 OA
HETATM   16  H   LIG     1      16.917  33.169  11.716  1.00  0.00     0.210 HD
ENDBRANCH   6  15
BRANCH   3  17
HETATM   17  C   LIG     1      14.710  32.683  17.090  1.00  0.00     0.237 C 
HETATM   18 CL   LIG     1      12.959  32.363  16.992  1.00  0.00    -0.078 Cl
HETATM   19 CL   LIG     1      14.970  34.435  16.876  1.00  0.00    -0.078 Cl
HETATM   20 CL   LIG     1      15.287  32.213  18.712  1.00  0.00    -0.078 Cl
ENDBRANCH   3  17
TORSDOF 6
ENDMDL
MODEL 9
REMARK VINA RESULT:      -4.4     15.125     16.378
REMARK  6 active torsions:
REMARK  status: ('A' for Active; 'I' for Inactive)
REMARK    1  A    between atoms: C_3  and  C_4 
REMARK    2  A    between atoms: C_10  and  O_17 
REMARK    3  A    between atoms: C_11  and  C_13 
REMARK    4  A    between atoms: C_13  and  C_15 
REMARK    5  A    between atoms: C_13  and  O_14 
REMARK    6  A    between atoms: C_15  and  O_16 
ROOT
HETATM    1  C   LIG     1      26.206  23.635  20.583  1.00  0.00     0.295 C 
HETATM    2  O   LIG     1      24.896  23.401  20.991  1.00  0.00    -0.324 OA
HETATM    3  C   LIG     1      24.695  22.018  20.817  1.00  0.00     0.318 C 
HETATM    4  O   LIG     1      25.602  21.499  19.871  1.00  0.00    -0.344 OA
HETATM    5  C   LIG     1      26.626  22.442  19.779  1.00  0.00     0.211 C 
HETATM    6  C   LIG     1      26.764  22.957  18.370  1.00  0.00     0.183 C 
HETATM    7  C   LIG     1      26.823  24.479  18.550  1.00  0.00     0.187 C 
HETATM    8  O   LIG     1      26.257  24.808  19.800  1.00  0.00    -0.348 OA
ENDROOT
BRANCH   7   9
HETATM    9  C   LIG     1      28.223  25.132  18.406  1.00  0.00     0.173 C 
BRANCH   9  10
HETATM   10  C   LIG     1      28.379  26.419  19.241  1.00  0.00     0.198 C 
BRANCH  10  11
HETATM   11  O   LIG     1      27.309  27.292  19.003  1.00  0.00    -0.398 OA
HETATM   12  H   LIG     1      27.406  28.042  19.647  1.00  0.00     0.209 HD
ENDBRANCH  10  11
ENDBRANCH   9  10
BRANCH   9  13
HETATM   13  O   LIG     1      28.434  25.431  17.049  1.00  0.00    -0.391 OA
HETATM   14  H   LIG     1      28.816  24.618  16.627  1.00  0.00     0.210 HD
ENDBRANCH   9  13
ENDBRANCH   7   9
BRANCH   6  15
HETATM   15  O   LIG     1      27.905  22.422  17.749  1.00  0.00    -0.390 OA
HETATM   16  H   LIG     1      28.114  23.018  16.983  1.00  0.00     0.210 HD
ENDBRANCH   6  15
BRANCH   3  17
HETATM   17  C   LIG     1      23.253  21.751  20.365  1.00  0.00     0.237 C 
HETATM   18 CL   LIG     1      22.126  22.805  21.257  1.00  0.00    -0.078 Cl
HETATM   19 CL   LIG     1      22.810  20.055  20.695  1.00  0.00    -0.078 Cl
HETATM   20 CL   LIG     1      23.068  22.062  18.618  1.00  0.00    -0.078 Cl
ENDBRANCH   3  17
TORSDOF 6
ENDMDL
MODEL 10
REMARK VINA RESULT:      -4.3     15.341     16.643
REMARK  6 active torsions:
REMARK  status: ('A' for Active; 'I' for Inactive)
REMARK    1  A    between atoms: C_3  and  C_4 
REMARK    2  A    between atoms: C_10  and  O_17 
REMARK    3  A    between atoms: C_11  and  C_13 
REMARK    4  A    between atoms: C_13  and  C_15 
REMARK    5  A    between atoms: C_13  and  O_14 
REMARK    6  A    between atoms: C_15  and  O_16 
ROOT
HETATM    1  C   LIG     1      26.494  22.628  20.510  1.00  0.00     0.295 C 
HETATM    2  O   LIG     1      25.402  21.879  20.940  1.00  0.00    -0.324 OA
HETATM    3  C   LIG     1      24.993  21.141  19.813  1.00  0.00     0.318 C 
HETATM    4  O   LIG     1      25.429  21.762  18.626  1.00  0.00    -0.344 OA
HETATM    5  C   LIG     1      26.453  22.628  19.012  1.00  0.00     0.211 C 
HETATM    6  C   LIG     1      26.130  24.051  18.637  1.00  0.00     0.183 C 
HETATM    7  C   LIG     1      26.427  24.835  19.921  1.00  0.00     0.187 C 
HETATM    8  O   LIG     1      26.393  23.943  21.013  1.00  0.00    -0.348 OA
ENDROOT
BRANCH   7   9
HETATM    9  C   LIG     1      27.746  25.653  19.936  1.00  0.00     0.173 C 
BRANCH   9  10
HETATM   10  C   LIG     1      28.300  25.881  21.355  1.00  0.00     0.198 C 
BRANCH  10  11
HETATM   11  O   LIG     1      29.103  24.801  21.749  1.00  0.00    -0.398 OA
HETATM   12  H   LIG     1      28.485  24.088  22.063  1.00  0.00     0.209 HD
ENDBRANCH  10  11
ENDBRANCH   9  10
BRANCH   9  13
HETATM   13  O   LIG     1      27.502  26.896  19.327  1.00  0.00    -0.391 OA
HETATM   14  H   LIG     1      26.715  26.781  18.733  1.00  0.00     0.210 HD
ENDBRANCH   9  13
ENDBRANCH   7   9
BRANCH   6  15
HETATM   15  O   LIG     1      26.899  24.466  17.537  1.00  0.00    -0.390 OA
HETATM   16  H   LIG     1      26.895  23.712  16.891  1.00  0.00     0.210 HD
ENDBRANCH   6  15
BRANCH   3  17
HETATM   17  C   LIG     1      23.465  21.002  19.803  1.00  0.00     0.237 C 
HETATM   18 CL   LIG     1      23.002  19.294  20.019  1.00  0.00    -0.078 Cl
HETATM   19 CL   LIG     1      22.806  21.566  18.244  1.00  0.00    -0.078 Cl
HETATM   20 CL   LIG     1      22.733  21.964  21.115  1.00  0.00    -0.078 Cl
ENDBRANCH   3  17
TORSDOF 6
ENDMDL
MODEL 11
REMARK VINA RESULT:      -3.9     15.256     16.240
REMARK  6 active torsions:
REMARK  status: ('A' for Active; 'I' for Inactive)
REMARK    1  A    between atoms: C_3  and  C_4 
REMARK    2  A    between atoms: C_10  and  O_17 
REMARK    3  A    between atoms: C_11  and  C_13 
REMARK    4  A    between atoms: C_13  and  C_15 
REMARK    5  A    between atoms: C_13  and  O_14 
REMARK    6  A    between atoms: C_15  and  O_16 
ROOT
HETATM    1  C   LIG     1      26.768  22.498  18.697  1.00  0.00     0.295 C 
HETATM    2  O   LIG     1      27.464  23.424  17.925  1.00  0.00    -0.324 OA
HETATM    3  C   LIG     1      28.504  23.888  18.753  1.00  0.00     0.318 C 
HETATM    4  O   LIG     1      28.183  23.694  20.111  1.00  0.00    -0.344 OA
HETATM    5  C   LIG     1      27.166  22.739  20.121  1.00  0.00     0.211 C 
HETATM    6  C   LIG     1      25.922  23.279  20.781  1.00  0.00     0.183 C 
HETATM    7  C   LIG     1      24.806  22.909  19.796  1.00  0.00     0.187 C 
HETATM    8  O   LIG     1      25.379  22.688  18.526  1.00  0.00    -0.348 OA
ENDROOT
BRANCH   7   9
HETATM    9  C   LIG     1      23.909  21.709  20.197  1.00  0.00     0.173 C 
BRANCH   9  10
HETATM   10  C   LIG     1      23.208  21.048  18.993  1.00  0.00     0.198 C 
BRANCH  10  11
HETATM   11  O   LIG     1      22.667  22.023  18.144  1.00  0.00    -0.398 OA
HETATM   12  H   LIG     1      22.606  21.612  17.242  1.00  0.00     0.209 HD
ENDBRANCH  10  11
ENDBRANCH   9  10
BRANCH   9  13
HETATM   13  O   LIG     1      22.938  22.166  21.105  1.00  0.00    -0.391 OA
HETATM   14  H   LIG     1      23.349  22.907  21.623  1.00  0.00     0.210 HD
ENDBRANCH   9  13
ENDBRANCH   7   9
BRANCH   6  15
HETATM   15  O   LIG     1      25.750  22.720  22.058  1.00  0.00    -0.390 OA
HETATM   16  H   LIG     1      26.215  23.324  22.694  1.00  0.00     0.210 HD
ENDBRANCH   6  15
BRANCH   3  17
HETATM   17  C   LIG     1      28.764  25.376  18.482  1.00  0.00     0.237 C 
HETATM   18 CL   LIG     1      30.219  25.914  19.362  1.00  0.00    -0.078 Cl
HETATM   19 CL   LIG     1      27.381  26.355  19.039  1.00  0.00    -0.078 Cl
HETATM   20 CL   LIG     1      29.009  25.671  16.739  1.00  0.00    -0.078 Cl
ENDBRANCH   3  17
TORSDOF 6
ENDMDL
MODEL 12
REMARK VINA RESULT:      -3.8     15.921     17.422
REMARK  6 active torsions:
REMARK  status: ('A' for Active; 'I' for Inactive)
REMARK    1  A    between atoms: C_3  and  C_4 
REMARK    2  A    between atoms: C_10  and  O_17 
REMARK    3  A    between atoms: C_11  and  C_13 
REMARK    4  A    between atoms: C_13  and  C_15 
REMARK    5  A    between atoms: C_13  and  O_14 
REMARK    6  A    between atoms: C_15  and  O_16 
ROOT
HETATM    1  C   LIG     1      24.980  19.710  19.531  1.00  0.00     0.295 C 
HETATM    2  O   LIG     1      25.327  20.822  20.292  1.00  0.00    -0.324 OA
HETATM    3  C   LIG     1      24.330  20.920  21.281  1.00  0.00     0.318 C 
HETATM    4  O   LIG     1      23.153  20.266  20.866  1.00  0.00    -0.344 OA
HETATM    5  C   LIG     1      23.544  19.411  19.836  1.00  0.00     0.211 C 
HETATM    6  C   LIG     1      22.807  19.728  18.559  1.00  0.00     0.183 C 
HETATM    7  C   LIG     1      23.921  19.778  17.506  1.00  0.00     0.187 C 
HETATM    8  O   LIG     1      25.150  20.002  18.160  1.00  0.00    -0.348 OA
ENDROOT
BRANCH   7   9
HETATM    9  C   LIG     1      24.029  18.549  16.565  1.00  0.00     0.173 C 
BRANCH   9  10
HETATM   10  C   LIG     1      25.395  18.446  15.860  1.00  0.00     0.198 C 
BRANCH  10  11
HETATM   11  O   LIG     1      25.843  19.715  15.469  1.00  0.00    -0.398 OA
HETATM   12  H   LIG     1      26.371  19.586  14.636  1.00  0.00     0.209 HD
ENDBRANCH  10  11
ENDBRANCH   9  10
BRANCH   9  13
HETATM   13  O   LIG     1      23.013  18.642  15.598  1.00  0.00    -0.391 OA
HETATM   14  H   LIG     1      22.201  18.222  15.986  1.00  0.00     0.210 HD
ENDBRANCH   9  13
ENDBRANCH   7   9
BRANCH   6  15
HETATM   15  O   LIG     1      21.827  18.757  18.293  1.00  0.00    -0.390 OA
HETATM   16  H   LIG     1      21.602  18.842  17.329  1.00  0.00     0.210 HD
ENDBRANCH   6  15
BRANCH   3  17
HETATM   17  C   LIG     1      24.034  22.395  21.583  1.00  0.00     0.237 C 
HETATM   18 CL   LIG     1      25.014  23.446  20.527  1.00  0.00    -0.078 Cl
HETATM   19 CL   LIG     1      24.442  22.770  23.278  1.00  0.00    -0.078 Cl
HETATM   20 CL   LIG     1      22.308  22.763  21.314  1.00  0.00    -0.078 Cl
ENDBRANCH   3  17
TORSDOF 6
ENDMDL
MODEL 13
REMARK VINA RESULT:      -3.8     15.364     16.741
REMARK  6 active torsions:
REMARK  status: ('A' for Active; 'I' for Inactive)
REMARK    1  A    between atoms: C_3  and  C_4 
REMARK    2  A    between atoms: C_10  and  O_17 
REMARK    3  A    between atoms: C_11  and  C_13 
REMARK    4  A    between atoms: C_13  and  C_15 
REMARK    5  A    between atoms: C_13  and  O_14 
REMARK    6  A    between atoms: C_15  and  O_16 
ROOT
HETATM    1  C   LIG     1      25.697  21.404  20.147  1.00  0.00     0.295 C 
HETATM    2  O   LIG     1      26.799  22.233  20.343  1.00  0.00    -0.324 OA
HETATM    3  C   LIG     1      26.261  23.511  20.589  1.00  0.00     0.318 C 
HETATM    4  O   LIG     1      24.960  23.614  20.059  1.00  0.00    -0.344 OA
HETATM    5  C   LIG     1      24.529  22.301  19.871  1.00  0.00     0.211 C 
HETATM    6  C   LIG     1      24.182  22.045  18.426  1.00  0.00     0.183 C 
HETATM    7  C   LIG     1      24.903  20.728  18.114  1.00  0.00     0.187 C 
HETATM    8  O   LIG     1      25.939  20.546  19.053  1.00  0.00    -0.348 OA
ENDROOT
BRANCH   7   9
HETATM    9  C   LIG     1      24.012  19.459  18.044  1.00  0.00     0.173 C 
BRANCH   9  10
HETATM   10  C   LIG     1      24.789  18.158  18.324  1.00  0.00     0.198 C 
BRANCH  10  11
HETATM   11  O   LIG     1      24.889  17.933  19.704  1.00  0.00    -0.398 OA
HETATM   12  H   LIG     1      23.963  17.958  20.064  1.00  0.00     0.209 HD
ENDBRANCH  10  11
ENDBRANCH   9  10
BRANCH   9  13
HETATM   13  O   LIG     1      23.438  19.392  16.763  1.00  0.00    -0.391 OA
HETATM   14  H   LIG     1      22.457  19.494  16.876  1.00  0.00     0.210 HD
ENDBRANCH   9  13
ENDBRANCH   7   9
BRANCH   6  15
HETATM   15  O   LIG     1      22.791  21.978  18.249  1.00  0.00    -0.390 OA
HETATM   16  H   LIG     1      22.481  21.180  18.752  1.00  0.00     0.210 HD
ENDBRANCH   6  15
BRANCH   3  17
HETATM   17  C   LIG     1      27.166  24.587  19.974  1.00  0.00     0.237 C 
HETATM   18 CL   LIG     1      26.197  25.712  18.986  1.00  0.00    -0.078 Cl
HETATM   19 CL   LIG     1      28.392  23.833  18.921  1.00  0.00    -0.078 Cl
HETATM   20 CL   LIG     1      28.000  25.518  21.248  1.00  0.00    -0.078 Cl
ENDBRANCH   3  17
TORSDOF 6
ENDMDL
MODEL 14
REMARK VINA RESULT:      -3.7     15.596     16.941
REMARK  6 active torsions:
REMARK  status: ('A' for Active; 'I' for Inactive)
REMARK    1  A    between atoms: C_3  and  C_4 
REMARK    2  A    between atoms: C_10  and  O_17 
REMARK    3  A    between atoms: C_11  and  C_13 
REMARK    4  A    between atoms: C_13  and  C_15 
REMARK    5  A    between atoms: C_13  and  O_14 
REMARK    6  A    between atoms: C_15  and  O_16 
ROOT
HETATM    1  C   LIG     1      26.382  21.961  21.241  1.00  0.00     0.295 C 
HETATM    2  O   LIG     1      25.723  21.191  22.197  1.00  0.00    -0.324 OA
HETATM    3  C   LIG     1      25.038  20.202  21.466  1.00  0.00     0.318 C 
HETATM    4  O   LIG     1      24.826  20.622  20.138  1.00  0.00    -0.344 OA
HETATM    5  C   LIG     1      25.735  21.658  19.924  1.00  0.00     0.211 C 
HETATM    6  C   LIG     1      25.025  22.933  19.544  1.00  0.00     0.183 C 
HETATM    7  C   LIG     1      25.666  23.985  20.458  1.00  0.00     0.187 C 
HETATM    8  O   LIG     1      26.250  23.329  21.561  1.00  0.00    -0.348 OA
ENDROOT
BRANCH   7   9
HETATM    9  C   LIG     1      26.696  24.935  19.791  1.00  0.00     0.173 C 
BRANCH   9  10
HETATM   10  C   LIG     1      27.738  25.489  20.782  1.00  0.00     0.198 C 
BRANCH  10  11
HETATM   11  O   LIG     1      28.812  24.597  20.914  1.00  0.00    -0.398 OA
HETATM   12  H   LIG     1      28.477  23.705  20.632  1.00  0.00     0.209 HD
ENDBRANCH  10  11
ENDBRANCH   9  10
BRANCH   9  13
HETATM   13  O   LIG     1      25.996  26.005  19.206  1.00  0.00    -0.391 OA
HETATM   14  H   LIG     1      25.943  26.725  19.887  1.00  0.00     0.210 HD
ENDBRANCH   9  13
ENDBRANCH   7   9
BRANCH   6  15
HETATM   15  O   LIG     1      25.185  23.206  18.176  1.00  0.00    -0.390 OA
HETATM   16  H   LIG     1      25.060  22.344  17.700  1.00  0.00     0.210 HD
ENDBRANCH   6  15
BRANCH   3  17
HETATM   17  C   LIG     1      23.695  19.890  22.140  1.00  0.00     0.237 C 
HETATM   18 CL   LIG     1      22.789  18.694  21.176  1.00  0.00    -0.078 Cl
HETATM   19 CL   LIG     1      22.709  21.372  22.261  1.00  0.00    -0.078 Cl
HETATM   20 CL   LIG     1      23.945  19.233  23.779  1.00  0.00    -0.078 Cl
ENDBRANCH   3  17
TORSDOF 6
ENDMDL
MODEL 15
REMARK VINA RESULT:      -3.7     10.121     12.597
REMARK  6 active torsions:
REMARK  status: ('A' for Active; 'I' for Inactive)
REMARK    1  A    between atoms: C_3  and  C_4 
REMARK    2  A    between atoms: C_10  and  O_17 
REMARK    3  A    between atoms: C_11  and  C_13 
REMARK    4  A    between atoms: C_13  and  C_15 
REMARK    5  A    between atoms: C_13  and  O_14 
REMARK    6  A    between atoms: C_15  and  O_16 
ROOT
HETATM    1  C   LIG     1      12.873  27.565  14.106  1.00  0.00     0.295 C 
HETATM    2  O   LIG     1      12.116  26.937  13.120  1.00  0.00    -0.324 OA
HETATM    3  C   LIG     1      13.001  26.041  12.489  1.00  0.00     0.318 C 
HETATM    4  O   LIG     1      14.337  26.444  12.680  1.00  0.00    -0.344 OA
HETATM    5  C   LIG     1      14.312  27.322  13.764  1.00  0.00     0.211 C 
HETATM    6  C   LIG     1      14.848  28.676  13.378  1.00  0.00     0.183 C 
HETATM    7  C   LIG     1      13.798  29.648  13.931  1.00  0.00     0.187 C 
HETATM    8  O   LIG     1      12.588  28.947  14.114  1.00  0.00    -0.348 OA
ENDROOT
BRANCH   7   9
HETATM    9  C   LIG     1      14.182  30.406  15.229  1.00  0.00     0.173 C 
BRANCH   9  10
HETATM   10  C   LIG     1      12.972  31.051  15.933  1.00  0.00     0.198 C 
BRANCH  10  11
HETATM   11  O   LIG     1      12.317  30.112  16.742  1.00  0.00    -0.398 OA
HETATM   12  H   LIG     1      12.992  29.771  17.385  1.00  0.00     0.209 HD
ENDBRANCH  10  11
ENDBRANCH   9  10
BRANCH   9  13
HETATM   13  O   LIG     1      15.113  31.406  14.898  1.00  0.00    -0.391 OA
HETATM   14  H   LIG     1      15.674  31.049  14.160  1.00  0.00     0.210 HD
ENDBRANCH   9  13
ENDBRANCH   7   9
BRANCH   6  15
HETATM   15  O   LIG     1      16.132  28.877  13.912  1.00  0.00    -0.390 OA
HETATM   16  H   LIG     1      16.776  28.613  13.203  1.00  0.00     0.210 HD
ENDBRANCH   6  15
BRANCH   3  17
HETATM   17  C   LIG     1      12.685  25.961  10.990  1.00  0.00     0.237 C 
HETATM   18 CL   LIG     1      12.044  24.347  10.583  1.00  0.00    -0.078 Cl
HETATM   19 CL   LIG     1      14.166  26.231  10.033  1.00  0.00    -0.078 Cl
HETATM   20 CL   LIG     1      11.474  27.189  10.530  1.00  0.00    -0.078 Cl
ENDBRANCH   3  17
TORSDOF 6
ENDMDL
MODEL 16
REMARK VINA RESULT:      -3.7      3.977      5.762
REMARK  6 active torsions:
REMARK  status: ('A' for Active; 'I' for Inactive)
REMARK    1  A    between atoms: C_3  and  C_4 
REMARK    2  A    between atoms: C_10  and  O_17 
REMARK    3  A    between atoms: C_11  and  C_13 
REMARK    4  A    between atoms: C_13  and  C_15 
REMARK    5  A    between atoms: C_13  and  O_14 
REMARK    6  A    between atoms: C_15  and  O_16 
ROOT
HETATM    1  C   LIG     1      18.851  37.511  19.382  1.00  0.00     0.295 C 
HETATM    2  O   LIG     1      18.525  37.844  18.069  1.00  0.00    -0.324 OA
HETATM    3  C   LIG     1      19.301  38.980  17.772  1.00  0.00     0.318 C 
HETATM    4  O   LIG     1      19.680  39.647  18.953  1.00  0.00    -0.344 OA
HETATM    5  C   LIG     1      19.514  38.716  19.978  1.00  0.00     0.211 C 
HETATM    6  C   LIG     1      18.540  39.216  21.014  1.00  0.00     0.183 C 
HETATM    7  C   LIG     1      17.596  38.025  21.221  1.00  0.00     0.187 C 
HETATM    8  O   LIG     1      17.677  37.183  20.093  1.00  0.00    -0.348 OA
ENDROOT
BRANCH   7   9
HETATM    9  C   LIG     1      17.804  37.204  22.521  1.00  0.00     0.173 C 
BRANCH   9  10
HETATM   10  C   LIG     1      16.907  35.952  22.596  1.00  0.00     0.198 C 
BRANCH  10  11
HETATM   11  O   LIG     1      15.725  36.151  21.870  1.00  0.00    -0.398 OA
HETATM   12  H   LIG     1      15.273  36.939  22.273  1.00  0.00     0.209 HD
ENDBRANCH  10  11
ENDBRANCH   9  10
BRANCH   9  13
HETATM   13  O   LIG     1      17.531  38.037  23.620  1.00  0.00    -0.391 OA
HETATM   14  H   LIG     1      17.303  38.933  23.257  1.00  0.00     0.210 HD
ENDBRANCH   9  13
ENDBRANCH   7   9
BRANCH   6  15
HETATM   15  O   LIG     1      19.211  39.609  22.184  1.00  0.00    -0.390 OA
HETATM   16  H   LIG     1      20.176  39.432  22.028  1.00  0.00     0.210 HD
ENDBRANCH   6  15
BRANCH   3  17
HETATM   17  C   LIG     1      18.512  39.930  16.861  1.00  0.00     0.237 C 
HETATM   18 CL   LIG     1      17.073  40.545  17.716  1.00  0.00    -0.078 Cl
HETATM   19 CL   LIG     1      17.965  39.067  15.399  1.00  0.00    -0.078 Cl
HETATM   20 CL   LIG     1      19.519  41.316  16.365  1.00  0.00    -0.078 Cl
ENDBRANCH   3  17
TORSDOF 6
ENDMDL
MODEL 17
REMARK VINA RESULT:      -3.4      3.696      5.727
REMARK  6 active torsions:
REMARK  status: ('A' for Active; 'I' for Inactive)
REMARK    1  A    between atoms: C_3  and  C_4 
REMARK    2  A    between atoms: C_10  and  O_17 
REMARK    3  A    between atoms: C_11  and  C_13 
REMARK    4  A    between atoms: C_13  and  C_15 
REMARK    5  A    between atoms: C_13  and  O_14 
REMARK    6  A    between atoms: C_15  and  O_16 
ROOT
HETATM    1  C   LIG     1      15.606  35.473  19.538  1.00  0.00     0.295 C 
HETATM    2  O   LIG     1      15.517  34.486  18.560  1.00  0.00    -0.324 OA
HETATM    3  C   LIG     1      14.799  33.434  19.161  1.00  0.00     0.318 C 
HETATM    4  O   LIG     1      14.893  33.505  20.565  1.00  0.00    -0.344 OA
HETATM    5  C   LIG     1      15.294  34.812  20.847  1.00  0.00     0.211 C 
HETATM    6  C   LIG     1      16.596  34.828  21.605  1.00  0.00     0.183 C 
HETATM    7  C   LIG     1      17.437  35.865  20.850  1.00  0.00     0.187 C 
HETATM    8  O   LIG     1      16.911  36.011  19.549  1.00  0.00    -0.348 OA
ENDROOT
BRANCH   7   9
HETATM    9  C   LIG     1      17.586  37.252  21.529  1.00  0.00     0.173 C 
BRANCH   9  10
HETATM   10  C   LIG     1      18.584  38.176  20.803  1.00  0.00     0.198 C 
BRANCH  10  11
HETATM   11  O   LIG     1      19.183  37.505  19.728  1.00  0.00    -0.398 OA
HETATM   12  H   LIG     1      18.790  36.593  19.709  1.00  0.00     0.209 HD
ENDBRANCH  10  11
ENDBRANCH   9  10
BRANCH   9  13
HETATM   13  O   LIG     1      18.016  37.053  22.852  1.00  0.00    -0.391 OA
HETATM   14  H   LIG     1      17.206  37.052  23.425  1.00  0.00     0.210 HD
ENDBRANCH   9  13
ENDBRANCH   7   9
BRANCH   6  15
HETATM   15  O   LIG     1      16.385  35.155  22.955  1.00  0.00    -0.390 OA
HETATM   16  H   LIG     1      15.431  35.415  23.036  1.00  0.00     0.210 HD
ENDBRANCH   6  15
BRANCH   3  17
HETATM   17  C   LIG     1      15.335  32.084  18.666  1.00  0.00     0.237 C 
HETATM   18 CL   LIG     1      13.987  30.947  18.404  1.00  0.00    -0.078 Cl
HETATM   19 CL   LIG     1      16.434  31.376  19.880  1.00  0.00    -0.078 Cl
HETATM   20 CL   LIG     1      16.226  32.279  17.132  1.00  0.00    -0.078 Cl
ENDBRANCH   3  17
TORSDOF 6
ENDMDL
MODEL 18
REMARK VINA RESULT:      -3.2     16.700     18.173
REMARK  6 active torsions:
REMARK  status: ('A' for Active; 'I' for Inactive)
REMARK    1  A    between atoms: C_3  and  C_4 
REMARK    2  A    between atoms: C_10  and  O_17 
REMARK    3  A    between atoms: C_11  and  C_13 
REMARK    4  A    between atoms: C_13  and  C_15 
REMARK    5  A    between atoms: C_13  and  O_14 
REMARK    6  A    between atoms: C_15  and  O_16 
ROOT
HETATM    1  C   LIG     1      26.106  20.085  18.959  1.00  0.00     0.295 C 
HETATM    2  O   LIG     1      25.778  21.040  19.918  1.00  0.00    -0.324 OA
HETATM    3  C   LIG     1      24.664  20.513  20.599  1.00  0.00     0.318 C 
HETATM    4  O   LIG     1      23.995  19.564  19.801  1.00  0.00    -0.344 OA
HETATM    5  C   LIG     1      24.913  19.189  18.820  1.00  0.00     0.211 C 
HETATM    6  C   LIG     1      24.378  19.473  17.439  1.00  0.00     0.183 C 
HETATM    7  C   LIG     1      25.543  20.192  16.746  1.00  0.00     0.187 C 
HETATM    8  O   LIG     1      26.397  20.723  17.735  1.00  0.00    -0.348 OA
ENDROOT
BRANCH   7   9
HETATM    9  C   LIG     1      26.357  19.352  15.727  1.00  0.00     0.173 C 
BRANCH   9  10
HETATM   10  C   LIG     1      27.774  19.905  15.482  1.00  0.00     0.198 C 
BRANCH  10  11
HETATM   11  O   LIG     1      28.667  19.413  16.444  1.00  0.00    -0.398 OA
HETATM   12  H   LIG     1      29.541  19.295  15.987  1.00  0.00     0.209 HD
ENDBRANCH  10  11
ENDBRANCH   9  10
BRANCH   9  13
HETATM   13  O   LIG     1      25.651  19.327  14.511  1.00  0.00    -0.391 OA
HETATM   14  H   LIG     1      25.302  20.244  14.358  1.00  0.00     0.210 HD
ENDBRANCH   9  13
ENDBRANCH   7   9
BRANCH   6  15
HETATM   15  O   LIG     1      23.991  18.286  16.797  1.00  0.00    -0.390 OA
HETATM   16  H   LIG     1      24.459  18.274  15.921  1.00  0.00     0.210 HD
ENDBRANCH   6  15
BRANCH   3  17
HETATM   17  C   LIG     1      23.704  21.645  20.987  1.00  0.00     0.237 C 
HETATM   18 CL   LIG     1      22.662  21.129  22.339  1.00  0.00    -0.078 Cl
HETATM   19 CL   LIG     1      22.658  22.065  19.605  1.00  0.00    -0.078 Cl
HETATM   20 CL   LIG     1      24.607  23.101  21.485  1.00  0.00    -0.078 Cl
ENDBRANCH   3  17
TORSDOF 6
ENDMDL
