REMARK  1 active torsions:
REMARK  status: ('A' for Active; 'I' for Inactive)
REMARK    1  A    between atoms: C_8  and  C_9 
ROOT
HETATM    1 CL   LIG     1      -0.688  -2.747   0.125  1.00  0.00    -0.083 Cl
HETATM    2  C   LIG     1      -1.478  -1.174   0.156  1.00  0.00     0.046 A 
HETATM    3  C   LIG     1      -2.871  -1.124   0.276  1.00  0.00     0.025 A 
HETATM    4  C   LIG     1      -3.532   0.105   0.304  1.00  0.00     0.003 A 
HETATM    5  C   LIG     1      -2.804   1.293   0.213  1.00  0.00     0.025 A 
HETATM    6  C   LIG     1      -1.411   1.260   0.093  1.00  0.00     0.046 A 
HETATM    7 CL   LIG     1      -0.536   2.784  -0.019  1.00  0.00    -0.083 Cl
HETATM    8  C   LIG     1      -0.737   0.022   0.064  1.00  0.00     0.021 A 
ENDROOT
BRANCH   8   9
HETATM    9  C   LIG     1       0.737  -0.022  -0.064  1.00  0.00     0.021 A 
HETATM   10  C   LIG     1       1.550  -0.014   1.089  1.00  0.00     0.046 A 
HETATM   11  C   LIG     1       2.942  -0.056   0.960  1.00  0.00     0.025 A 
HETATM   12 CL   LIG     1       0.851   0.047   2.703  1.00  0.00    -0.083 Cl
HETATM   13  C   LIG     1       3.532  -0.105  -0.304  1.00  0.00     0.003 A 
HETATM   14  C   LIG     1       2.733  -0.113  -1.449  1.00  0.00     0.025 A 
HETATM   15  C   LIG     1       1.339  -0.072  -1.337  1.00  0.00     0.046 A 
HETATM   16 CL   LIG     1       0.372  -0.084  -2.809  1.00  0.00    -0.083 Cl
ENDBRANCH   8   9
TORSDOF 1
