MODEL 1
REMARK VINA RESULT:      -4.4      0.000      0.000
REMARK  1 active torsions:
REMARK  status: ('A' for Active; 'I' for Inactive)
REMARK    1  A    between atoms: C_8  and  C_9 
ROOT
HETATM    1 CL   LIG     1      26.296  21.068  22.256  1.00  0.00    -0.083 Cl
HETATM    2  C   LIG     1      26.778  22.678  21.730  1.00  0.00     0.046 A 
HETATM    3  C   LIG     1      27.736  23.370  22.479  1.00  0.00     0.025 A 
HETATM    4  C   LIG     1      28.143  24.648  22.092  1.00  0.00     0.003 A 
HETATM    5  C   LIG     1      27.595  25.243  20.954  1.00  0.00     0.025 A 
HETATM    6  C   LIG     1      26.636  24.564  20.195  1.00  0.00     0.046 A 
HETATM    7 CL   LIG     1      25.973  25.354  18.768  1.00  0.00    -0.083 Cl
HETATM    8  C   LIG     1      26.221  23.272  20.580  1.00  0.00     0.021 A 
ENDROOT
BRANCH   8   9
HETATM    9  C   LIG     1      25.206  22.547  19.783  1.00  0.00     0.021 A 
HETATM   10  C   LIG     1      25.583  21.861  18.609  1.00  0.00     0.046 A 
HETATM   11  C   LIG     1      24.618  21.177  17.862  1.00  0.00     0.025 A 
HETATM   12 CL   LIG     1      27.253  21.839  18.056  1.00  0.00    -0.083 Cl
HETATM   13  C   LIG     1      23.283  21.172  18.270  1.00  0.00     0.003 A 
HETATM   14  C   LIG     1      22.903  21.850  19.430  1.00  0.00     0.025 A 
HETATM   15  C   LIG     1      23.856  22.538  20.189  1.00  0.00     0.046 A 
HETATM   16 CL   LIG     1      23.331  23.378  21.645  1.00  0.00    -0.083 Cl
ENDBRANCH   8   9
TORSDOF 1
ENDMDL
MODEL 2
REMARK VINA RESULT:      -4.4      0.096      4.746
REMARK  1 active torsions:
REMARK  status: ('A' for Active; 'I' for Inactive)
REMARK    1  A    between atoms: C_8  and  C_9 
ROOT
HETATM    1 CL   LIG     1      27.160  21.756  18.010  1.00  0.00    -0.083 Cl
HETATM    2  C   LIG     1      25.505  21.805  18.607  1.00  0.00     0.046 A 
HETATM    3  C   LIG     1      24.510  21.136  17.885  1.00  0.00     0.025 A 
HETATM    4  C   LIG     1      23.187  21.153  18.328  1.00  0.00     0.003 A 
HETATM    5  C   LIG     1      22.849  21.839  19.496  1.00  0.00     0.025 A 
HETATM    6  C   LIG     1      23.831  22.512  20.229  1.00  0.00     0.046 A 
HETATM    7 CL   LIG     1      23.357  23.362  21.696  1.00  0.00    -0.083 Cl
HETATM    8  C   LIG     1      25.170  22.499  19.788  1.00  0.00     0.021 A 
ENDROOT
BRANCH   8   9
HETATM    9  C   LIG     1      26.216  23.210  20.557  1.00  0.00     0.021 A 
HETATM   10  C   LIG     1      26.626  24.503  20.170  1.00  0.00     0.046 A 
HETATM   11  C   LIG     1      27.615  25.168  20.902  1.00  0.00     0.025 A 
HETATM   12 CL   LIG     1      25.917  25.310  18.776  1.00  0.00    -0.083 Cl
HETATM   13  C   LIG     1      28.199  24.559  22.014  1.00  0.00     0.003 A 
HETATM   14  C   LIG     1      27.798  23.280  22.402  1.00  0.00     0.025 A 
HETATM   15  C   LIG     1      26.810  22.601  21.681  1.00  0.00     0.046 A 
HETATM   16 CL   LIG     1      26.336  20.988  22.207  1.00  0.00    -0.083 Cl
ENDBRANCH   8   9
TORSDOF 1
ENDMDL
MODEL 3
REMARK VINA RESULT:      -4.4      0.141      2.306
REMARK  1 active torsions:
REMARK  status: ('A' for Active; 'I' for Inactive)
REMARK    1  A    between atoms: C_8  and  C_9 
ROOT
HETATM    1 CL   LIG     1      26.378  21.145  22.165  1.00  0.00    -0.083 Cl
HETATM    2  C   LIG     1      26.803  22.764  21.619  1.00  0.00     0.046 A 
HETATM    3  C   LIG     1      27.779  23.477  22.323  1.00  0.00     0.025 A 
HETATM    4  C   LIG     1      28.142  24.763  21.920  1.00  0.00     0.003 A 
HETATM    5  C   LIG     1      27.530  25.345  20.808  1.00  0.00     0.025 A 
HETATM    6  C   LIG     1      26.553  24.646  20.092  1.00  0.00     0.046 A 
HETATM    7 CL   LIG     1      25.810  25.421  18.697  1.00  0.00    -0.083 Cl
HETATM    8  C   LIG     1      26.182  23.346  20.495  1.00  0.00     0.021 A 
ENDROOT
BRANCH   8   9
HETATM    9  C   LIG     1      25.148  22.600  19.744  1.00  0.00     0.021 A 
HETATM   10  C   LIG     1      23.808  22.604  20.187  1.00  0.00     0.046 A 
HETATM   11  C   LIG     1      22.836  21.896  19.472  1.00  0.00     0.025 A 
HETATM   12 CL   LIG     1      23.322  23.487  21.629  1.00  0.00    -0.083 Cl
HETATM   13  C   LIG     1      23.184  21.185  18.323  1.00  0.00     0.003 A 
HETATM   14  C   LIG     1      24.508  21.177  17.880  1.00  0.00     0.025 A 
HETATM   15  C   LIG     1      25.492  21.880  18.583  1.00  0.00     0.046 A 
HETATM   16 CL   LIG     1      27.149  21.841  17.986  1.00  0.00    -0.083 Cl
ENDBRANCH   8   9
TORSDOF 1
ENDMDL
MODEL 4
REMARK VINA RESULT:      -4.4      0.110      2.304
REMARK  1 active torsions:
REMARK  status: ('A' for Active; 'I' for Inactive)
REMARK    1  A    between atoms: C_8  and  C_9 
ROOT
HETATM    1 CL   LIG     1      25.832  25.370  18.721  1.00  0.00    -0.083 Cl
HETATM    2  C   LIG     1      26.583  24.599  20.114  1.00  0.00     0.046 A 
HETATM    3  C   LIG     1      27.553  25.306  20.832  1.00  0.00     0.025 A 
HETATM    4  C   LIG     1      28.170  24.727  21.942  1.00  0.00     0.003 A 
HETATM    5  C   LIG     1      27.821  23.436  22.342  1.00  0.00     0.025 A 
HETATM    6  C   LIG     1      26.853  22.715  21.635  1.00  0.00     0.046 A 
HETATM    7 CL   LIG     1      26.446  21.090  22.176  1.00  0.00    -0.083 Cl
HETATM    8  C   LIG     1      26.226  23.294  20.513  1.00  0.00     0.021 A 
ENDROOT
BRANCH   8   9
HETATM    9  C   LIG     1      25.201  22.538  19.758  1.00  0.00     0.021 A 
HETATM   10  C   LIG     1      25.556  21.838  18.585  1.00  0.00     0.046 A 
HETATM   11  C   LIG     1      24.583  21.126  17.878  1.00  0.00     0.025 A 
HETATM   12 CL   LIG     1      27.210  21.838  17.984  1.00  0.00    -0.083 Cl
HETATM   13  C   LIG     1      23.261  21.104  18.325  1.00  0.00     0.003 A 
HETATM   14  C   LIG     1      22.903  21.794  19.484  1.00  0.00     0.025 A 
HETATM   15  C   LIG     1      23.865  22.511  20.204  1.00  0.00     0.046 A 
HETATM   16 CL   LIG     1      23.367  23.367  21.661  1.00  0.00    -0.083 Cl
ENDBRANCH   8   9
TORSDOF 1
ENDMDL
MODEL 5
REMARK VINA RESULT:      -4.4      0.058      4.662
REMARK  1 active torsions:
REMARK  status: ('A' for Active; 'I' for Inactive)
REMARK    1  A    between atoms: C_8  and  C_9 
ROOT
HETATM    1 CL   LIG     1      23.296  23.421  21.631  1.00  0.00    -0.083 Cl
HETATM    2  C   LIG     1      23.817  22.539  20.199  1.00  0.00     0.046 A 
HETATM    3  C   LIG     1      22.861  21.840  19.455  1.00  0.00     0.025 A 
HETATM    4  C   LIG     1      23.237  21.129  18.314  1.00  0.00     0.003 A 
HETATM    5  C   LIG     1      24.573  21.114  17.908  1.00  0.00     0.025 A 
HETATM    6  C   LIG     1      25.541  21.809  18.641  1.00  0.00     0.046 A 
HETATM    7 CL   LIG     1      27.213  21.760  18.091  1.00  0.00    -0.083 Cl
HETATM    8  C   LIG     1      25.168  22.528  19.794  1.00  0.00     0.021 A 
ENDROOT
BRANCH   8   9
HETATM    9  C   LIG     1      26.187  23.265  20.576  1.00  0.00     0.021 A 
HETATM   10  C   LIG     1      26.589  24.557  20.178  1.00  0.00     0.046 A 
HETATM   11  C   LIG     1      27.552  25.247  20.922  1.00  0.00     0.025 A 
HETATM   12 CL   LIG     1      25.904  25.333  18.754  1.00  0.00    -0.083 Cl
HETATM   13  C   LIG     1      28.118  24.663  22.057  1.00  0.00     0.003 A 
HETATM   14  C   LIG     1      27.724  23.385  22.456  1.00  0.00     0.025 A 
HETATM   15  C   LIG     1      26.761  22.682  21.723  1.00  0.00     0.046 A 
HETATM   16 CL   LIG     1      26.296  21.072  22.265  1.00  0.00    -0.083 Cl
ENDBRANCH   8   9
TORSDOF 1
ENDMDL
MODEL 6
REMARK VINA RESULT:      -4.4      2.607      3.844
REMARK  1 active torsions:
REMARK  status: ('A' for Active; 'I' for Inactive)
REMARK    1  A    between atoms: C_8  and  C_9 
ROOT
HETATM    1 CL   LIG     1      22.429  19.702  23.151  1.00  0.00    -0.083 Cl
HETATM    2  C   LIG     1      23.622  20.935  23.546  1.00  0.00     0.046 A 
HETATM    3  C   LIG     1      23.875  21.218  24.892  1.00  0.00     0.025 A 
HETATM    4  C   LIG     1      24.814  22.190  25.244  1.00  0.00     0.003 A 
HETATM    5  C   LIG     1      25.507  22.884  24.251  1.00  0.00     0.025 A 
HETATM    6  C   LIG     1      25.266  22.613  22.900  1.00  0.00     0.046 A 
HETATM    7 CL   LIG     1      26.164  23.514  21.683  1.00  0.00    -0.083 Cl
HETATM    8  C   LIG     1      24.319  21.633  22.538  1.00  0.00     0.021 A 
ENDROOT
BRANCH   8   9
HETATM    9  C   LIG     1      24.056  21.340  21.111  1.00  0.00     0.021 A 
HETATM   10  C   LIG     1      22.999  21.987  20.436  1.00  0.00     0.046 A 
HETATM   11  C   LIG     1      22.758  21.706  19.088  1.00  0.00     0.025 A 
HETATM   12 CL   LIG     1      21.966  23.153  21.256  1.00  0.00    -0.083 Cl
HETATM   13  C   LIG     1      23.557  20.787  18.405  1.00  0.00     0.003 A 
HETATM   14  C   LIG     1      24.604  20.143  19.067  1.00  0.00     0.025 A 
HETATM   15  C   LIG     1      24.859  20.414  20.416  1.00  0.00     0.046 A 
HETATM   16 CL   LIG     1      26.191  19.578  21.209  1.00  0.00    -0.083 Cl
ENDBRANCH   8   9
TORSDOF 1
ENDMDL
MODEL 7
REMARK VINA RESULT:      -4.4      2.632      4.301
REMARK  1 active torsions:
REMARK  status: ('A' for Active; 'I' for Inactive)
REMARK    1  A    between atoms: C_8  and  C_9 
ROOT
HETATM    1 CL   LIG     1      26.160  23.463  21.717  1.00  0.00    -0.083 Cl
HETATM    2  C   LIG     1      25.253  22.557  22.924  1.00  0.00     0.046 A 
HETATM    3  C   LIG     1      25.488  22.821  24.278  1.00  0.00     0.025 A 
HETATM    4  C   LIG     1      24.788  22.122  25.263  1.00  0.00     0.003 A 
HETATM    5  C   LIG     1      23.848  21.155  24.900  1.00  0.00     0.025 A 
HETATM    6  C   LIG     1      23.602  20.880  23.551  1.00  0.00     0.046 A 
HETATM    7 CL   LIG     1      22.408  19.652  23.143  1.00  0.00    -0.083 Cl
HETATM    8  C   LIG     1      24.305  21.582  22.551  1.00  0.00     0.021 A 
ENDROOT
BRANCH   8   9
HETATM    9  C   LIG     1      24.052  21.297  21.121  1.00  0.00     0.021 A 
HETATM   10  C   LIG     1      23.009  21.959  20.439  1.00  0.00     0.046 A 
HETATM   11  C   LIG     1      22.776  21.684  19.088  1.00  0.00     0.025 A 
HETATM   12 CL   LIG     1      21.983  23.134  21.253  1.00  0.00    -0.083 Cl
HETATM   13  C   LIG     1      23.570  20.757  18.409  1.00  0.00     0.003 A 
HETATM   14  C   LIG     1      24.603  20.099  19.078  1.00  0.00     0.025 A 
HETATM   15  C   LIG     1      24.850  20.363  20.430  1.00  0.00     0.046 A 
HETATM   16 CL   LIG     1      26.164  19.509  21.232  1.00  0.00    -0.083 Cl
ENDBRANCH   8   9
TORSDOF 1
ENDMDL
MODEL 8
REMARK VINA RESULT:      -4.4      2.709      5.536
REMARK  1 active torsions:
REMARK  status: ('A' for Active; 'I' for Inactive)
REMARK    1  A    between atoms: C_8  and  C_9 
ROOT
HETATM    1 CL   LIG     1      22.002  23.154  21.271  1.00  0.00    -0.083 Cl
HETATM    2  C   LIG     1      23.010  21.941  20.489  1.00  0.00     0.046 A 
HETATM    3  C   LIG     1      22.800  21.666  19.133  1.00  0.00     0.025 A 
HETATM    4  C   LIG     1      23.579  20.710  18.479  1.00  0.00     0.003 A 
HETATM    5  C   LIG     1      24.574  20.023  19.177  1.00  0.00     0.025 A 
HETATM    6  C   LIG     1      24.797  20.287  20.532  1.00  0.00     0.046 A 
HETATM    7 CL   LIG     1      26.063  19.395  21.370  1.00  0.00    -0.083 Cl
HETATM    8  C   LIG     1      24.013  21.251  21.199  1.00  0.00     0.021 A 
ENDROOT
BRANCH   8   9
HETATM    9  C   LIG     1      24.242  21.535  22.633  1.00  0.00     0.021 A 
HETATM   10  C   LIG     1      23.517  20.834  23.620  1.00  0.00     0.046 A 
HETATM   11  C   LIG     1      23.738  21.108  24.973  1.00  0.00     0.025 A 
HETATM   12 CL   LIG     1      22.329  19.609  23.187  1.00  0.00    -0.083 Cl
HETATM   13  C   LIG     1      24.672  22.073  25.354  1.00  0.00     0.003 A 
HETATM   14  C   LIG     1      25.392  22.770  24.383  1.00  0.00     0.025 A 
HETATM   15  C   LIG     1      25.183  22.508  23.024  1.00  0.00     0.046 A 
HETATM   16 CL   LIG     1      26.115  23.412  21.835  1.00  0.00    -0.083 Cl
ENDBRANCH   8   9
TORSDOF 1
ENDMDL
MODEL 9
REMARK VINA RESULT:      -4.4      2.655      5.221
REMARK  1 active torsions:
REMARK  status: ('A' for Active; 'I' for Inactive)
REMARK    1  A    between atoms: C_8  and  C_9 
ROOT
HETATM    1 CL   LIG     1      26.157  19.488  21.279  1.00  0.00    -0.083 Cl
HETATM    2  C   LIG     1      24.852  20.342  20.462  1.00  0.00     0.046 A 
HETATM    3  C   LIG     1      24.617  20.074  19.109  1.00  0.00     0.025 A 
HETATM    4  C   LIG     1      23.591  20.732  18.429  1.00  0.00     0.003 A 
HETATM    5  C   LIG     1      22.793  21.662  19.097  1.00  0.00     0.025 A 
HETATM    6  C   LIG     1      23.015  21.941  20.449  1.00  0.00     0.046 A 
HETATM    7 CL   LIG     1      21.982  23.122  21.249  1.00  0.00    -0.083 Cl
HETATM    8  C   LIG     1      24.049  21.280  21.143  1.00  0.00     0.021 A 
ENDROOT
BRANCH   8   9
HETATM    9  C   LIG     1      24.291  21.570  22.574  1.00  0.00     0.021 A 
HETATM   10  C   LIG     1      23.583  20.866  23.571  1.00  0.00     0.046 A 
HETATM   11  C   LIG     1      23.818  21.145  24.921  1.00  0.00     0.025 A 
HETATM   12 CL   LIG     1      22.400  19.631  23.155  1.00  0.00    -0.083 Cl
HETATM   13  C   LIG     1      24.749  22.118  25.288  1.00  0.00     0.003 A 
HETATM   14  C   LIG     1      25.453  22.818  24.307  1.00  0.00     0.025 A 
HETATM   15  C   LIG     1      25.230  22.550  22.952  1.00  0.00     0.046 A 
HETATM   16 CL   LIG     1      26.142  23.459  21.750  1.00  0.00    -0.083 Cl
ENDBRANCH   8   9
TORSDOF 1
ENDMDL
MODEL 10
REMARK VINA RESULT:      -4.4      2.653      4.986
REMARK  1 active torsions:
REMARK  status: ('A' for Active; 'I' for Inactive)
REMARK    1  A    between atoms: C_8  and  C_9 
ROOT
HETATM    1 CL   LIG     1      26.155  19.479  21.283  1.00  0.00    -0.083 Cl
HETATM    2  C   LIG     1      24.851  20.334  20.465  1.00  0.00     0.046 A 
HETATM    3  C   LIG     1      24.615  20.063  19.113  1.00  0.00     0.025 A 
HETATM    4  C   LIG     1      23.590  20.721  18.431  1.00  0.00     0.003 A 
HETATM    5  C   LIG     1      22.794  21.655  19.097  1.00  0.00     0.025 A 
HETATM    6  C   LIG     1      23.017  21.937  20.449  1.00  0.00     0.046 A 
HETATM    7 CL   LIG     1      21.988  23.122  21.246  1.00  0.00    -0.083 Cl
HETATM    8  C   LIG     1      24.051  21.276  21.144  1.00  0.00     0.021 A 
ENDROOT
BRANCH   8   9
HETATM    9  C   LIG     1      24.295  21.569  22.574  1.00  0.00     0.021 A 
HETATM   10  C   LIG     1      25.238  22.551  22.946  1.00  0.00     0.046 A 
HETATM   11  C   LIG     1      25.463  22.823  24.299  1.00  0.00     0.025 A 
HETATM   12 CL   LIG     1      26.147  23.453  21.738  1.00  0.00    -0.083 Cl
HETATM   13  C   LIG     1      24.760  22.128  25.284  1.00  0.00     0.003 A 
HETATM   14  C   LIG     1      23.826  21.155  24.923  1.00  0.00     0.025 A 
HETATM   15  C   LIG     1      23.589  20.871  23.573  1.00  0.00     0.046 A 
HETATM   16 CL   LIG     1      22.402  19.636  23.165  1.00  0.00    -0.083 Cl
ENDBRANCH   8   9
TORSDOF 1
ENDMDL
MODEL 11
REMARK VINA RESULT:      -4.4      2.135      3.141
REMARK  1 active torsions:
REMARK  status: ('A' for Active; 'I' for Inactive)
REMARK    1  A    between atoms: C_8  and  C_9 
ROOT
HETATM    1 CL   LIG     1      23.990  22.218  18.045  1.00  0.00    -0.083 Cl
HETATM    2  C   LIG     1      25.181  23.115  18.982  1.00  0.00     0.046 A 
HETATM    3  C   LIG     1      25.902  24.135  18.351  1.00  0.00     0.025 A 
HETATM    4  C   LIG     1      26.855  24.867  19.061  1.00  0.00     0.003 A 
HETATM    5  C   LIG     1      27.092  24.585  20.408  1.00  0.00     0.025 A 
HETATM    6  C   LIG     1      26.379  23.570  21.053  1.00  0.00     0.046 A 
HETATM    7 CL   LIG     1      26.713  23.251  22.753  1.00  0.00    -0.083 Cl
HETATM    8  C   LIG     1      25.415  22.826  20.342  1.00  0.00     0.021 A 
ENDROOT
BRANCH   8   9
HETATM    9  C   LIG     1      24.657  21.748  21.016  1.00  0.00     0.021 A 
HETATM   10  C   LIG     1      25.154  20.428  21.022  1.00  0.00     0.046 A 
HETATM   11  C   LIG     1      24.432  19.415  21.661  1.00  0.00     0.025 A 
HETATM   12 CL   LIG     1      26.674  20.017  20.237  1.00  0.00    -0.083 Cl
HETATM   13  C   LIG     1      23.221  19.703  22.294  1.00  0.00     0.003 A 
HETATM   14  C   LIG     1      22.725  21.008  22.292  1.00  0.00     0.025 A 
HETATM   15  C   LIG     1      23.435  22.033  21.657  1.00  0.00     0.046 A 
HETATM   16 CL   LIG     1      22.769  23.663  21.681  1.00  0.00    -0.083 Cl
ENDBRANCH   8   9
TORSDOF 1
ENDMDL
MODEL 12
REMARK VINA RESULT:      -4.4      2.168      2.834
REMARK  1 active torsions:
REMARK  status: ('A' for Active; 'I' for Inactive)
REMARK    1  A    between atoms: C_8  and  C_9 
ROOT
HETATM    1 CL   LIG     1      26.704  23.271  22.708  1.00  0.00    -0.083 Cl
HETATM    2  C   LIG     1      26.341  23.550  21.008  1.00  0.00     0.046 A 
HETATM    3  C   LIG     1      27.038  24.554  20.328  1.00  0.00     0.025 A 
HETATM    4  C   LIG     1      26.778  24.804  18.980  1.00  0.00     0.003 A 
HETATM    5  C   LIG     1      25.818  24.049  18.302  1.00  0.00     0.025 A 
HETATM    6  C   LIG     1      25.113  23.041  18.967  1.00  0.00     0.046 A 
HETATM    7 CL   LIG     1      23.913  22.116  18.070  1.00  0.00    -0.083 Cl
HETATM    8  C   LIG     1      25.372  22.784  20.329  1.00  0.00     0.021 A 
ENDROOT
BRANCH   8   9
HETATM    9  C   LIG     1      24.629  21.719  21.041  1.00  0.00     0.021 A 
HETATM   10  C   LIG     1      25.134  20.402  21.074  1.00  0.00     0.046 A 
HETATM   11  C   LIG     1      24.427  19.402  21.749  1.00  0.00     0.025 A 
HETATM   12 CL   LIG     1      26.647  19.980  20.279  1.00  0.00    -0.083 Cl
HETATM   13  C   LIG     1      23.224  19.700  22.390  1.00  0.00     0.003 A 
HETATM   14  C   LIG     1      22.719  21.001  22.362  1.00  0.00     0.025 A 
HETATM   15  C   LIG     1      23.414  22.013  21.691  1.00  0.00     0.046 A 
HETATM   16 CL   LIG     1      22.739  23.640  21.682  1.00  0.00    -0.083 Cl
ENDBRANCH   8   9
TORSDOF 1
ENDMDL
MODEL 13
REMARK VINA RESULT:      -4.4      2.700      5.308
REMARK  1 active torsions:
REMARK  status: ('A' for Active; 'I' for Inactive)
REMARK    1  A    between atoms: C_8  and  C_9 
ROOT
HETATM    1 CL   LIG     1      22.002  23.151  21.270  1.00  0.00    -0.083 Cl
HETATM    2  C   LIG     1      23.012  21.944  20.481  1.00  0.00     0.046 A 
HETATM    3  C   LIG     1      22.799  21.673  19.125  1.00  0.00     0.025 A 
HETATM    4  C   LIG     1      23.580  20.722  18.466  1.00  0.00     0.003 A 
HETATM    5  C   LIG     1      24.580  20.036  19.158  1.00  0.00     0.025 A 
HETATM    6  C   LIG     1      24.805  20.296  20.514  1.00  0.00     0.046 A 
HETATM    7 CL   LIG     1      26.077  19.406  21.345  1.00  0.00    -0.083 Cl
HETATM    8  C   LIG     1      24.020  21.255  21.186  1.00  0.00     0.021 A 
ENDROOT
BRANCH   8   9
HETATM    9  C   LIG     1      24.250  21.535  22.621  1.00  0.00     0.021 A 
HETATM   10  C   LIG     1      25.190  22.513  23.011  1.00  0.00     0.046 A 
HETATM   11  C   LIG     1      25.402  22.772  24.369  1.00  0.00     0.025 A 
HETATM   12 CL   LIG     1      26.111  23.425  21.821  1.00  0.00    -0.083 Cl
HETATM   13  C   LIG     1      24.690  22.068  25.341  1.00  0.00     0.003 A 
HETATM   14  C   LIG     1      23.759  21.099  24.962  1.00  0.00     0.025 A 
HETATM   15  C   LIG     1      23.534  20.828  23.607  1.00  0.00     0.046 A 
HETATM   16 CL   LIG     1      22.350  19.598  23.176  1.00  0.00    -0.083 Cl
ENDBRANCH   8   9
TORSDOF 1
ENDMDL
MODEL 14
REMARK VINA RESULT:      -4.4      0.192      4.810
REMARK  1 active torsions:
REMARK  status: ('A' for Active; 'I' for Inactive)
REMARK    1  A    between atoms: C_8  and  C_9 
ROOT
HETATM    1 CL   LIG     1      27.134  21.641  17.981  1.00  0.00    -0.083 Cl
HETATM    2  C   LIG     1      25.481  21.733  18.582  1.00  0.00     0.046 A 
HETATM    3  C   LIG     1      24.468  21.092  17.861  1.00  0.00     0.025 A 
HETATM    4  C   LIG     1      23.146  21.143  18.306  1.00  0.00     0.003 A 
HETATM    5  C   LIG     1      22.829  21.835  19.477  1.00  0.00     0.025 A 
HETATM    6  C   LIG     1      23.830  22.480  20.209  1.00  0.00     0.046 A 
HETATM    7 CL   LIG     1      23.382  23.340  21.679  1.00  0.00    -0.083 Cl
HETATM    8  C   LIG     1      25.168  22.433  19.765  1.00  0.00     0.021 A 
ENDROOT
BRANCH   8   9
HETATM    9  C   LIG     1      26.234  23.114  20.533  1.00  0.00     0.021 A 
HETATM   10  C   LIG     1      26.844  22.466  21.628  1.00  0.00     0.046 A 
HETATM   11  C   LIG     1      27.851  23.116  22.349  1.00  0.00     0.025 A 
HETATM   12 CL   LIG     1      26.368  20.843  22.115  1.00  0.00    -0.083 Cl
HETATM   13  C   LIG     1      28.255  24.404  21.992  1.00  0.00     0.003 A 
HETATM   14  C   LIG     1      27.654  25.050  20.910  1.00  0.00     0.025 A 
HETATM   15  C   LIG     1      26.646  24.414  20.178  1.00  0.00     0.046 A 
HETATM   16 CL   LIG     1      25.918  25.268  18.821  1.00  0.00    -0.083 Cl
ENDBRANCH   8   9
TORSDOF 1
ENDMDL
MODEL 15
REMARK VINA RESULT:      -4.4      2.675      3.882
REMARK  1 active torsions:
REMARK  status: ('A' for Active; 'I' for Inactive)
REMARK    1  A    between atoms: C_8  and  C_9 
ROOT
HETATM    1 CL   LIG     1      26.129  23.439  21.784  1.00  0.00    -0.083 Cl
HETATM    2  C   LIG     1      25.214  22.526  22.979  1.00  0.00     0.046 A 
HETATM    3  C   LIG     1      25.433  22.786  24.336  1.00  0.00     0.025 A 
HETATM    4  C   LIG     1      24.725  22.082  25.311  1.00  0.00     0.003 A 
HETATM    5  C   LIG     1      23.792  21.114  24.937  1.00  0.00     0.025 A 
HETATM    6  C   LIG     1      23.561  20.842  23.584  1.00  0.00     0.046 A 
HETATM    7 CL   LIG     1      22.375  19.611  23.160  1.00  0.00    -0.083 Cl
HETATM    8  C   LIG     1      24.273  21.549  22.594  1.00  0.00     0.021 A 
ENDROOT
BRANCH   8   9
HETATM    9  C   LIG     1      24.035  21.267  21.160  1.00  0.00     0.021 A 
HETATM   10  C   LIG     1      24.833  20.322  20.481  1.00  0.00     0.046 A 
HETATM   11  C   LIG     1      24.602  20.061  19.126  1.00  0.00     0.025 A 
HETATM   12 CL   LIG     1      26.124  19.453  21.303  1.00  0.00    -0.083 Cl
HETATM   13  C   LIG     1      23.587  20.731  18.442  1.00  0.00     0.003 A 
HETATM   14  C   LIG     1      22.794  21.667  19.108  1.00  0.00     0.025 A 
HETATM   15  C   LIG     1      23.011  21.940  20.463  1.00  0.00     0.046 A 
HETATM   16 CL   LIG     1      21.986  23.129  21.262  1.00  0.00    -0.083 Cl
ENDBRANCH   8   9
TORSDOF 1
ENDMDL
MODEL 16
REMARK VINA RESULT:      -4.4      2.167      3.537
REMARK  1 active torsions:
REMARK  status: ('A' for Active; 'I' for Inactive)
REMARK    1  A    between atoms: C_8  and  C_9 
ROOT
HETATM    1 CL   LIG     1      26.693  23.261  22.740  1.00  0.00    -0.083 Cl
HETATM    2  C   LIG     1      26.343  23.540  21.037  1.00  0.00     0.046 A 
HETATM    3  C   LIG     1      27.043  24.547  20.364  1.00  0.00     0.025 A 
HETATM    4  C   LIG     1      26.792  24.797  19.013  1.00  0.00     0.003 A 
HETATM    5  C   LIG     1      25.841  24.040  18.327  1.00  0.00     0.025 A 
HETATM    6  C   LIG     1      25.133  23.029  18.986  1.00  0.00     0.046 A 
HETATM    7 CL   LIG     1      23.942  22.102  18.079  1.00  0.00    -0.083 Cl
HETATM    8  C   LIG     1      25.381  22.772  20.350  1.00  0.00     0.021 A 
ENDROOT
BRANCH   8   9
HETATM    9  C   LIG     1      24.636  21.705  21.055  1.00  0.00     0.021 A 
HETATM   10  C   LIG     1      23.415  21.999  21.698  1.00  0.00     0.046 A 
HETATM   11  C   LIG     1      22.717  20.985  22.363  1.00  0.00     0.025 A 
HETATM   12 CL   LIG     1      22.740  23.624  21.686  1.00  0.00    -0.083 Cl
HETATM   13  C   LIG     1      23.221  19.684  22.393  1.00  0.00     0.003 A 
HETATM   14  C   LIG     1      24.429  19.387  21.759  1.00  0.00     0.025 A 
HETATM   15  C   LIG     1      25.139  20.390  21.089  1.00  0.00     0.046 A 
HETATM   16 CL   LIG     1      26.658  19.968  20.303  1.00  0.00    -0.083 Cl
ENDBRANCH   8   9
TORSDOF 1
ENDMDL
MODEL 17
REMARK VINA RESULT:      -4.4      2.176      3.830
REMARK  1 active torsions:
REMARK  status: ('A' for Active; 'I' for Inactive)
REMARK    1  A    between atoms: C_8  and  C_9 
ROOT
HETATM    1 CL   LIG     1      23.937  22.063  18.070  1.00  0.00    -0.083 Cl
HETATM    2  C   LIG     1      25.113  23.003  18.982  1.00  0.00     0.046 A 
HETATM    3  C   LIG     1      25.816  24.019  18.325  1.00  0.00     0.025 A 
HETATM    4  C   LIG     1      26.756  24.785  19.016  1.00  0.00     0.003 A 
HETATM    5  C   LIG     1      27.000  24.541  20.369  1.00  0.00     0.025 A 
HETATM    6  C   LIG     1      26.305  23.529  21.040  1.00  0.00     0.046 A 
HETATM    7 CL   LIG     1      26.647  23.257  22.746  1.00  0.00    -0.083 Cl
HETATM    8  C   LIG     1      25.354  22.751  20.348  1.00  0.00     0.021 A 
ENDROOT
BRANCH   8   9
HETATM    9  C   LIG     1      24.616  21.678  21.050  1.00  0.00     0.021 A 
HETATM   10  C   LIG     1      23.390  21.960  21.689  1.00  0.00     0.046 A 
HETATM   11  C   LIG     1      22.698  20.941  22.350  1.00  0.00     0.025 A 
HETATM   12 CL   LIG     1      22.701  23.580  21.675  1.00  0.00    -0.083 Cl
HETATM   13  C   LIG     1      23.213  19.644  22.382  1.00  0.00     0.003 A 
HETATM   14  C   LIG     1      24.426  19.358  21.752  1.00  0.00     0.025 A 
HETATM   15  C   LIG     1      25.131  20.367  21.086  1.00  0.00     0.046 A 
HETATM   16 CL   LIG     1      26.656  19.959  20.306  1.00  0.00    -0.083 Cl
ENDBRANCH   8   9
TORSDOF 1
ENDMDL
MODEL 18
REMARK VINA RESULT:      -4.4      2.201      4.153
REMARK  1 active torsions:
REMARK  status: ('A' for Active; 'I' for Inactive)
REMARK    1  A    between atoms: C_8  and  C_9 
ROOT
HETATM    1 CL   LIG     1      26.664  19.924  20.436  1.00  0.00    -0.083 Cl
HETATM    2  C   LIG     1      25.121  20.331  21.181  1.00  0.00     0.046 A 
HETATM    3  C   LIG     1      24.420  19.331  21.864  1.00  0.00     0.025 A 
HETATM    4  C   LIG     1      23.194  19.616  22.467  1.00  0.00     0.003 A 
HETATM    5  C   LIG     1      22.661  20.904  22.391  1.00  0.00     0.025 A 
HETATM    6  C   LIG     1      23.349  21.915  21.712  1.00  0.00     0.046 A 
HETATM    7 CL   LIG     1      22.636  23.524  21.643  1.00  0.00    -0.083 Cl
HETATM    8  C   LIG     1      24.588  21.633  21.101  1.00  0.00     0.021 A 
ENDROOT
BRANCH   8   9
HETATM    9  C   LIG     1      25.322  22.697  20.380  1.00  0.00     0.021 A 
HETATM   10  C   LIG     1      25.073  22.928  19.010  1.00  0.00     0.046 A 
HETATM   11  C   LIG     1      25.771  23.935  18.335  1.00  0.00     0.025 A 
HETATM   12 CL   LIG     1      23.893  21.973  18.120  1.00  0.00    -0.083 Cl
HETATM   13  C   LIG     1      26.714  24.712  19.009  1.00  0.00     0.003 A 
HETATM   14  C   LIG     1      26.965  24.489  20.364  1.00  0.00     0.025 A 
HETATM   15  C   LIG     1      26.275  23.486  21.054  1.00  0.00     0.046 A 
HETATM   16 CL   LIG     1      26.626  23.240  22.762  1.00  0.00    -0.083 Cl
ENDBRANCH   8   9
TORSDOF 1
ENDMDL
MODEL 19
REMARK VINA RESULT:      -4.3      0.288      3.265
REMARK  1 active torsions:
REMARK  status: ('A' for Active; 'I' for Inactive)
REMARK    1  A    between atoms: C_8  and  C_9 
ROOT
HETATM    1 CL   LIG     1      25.807  25.175  18.379  1.00  0.00    -0.083 Cl
HETATM    2  C   LIG     1      26.514  24.533  19.858  1.00  0.00     0.046 A 
HETATM    3  C   LIG     1      27.477  25.295  20.528  1.00  0.00     0.025 A 
HETATM    4  C   LIG     1      28.059  24.819  21.703  1.00  0.00     0.003 A 
HETATM    5  C   LIG     1      27.681  23.577  22.218  1.00  0.00     0.025 A 
HETATM    6  C   LIG     1      26.720  22.804  21.560  1.00  0.00     0.046 A 
HETATM    7 CL   LIG     1      26.275  21.244  22.247  1.00  0.00    -0.083 Cl
HETATM    8  C   LIG     1      26.127  23.279  20.372  1.00  0.00     0.021 A 
ENDROOT
BRANCH   8   9
HETATM    9  C   LIG     1      25.110  22.466  19.669  1.00  0.00     0.021 A 
HETATM   10  C   LIG     1      23.775  22.449  20.127  1.00  0.00     0.046 A 
HETATM   11  C   LIG     1      22.819  21.679  19.457  1.00  0.00     0.025 A 
HETATM   12 CL   LIG     1      23.276  23.383  21.532  1.00  0.00    -0.083 Cl
HETATM   13  C   LIG     1      23.178  20.926  18.338  1.00  0.00     0.003 A 
HETATM   14  C   LIG     1      24.497  20.938  17.880  1.00  0.00     0.025 A 
HETATM   15  C   LIG     1      25.465  21.703  18.539  1.00  0.00     0.046 A 
HETATM   16 CL   LIG     1      27.116  21.688  17.925  1.00  0.00    -0.083 Cl
ENDBRANCH   8   9
TORSDOF 1
ENDMDL
MODEL 20
REMARK VINA RESULT:      -4.3      2.087      3.253
REMARK  1 active torsions:
REMARK  status: ('A' for Active; 'I' for Inactive)
REMARK    1  A    between atoms: C_8  and  C_9 
ROOT
HETATM    1 CL   LIG     1      26.604  19.993  19.355  1.00  0.00    -0.083 Cl
HETATM    2  C   LIG     1      27.004  21.586  18.722  1.00  0.00     0.046 A 
HETATM    3  C   LIG     1      28.013  21.693  17.759  1.00  0.00     0.025 A 
HETATM    4  C   LIG     1      28.358  22.940  17.235  1.00  0.00     0.003 A 
HETATM    5  C   LIG     1      27.695  24.089  17.670  1.00  0.00     0.025 A 
HETATM    6  C   LIG     1      26.683  23.999  18.632  1.00  0.00     0.046 A 
HETATM    7 CL   LIG     1      25.876  25.476  19.150  1.00  0.00    -0.083 Cl
HETATM    8  C   LIG     1      26.330  22.743  19.166  1.00  0.00     0.021 A 
ENDROOT
BRANCH   8   9
HETATM    9  C   LIG     1      25.262  22.639  20.185  1.00  0.00     0.021 A 
HETATM   10  C   LIG     1      23.938  22.344  19.798  1.00  0.00     0.046 A 
HETATM   11  C   LIG     1      22.934  22.247  20.767  1.00  0.00     0.025 A 
HETATM   12 CL   LIG     1      23.512  22.091  18.109  1.00  0.00    -0.083 Cl
HETATM   13  C   LIG     1      23.235  22.441  22.116  1.00  0.00     0.003 A 
HETATM   14  C   LIG     1      24.543  22.733  22.506  1.00  0.00     0.025 A 
HETATM   15  C   LIG     1      25.559  22.833  21.549  1.00  0.00     0.046 A 
HETATM   16 CL   LIG     1      27.194  23.204  22.087  1.00  0.00    -0.083 Cl
ENDBRANCH   8   9
TORSDOF 1
ENDMDL
