REMARK  5 active torsions:
REMARK  status: ('A' for Active; 'I' for Inactive)
REMARK    1  A    between atoms: N_2  and  N_3 
REMARK       I    between atoms: N_3  and  C_4 
REMARK    2  A    between atoms: C_4  and  C_5 
REMARK    3  A    between atoms: C_5  and  C_6 
REMARK    4  A    between atoms: C_6  and  C_7 
REMARK    5  A    between atoms: C_7  and  O_8 
ROOT
HETATM    1  N   LIG     1      -1.391  -0.927   0.069  1.00  0.00    -0.290 N 
HETATM    2  C   LIG     1      -0.363  -1.333  -0.842  1.00  0.00     0.232 C 
HETATM    3  O   LIG     1      -0.648  -2.119  -1.785  1.00  0.00    -0.272 OA
HETATM    4  H   LIG     1      -2.349  -1.337  -0.037  1.00  0.00     0.183 HD
ENDROOT
BRANCH   2   5
HETATM    5  C   LIG     1       1.040  -0.813  -0.718  1.00  0.00     0.114 C 
BRANCH   5   6
HETATM    6  C   LIG     1       1.183   0.532  -1.434  1.00  0.00     0.119 C 
BRANCH   6   7
HETATM    7  C   LIG     1       2.579   1.055  -1.305  1.00  0.00     0.139 C 
HETATM    8  O   LIG     1       2.795   2.137  -0.696  1.00  0.00    -0.650 OA
BRANCH   7   9
HETATM    9  O   LIG     1       3.640   0.350  -1.866  1.00  0.00    -0.776 OA
HETATM   10  H   LIG     1       4.590   0.693  -1.788  1.00  0.00     0.167 HD
ENDBRANCH   7   9
ENDBRANCH   6   7
ENDBRANCH   5   6
ENDBRANCH   2   5
BRANCH   1  11
HETATM   11  N   LIG     1      -1.128   0.002   1.095  1.00  0.00    -0.237 NA
HETATM   12  C   LIG     1      -2.038   1.142   0.933  1.00  0.00     0.135 C 
HETATM   13  C   LIG     1      -1.356  -0.657   2.385  1.00  0.00     0.135 C 
ENDBRANCH   1  11
TORSDOF 5
