MODEL 1
REMARK VINA RESULT:      -5.5      0.000      0.000
REMARK  5 active torsions:
REMARK  status: ('A' for Active; 'I' for Inactive)
REMARK    1  A    between atoms: N_2  and  N_3 
REMARK       I    between atoms: N_3  and  C_4 
REMARK    2  A    between atoms: C_4  and  C_5 
REMARK    3  A    between atoms: C_5  and  C_6 
REMARK    4  A    between atoms: C_6  and  C_7 
REMARK    5  A    between atoms: C_7  and  O_8 
ROOT
HETATM    1  N   LIG     1      16.807  37.041  25.013  1.00  0.00    -0.290 N 
HETATM    2  C   LIG     1      16.451  37.282  23.647  1.00  0.00     0.232 C 
HETATM    3  O   LIG     1      15.529  38.101  23.384  1.00  0.00    -0.272 OA
HETATM    4  H   LIG     1      16.254  37.510  25.769  1.00  0.00     0.183 HD
ENDROOT
BRANCH   2   5
HETATM    5  C   LIG     1      17.178  36.608  22.520  1.00  0.00     0.114 C 
BRANCH   5   6
HETATM    6  C   LIG     1      16.526  35.265  22.183  1.00  0.00     0.119 C 
BRANCH   6   7
HETATM    7  C   LIG     1      15.651  35.389  20.976  1.00  0.00     0.139 C 
HETATM    8  O   LIG     1      16.126  35.185  19.827  1.00  0.00    -0.650 OA
BRANCH   7   9
HETATM    9  O   LIG     1      14.311  35.737  21.121  1.00  0.00    -0.776 OA
HETATM   10  H   LIG     1      14.025  36.709  21.120  1.00  0.00     0.167 HD
ENDBRANCH   7   9
ENDBRANCH   6   7
ENDBRANCH   5   6
ENDBRANCH   2   5
BRANCH   1  11
HETATM   11  N   LIG     1      17.876  36.185  25.345  1.00  0.00    -0.237 NA
HETATM   12  C   LIG     1      18.657  36.813  26.418  1.00  0.00     0.135 C 
HETATM   13  C   LIG     1      17.321  34.905  25.797  1.00  0.00     0.135 C 
ENDBRANCH   1  11
TORSDOF 5
ENDMDL
MODEL 2
REMARK VINA RESULT:      -5.3      3.167      4.202
REMARK  5 active torsions:
REMARK  status: ('A' for Active; 'I' for Inactive)
REMARK    1  A    between atoms: N_2  and  N_3 
REMARK       I    between atoms: N_3  and  C_4 
REMARK    2  A    between atoms: C_4  and  C_5 
REMARK    3  A    between atoms: C_5  and  C_6 
REMARK    4  A    between atoms: C_6  and  C_7 
REMARK    5  A    between atoms: C_7  and  O_8 
ROOT
HETATM    1  N   LIG     1      16.205  37.165  22.146  1.00  0.00    -0.290 N 
HETATM    2  C   LIG     1      16.816  38.425  22.445  1.00  0.00     0.232 C 
HETATM    3  O   LIG     1      16.104  39.369  22.880  1.00  0.00    -0.272 OA
HETATM    4  H   LIG     1      15.166  37.073  22.244  1.00  0.00     0.183 HD
ENDROOT
BRANCH   2   5
HETATM    5  C   LIG     1      18.294  38.633  22.285  1.00  0.00     0.114 C 
BRANCH   5   6
HETATM    6  C   LIG     1      18.588  39.502  21.060  1.00  0.00     0.119 C 
BRANCH   6   7
HETATM    7  C   LIG     1      19.437  38.760  20.076  1.00  0.00     0.139 C 
HETATM    8  O   LIG     1      20.367  39.356  19.467  1.00  0.00    -0.650 OA
BRANCH   7   9
HETATM    9  O   LIG     1      19.194  37.413  19.824  1.00  0.00    -0.776 OA
HETATM   10  H   LIG     1      19.943  36.796  19.534  1.00  0.00     0.167 HD
ENDBRANCH   7   9
ENDBRANCH   6   7
ENDBRANCH   5   6
ENDBRANCH   2   5
BRANCH   1  11
HETATM   11  N   LIG     1      16.976  36.065  21.722  1.00  0.00    -0.237 NA
HETATM   12  C   LIG     1      17.043  35.094  22.820  1.00  0.00     0.135 C 
HETATM   13  C   LIG     1      16.326  35.469  20.550  1.00  0.00     0.135 C 
ENDBRANCH   1  11
TORSDOF 5
ENDMDL
MODEL 3
REMARK VINA RESULT:      -5.3      3.387      4.476
REMARK  5 active torsions:
REMARK  status: ('A' for Active; 'I' for Inactive)
REMARK    1  A    between atoms: N_2  and  N_3 
REMARK       I    between atoms: N_3  and  C_4 
REMARK    2  A    between atoms: C_4  and  C_5 
REMARK    3  A    between atoms: C_5  and  C_6 
REMARK    4  A    between atoms: C_6  and  C_7 
REMARK    5  A    between atoms: C_7  and  O_8 
ROOT
HETATM    1  N   LIG     1      16.616  36.702  21.704  1.00  0.00    -0.290 N 
HETATM    2  C   LIG     1      17.304  36.232  20.538  1.00  0.00     0.232 C 
HETATM    3  O   LIG     1      16.693  35.501  19.713  1.00  0.00    -0.272 OA
HETATM    4  H   LIG     1      15.634  36.382  21.872  1.00  0.00     0.183 HD
ENDROOT
BRANCH   2   5
HETATM    5  C   LIG     1      18.727  36.621  20.262  1.00  0.00     0.114 C 
BRANCH   5   6
HETATM    6  C   LIG     1      18.784  37.839  19.337  1.00  0.00     0.119 C 
BRANCH   6   7
HETATM    7  C   LIG     1      19.673  38.898  19.909  1.00  0.00     0.139 C 
HETATM    8  O   LIG     1      20.506  39.491  19.172  1.00  0.00    -0.650 OA
BRANCH   7   9
HETATM    9  O   LIG     1      19.586  39.223  21.260  1.00  0.00    -0.776 OA
HETATM   10  H   LIG     1      19.683  40.183  21.570  1.00  0.00     0.167 HD
ENDBRANCH   7   9
ENDBRANCH   6   7
ENDBRANCH   5   6
ENDBRANCH   2   5
BRANCH   1  11
HETATM   11  N   LIG     1      17.243  37.575  22.615  1.00  0.00    -0.237 NA
HETATM   12  C   LIG     1      16.555  38.870  22.564  1.00  0.00     0.135 C 
HETATM   13  C   LIG     1      17.142  36.992  23.957  1.00  0.00     0.135 C 
ENDBRANCH   1  11
TORSDOF 5
ENDMDL
MODEL 4
REMARK VINA RESULT:      -5.3      2.935      4.636
REMARK  5 active torsions:
REMARK  status: ('A' for Active; 'I' for Inactive)
REMARK    1  A    between atoms: N_2  and  N_3 
REMARK       I    between atoms: N_3  and  C_4 
REMARK    2  A    between atoms: C_4  and  C_5 
REMARK    3  A    between atoms: C_5  and  C_6 
REMARK    4  A    between atoms: C_6  and  C_7 
REMARK    5  A    between atoms: C_7  and  O_8 
ROOT
HETATM    1  N   LIG     1      17.692  36.511  20.711  1.00  0.00    -0.290 N 
HETATM    2  C   LIG     1      18.126  37.841  21.020  1.00  0.00     0.232 C 
HETATM    3  O   LIG     1      19.111  38.328  20.405  1.00  0.00    -0.272 OA
HETATM    4  H   LIG     1      18.240  35.951  20.016  1.00  0.00     0.183 HD
ENDROOT
BRANCH   2   5
HETATM    5  C   LIG     1      17.407  38.680  22.037  1.00  0.00     0.114 C 
BRANCH   5   6
HETATM    6  C   LIG     1      18.099  38.587  23.400  1.00  0.00     0.119 C 
BRANCH   6   7
HETATM    7  C   LIG     1      17.109  38.265  24.475  1.00  0.00     0.139 C 
HETATM    8  O   LIG     1      15.921  37.972  24.173  1.00  0.00    -0.650 OA
BRANCH   7   9
HETATM    9  O   LIG     1      17.499  38.297  25.811  1.00  0.00    -0.776 OA
HETATM   10  H   LIG     1      16.905  37.909  26.534  1.00  0.00     0.167 HD
ENDBRANCH   7   9
ENDBRANCH   6   7
ENDBRANCH   5   6
ENDBRANCH   2   5
BRANCH   1  11
HETATM   11  N   LIG     1      16.554  35.956  21.329  1.00  0.00    -0.237 NA
HETATM   12  C   LIG     1      15.801  35.200  20.321  1.00  0.00     0.135 C 
HETATM   13  C   LIG     1      17.000  35.069  22.408  1.00  0.00     0.135 C 
ENDBRANCH   1  11
TORSDOF 5
ENDMDL
MODEL 5
REMARK VINA RESULT:      -5.3      2.682      3.227
REMARK  5 active torsions:
REMARK  status: ('A' for Active; 'I' for Inactive)
REMARK    1  A    between atoms: N_2  and  N_3 
REMARK       I    between atoms: N_3  and  C_4 
REMARK    2  A    between atoms: C_4  and  C_5 
REMARK    3  A    between atoms: C_5  and  C_6 
REMARK    4  A    between atoms: C_6  and  C_7 
REMARK    5  A    between atoms: C_7  and  O_8 
ROOT
HETATM    1  N   LIG     1      16.594  37.693  24.390  1.00  0.00    -0.290 N 
HETATM    2  C   LIG     1      16.512  38.231  23.065  1.00  0.00     0.232 C 
HETATM    3  O   LIG     1      15.610  39.069  22.793  1.00  0.00    -0.272 OA
HETATM    4  H   LIG     1      15.867  37.968  25.092  1.00  0.00     0.183 HD
ENDROOT
BRANCH   2   5
HETATM    5  C   LIG     1      17.499  37.844  22.003  1.00  0.00     0.114 C 
BRANCH   5   6
HETATM    6  C   LIG     1      18.354  39.046  21.596  1.00  0.00     0.119 C 
BRANCH   6   7
HETATM    7  C   LIG     1      19.144  38.741  20.362  1.00  0.00     0.139 C 
HETATM    8  O   LIG     1      18.960  37.658  19.745  1.00  0.00    -0.650 OA
BRANCH   7   9
HETATM    9  O   LIG     1      20.090  39.652  19.899  1.00  0.00    -0.776 OA
HETATM   10  H   LIG     1      20.865  39.347  19.322  1.00  0.00     0.167 HD
ENDBRANCH   7   9
ENDBRANCH   6   7
ENDBRANCH   5   6
ENDBRANCH   2   5
BRANCH   1  11
HETATM   11  N   LIG     1      17.627  36.806  24.752  1.00  0.00    -0.237 NA
HETATM   12  C   LIG     1      18.010  37.081  26.142  1.00  0.00     0.135 C 
HETATM   13  C   LIG     1      17.126  35.434  24.619  1.00  0.00     0.135 C 
ENDBRANCH   1  11
TORSDOF 5
ENDMDL
MODEL 6
REMARK VINA RESULT:      -5.1      3.003      4.959
REMARK  5 active torsions:
REMARK  status: ('A' for Active; 'I' for Inactive)
REMARK    1  A    between atoms: N_2  and  N_3 
REMARK       I    between atoms: N_3  and  C_4 
REMARK    2  A    between atoms: C_4  and  C_5 
REMARK    3  A    between atoms: C_5  and  C_6 
REMARK    4  A    between atoms: C_6  and  C_7 
REMARK    5  A    between atoms: C_7  and  O_8 
ROOT
HETATM    1  N   LIG     1      17.028  38.177  21.931  1.00  0.00    -0.290 N 
HETATM    2  C   LIG     1      16.810  38.125  23.346  1.00  0.00     0.232 C 
HETATM    3  O   LIG     1      15.630  38.123  23.789  1.00  0.00    -0.272 OA
HETATM    4  H   LIG     1      16.199  38.268  21.296  1.00  0.00     0.183 HD
ENDROOT
BRANCH   2   5
HETATM    5  C   LIG     1      17.958  38.036  24.309  1.00  0.00     0.114 C 
BRANCH   5   6
HETATM    6  C   LIG     1      17.448  37.876  25.743  1.00  0.00     0.119 C 
BRANCH   6   7
HETATM    7  C   LIG     1      17.883  36.565  26.317  1.00  0.00     0.139 C 
HETATM    8  O   LIG     1      18.932  36.496  27.013  1.00  0.00    -0.650 OA
BRANCH   7   9
HETATM    9  O   LIG     1      17.133  35.417  26.076  1.00  0.00    -0.776 OA
HETATM   10  H   LIG     1      16.136  35.402  26.252  1.00  0.00     0.167 HD
ENDBRANCH   7   9
ENDBRANCH   6   7
ENDBRANCH   5   6
ENDBRANCH   2   5
BRANCH   1  11
HETATM   11  N   LIG     1      18.328  38.113  21.393  1.00  0.00    -0.237 NA
HETATM   12  C   LIG     1      18.341  37.101  20.330  1.00  0.00     0.135 C 
HETATM   13  C   LIG     1      18.669  39.432  20.849  1.00  0.00     0.135 C 
ENDBRANCH   1  11
TORSDOF 5
ENDMDL
MODEL 7
REMARK VINA RESULT:      -4.9      7.420      9.187
REMARK  5 active torsions:
REMARK  status: ('A' for Active; 'I' for Inactive)
REMARK    1  A    between atoms: N_2  and  N_3 
REMARK       I    between atoms: N_3  and  C_4 
REMARK    2  A    between atoms: C_4  and  C_5 
REMARK    3  A    between atoms: C_5  and  C_6 
REMARK    4  A    between atoms: C_6  and  C_7 
REMARK    5  A    between atoms: C_7  and  O_8 
ROOT
HETATM    1  N   LIG     1      13.903  31.958  18.031  1.00  0.00    -0.290 N 
HETATM    2  C   LIG     1      13.585  31.298  16.800  1.00  0.00     0.232 C 
HETATM    3  O   LIG     1      12.433  30.811  16.640  1.00  0.00    -0.272 OA
HETATM    4  H   LIG     1      13.186  31.974  18.794  1.00  0.00     0.183 HD
ENDROOT
BRANCH   2   5
HETATM    5  C   LIG     1      14.583  31.206  15.682  1.00  0.00     0.114 C 
BRANCH   5   6
HETATM    6  C   LIG     1      14.169  30.131  14.675  1.00  0.00     0.119 C 
BRANCH   6   7
HETATM    7  C   LIG     1      15.205  29.979  13.607  1.00  0.00     0.139 C 
HETATM    8  O   LIG     1      15.944  30.953  13.299  1.00  0.00    -0.650 OA
BRANCH   7   9
HETATM    9  O   LIG     1      15.348  28.763  12.945  1.00  0.00    -0.776 OA
HETATM   10  H   LIG     1      15.324  27.888  13.456  1.00  0.00     0.167 HD
ENDBRANCH   7   9
ENDBRANCH   6   7
ENDBRANCH   5   6
ENDBRANCH   2   5
BRANCH   1  11
HETATM   11  N   LIG     1      15.156  32.574  18.223  1.00  0.00    -0.237 NA
HETATM   12  C   LIG     1      15.077  33.951  17.721  1.00  0.00     0.135 C 
HETATM   13  C   LIG     1      15.459  32.568  19.657  1.00  0.00     0.135 C 
ENDBRANCH   1  11
TORSDOF 5
ENDMDL
MODEL 8
REMARK VINA RESULT:      -4.9      8.267     10.340
REMARK  5 active torsions:
REMARK  status: ('A' for Active; 'I' for Inactive)
REMARK    1  A    between atoms: N_2  and  N_3 
REMARK       I    between atoms: N_3  and  C_4 
REMARK    2  A    between atoms: C_4  and  C_5 
REMARK    3  A    between atoms: C_5  and  C_6 
REMARK    4  A    between atoms: C_6  and  C_7 
REMARK    5  A    between atoms: C_7  and  O_8 
ROOT
HETATM    1  N   LIG     1      15.296  30.671  13.499  1.00  0.00    -0.290 N 
HETATM    2  C   LIG     1      15.908  31.855  14.024  1.00  0.00     0.232 C 
HETATM    3  O   LIG     1      16.169  32.813  13.248  1.00  0.00    -0.272 OA
HETATM    4  H   LIG     1      15.127  30.607  12.467  1.00  0.00     0.183 HD
ENDROOT
BRANCH   2   5
HETATM    5  C   LIG     1      16.214  31.992  15.488  1.00  0.00     0.114 C 
BRANCH   5   6
HETATM    6  C   LIG     1      15.064  32.691  16.216  1.00  0.00     0.119 C 
BRANCH   6   7
HETATM    7  C   LIG     1      15.518  33.994  16.796  1.00  0.00     0.139 C 
HETATM    8  O   LIG     1      16.188  34.798  16.094  1.00  0.00    -0.650 OA
BRANCH   7   9
HETATM    9  O   LIG     1      15.208  34.314  18.115  1.00  0.00    -0.776 OA
HETATM   10  H   LIG     1      14.952  33.592  18.777  1.00  0.00     0.167 HD
ENDBRANCH   7   9
ENDBRANCH   6   7
ENDBRANCH   5   6
ENDBRANCH   2   5
BRANCH   1  11
HETATM   11  N   LIG     1      14.928  29.606  14.344  1.00  0.00    -0.237 NA
HETATM   12  C   LIG     1      13.472  29.641  14.527  1.00  0.00     0.135 C 
HETATM   13  C   LIG     1      15.336  28.349  13.708  1.00  0.00     0.135 C 
ENDBRANCH   1  11
TORSDOF 5
ENDMDL
MODEL 9
REMARK VINA RESULT:      -4.7      3.389      4.437
REMARK  5 active torsions:
REMARK  status: ('A' for Active; 'I' for Inactive)
REMARK    1  A    between atoms: N_2  and  N_3 
REMARK       I    between atoms: N_3  and  C_4 
REMARK    2  A    between atoms: C_4  and  C_5 
REMARK    3  A    between atoms: C_5  and  C_6 
REMARK    4  A    between atoms: C_6  and  C_7 
REMARK    5  A    between atoms: C_7  and  O_8 
ROOT
HETATM    1  N   LIG     1      18.440  38.713  20.582  1.00  0.00    -0.290 N 
HETATM    2  C   LIG     1      17.683  37.742  21.313  1.00  0.00     0.232 C 
HETATM    3  O   LIG     1      17.035  38.103  22.332  1.00  0.00    -0.272 OA
HETATM    4  H   LIG     1      18.483  39.695  20.944  1.00  0.00     0.183 HD
ENDROOT
BRANCH   2   5
HETATM    5  C   LIG     1      17.615  36.309  20.869  1.00  0.00     0.114 C 
BRANCH   5   6
HETATM    6  C   LIG     1      16.770  35.482  21.840  1.00  0.00     0.119 C 
BRANCH   6   7
HETATM    7  C   LIG     1      15.565  34.924  21.151  1.00  0.00     0.139 C 
HETATM    8  O   LIG     1      15.660  33.869  20.467  1.00  0.00    -0.650 OA
BRANCH   7   9
HETATM    9  O   LIG     1      14.339  35.574  21.258  1.00  0.00    -0.776 OA
HETATM   10  H   LIG     1      13.526  35.092  21.622  1.00  0.00     0.167 HD
ENDBRANCH   7   9
ENDBRANCH   6   7
ENDBRANCH   5   6
ENDBRANCH   2   5
BRANCH   1  11
HETATM   11  N   LIG     1      19.123  38.364  19.400  1.00  0.00    -0.237 NA
HETATM   12  C   LIG     1      18.654  39.237  18.318  1.00  0.00     0.135 C 
HETATM   13  C   LIG     1      20.560  38.550  19.624  1.00  0.00     0.135 C 
ENDBRANCH   1  11
TORSDOF 5
ENDMDL
MODEL 10
REMARK VINA RESULT:      -4.7      7.775      9.399
REMARK  5 active torsions:
REMARK  status: ('A' for Active; 'I' for Inactive)
REMARK    1  A    between atoms: N_2  and  N_3 
REMARK       I    between atoms: N_3  and  C_4 
REMARK    2  A    between atoms: C_4  and  C_5 
REMARK    3  A    between atoms: C_5  and  C_6 
REMARK    4  A    between atoms: C_6  and  C_7 
REMARK    5  A    between atoms: C_7  and  O_8 
ROOT
HETATM    1  N   LIG     1      13.846  31.859  16.799  1.00  0.00    -0.290 N 
HETATM    2  C   LIG     1      13.870  30.894  15.741  1.00  0.00     0.232 C 
HETATM    3  O   LIG     1      12.784  30.429  15.303  1.00  0.00    -0.272 OA
HETATM    4  H   LIG     1      12.924  32.118  17.224  1.00  0.00     0.183 HD
ENDROOT
BRANCH   2   5
HETATM    5  C   LIG     1      15.163  30.452  15.118  1.00  0.00     0.114 C 
BRANCH   5   6
HETATM    6  C   LIG     1      15.337  31.077  13.732  1.00  0.00     0.119 C 
BRANCH   6   7
HETATM    7  C   LIG     1      16.338  32.187  13.773  1.00  0.00     0.139 C 
HETATM    8  O   LIG     1      17.241  32.192  14.653  1.00  0.00    -0.650 OA
BRANCH   7   9
HETATM    9  O   LIG     1      16.268  33.222  12.844  1.00  0.00    -0.776 OA
HETATM   10  H   LIG     1      15.632  33.999  12.980  1.00  0.00     0.167 HD
ENDBRANCH   7   9
ENDBRANCH   6   7
ENDBRANCH   5   6
ENDBRANCH   2   5
BRANCH   1  11
HETATM   11  N   LIG     1      15.033  32.452  17.270  1.00  0.00    -0.237 NA
HETATM   12  C   LIG     1      15.027  33.870  16.890  1.00  0.00     0.135 C 
HETATM   13  C   LIG     1      15.072  32.313  18.729  1.00  0.00     0.135 C 
ENDBRANCH   1  11
TORSDOF 5
ENDMDL
MODEL 11
REMARK VINA RESULT:      -4.7      8.149      9.470
REMARK  5 active torsions:
REMARK  status: ('A' for Active; 'I' for Inactive)
REMARK    1  A    between atoms: N_2  and  N_3 
REMARK       I    between atoms: N_3  and  C_4 
REMARK    2  A    between atoms: C_4  and  C_5 
REMARK    3  A    between atoms: C_5  and  C_6 
REMARK    4  A    between atoms: C_6  and  C_7 
REMARK    5  A    between atoms: C_7  and  O_8 
ROOT
HETATM    1  N   LIG     1      15.407  32.139  16.011  1.00  0.00    -0.290 N 
HETATM    2  C   LIG     1      16.403  32.068  14.984  1.00  0.00     0.232 C 
HETATM    3  O   LIG     1      16.171  31.397  13.943  1.00  0.00    -0.272 OA
HETATM    4  H   LIG     1      14.526  31.584  15.897  1.00  0.00     0.183 HD
ENDROOT
BRANCH   2   5
HETATM    5  C   LIG     1      17.704  32.807  15.106  1.00  0.00     0.114 C 
BRANCH   5   6
HETATM    6  C   LIG     1      17.733  34.011  14.161  1.00  0.00     0.119 C 
BRANCH   6   7
HETATM    7  C   LIG     1      18.627  33.745  12.991  1.00  0.00     0.139 C 
HETATM    8  O   LIG     1      19.656  34.449  12.809  1.00  0.00    -0.650 OA
BRANCH   7   9
HETATM    9  O   LIG     1      18.317  32.723  12.098  1.00  0.00    -0.776 OA
HETATM   10  H   LIG     1      17.722  32.897  11.297  1.00  0.00     0.167 HD
ENDBRANCH   7   9
ENDBRANCH   6   7
ENDBRANCH   5   6
ENDBRANCH   2   5
BRANCH   1  11
HETATM   11  N   LIG     1      15.601  32.932  17.159  1.00  0.00    -0.237 NA
HETATM   12  C   LIG     1      14.955  34.232  16.939  1.00  0.00     0.135 C 
HETATM   13  C   LIG     1      14.995  32.245  18.304  1.00  0.00     0.135 C 
ENDBRANCH   1  11
TORSDOF 5
ENDMDL
MODEL 12
REMARK VINA RESULT:      -4.6      7.937      9.990
REMARK  5 active torsions:
REMARK  status: ('A' for Active; 'I' for Inactive)
REMARK    1  A    between atoms: N_2  and  N_3 
REMARK       I    between atoms: N_3  and  C_4 
REMARK    2  A    between atoms: C_4  and  C_5 
REMARK    3  A    between atoms: C_5  and  C_6 
REMARK    4  A    between atoms: C_6  and  C_7 
REMARK    5  A    between atoms: C_7  and  O_8 
ROOT
HETATM    1  N   LIG     1      13.906  29.944  14.958  1.00  0.00    -0.290 N 
HETATM    2  C   LIG     1      13.624  30.850  16.032  1.00  0.00     0.232 C 
HETATM    3  O   LIG     1      12.468  30.872  16.533  1.00  0.00    -0.272 OA
HETATM    4  H   LIG     1      13.127  29.357  14.576  1.00  0.00     0.183 HD
ENDROOT
BRANCH   2   5
HETATM    5  C   LIG     1      14.687  31.747  16.596  1.00  0.00     0.114 C 
BRANCH   5   6
HETATM    6  C   LIG     1      14.108  33.123  16.934  1.00  0.00     0.119 C 
BRANCH   6   7
HETATM    7  C   LIG     1      15.203  34.117  17.163  1.00  0.00     0.139 C 
HETATM    8  O   LIG     1      15.924  34.496  16.202  1.00  0.00    -0.650 OA
BRANCH   7   9
HETATM    9  O   LIG     1      15.433  34.616  18.442  1.00  0.00    -0.776 OA
HETATM   10  H   LIG     1      15.193  34.072  19.263  1.00  0.00     0.167 HD
ENDBRANCH   7   9
ENDBRANCH   6   7
ENDBRANCH   5   6
ENDBRANCH   2   5
BRANCH   1  11
HETATM   11  N   LIG     1      15.202  29.842  14.416  1.00  0.00    -0.237 NA
HETATM   12  C   LIG     1      15.358  28.502  13.838  1.00  0.00     0.135 C 
HETATM   13  C   LIG     1      15.353  30.868  13.379  1.00  0.00     0.135 C 
ENDBRANCH   1  11
TORSDOF 5
ENDMDL
MODEL 13
REMARK VINA RESULT:      -4.6      3.702      5.121
REMARK  5 active torsions:
REMARK  status: ('A' for Active; 'I' for Inactive)
REMARK    1  A    between atoms: N_2  and  N_3 
REMARK       I    between atoms: N_3  and  C_4 
REMARK    2  A    between atoms: C_4  and  C_5 
REMARK    3  A    between atoms: C_5  and  C_6 
REMARK    4  A    between atoms: C_6  and  C_7 
REMARK    5  A    between atoms: C_7  and  O_8 
ROOT
HETATM    1  N   LIG     1      18.763  39.358  20.465  1.00  0.00    -0.290 N 
HETATM    2  C   LIG     1      17.917  38.822  21.488  1.00  0.00     0.232 C 
HETATM    3  O   LIG     1      17.461  39.589  22.378  1.00  0.00    -0.272 OA
HETATM    4  H   LIG     1      19.029  40.370  20.510  1.00  0.00     0.183 HD
ENDROOT
BRANCH   2   5
HETATM    5  C   LIG     1      17.533  37.371  21.503  1.00  0.00     0.114 C 
BRANCH   5   6
HETATM    6  C   LIG     1      16.319  37.142  22.405  1.00  0.00     0.119 C 
BRANCH   6   7
HETATM    7  C   LIG     1      16.741  36.982  23.832  1.00  0.00     0.139 C 
HETATM    8  O   LIG     1      17.295  35.916  24.211  1.00  0.00    -0.650 OA
BRANCH   7   9
HETATM    9  O   LIG     1      16.513  38.008  24.743  1.00  0.00    -0.776 OA
HETATM   10  H   LIG     1      15.587  38.171  25.121  1.00  0.00     0.167 HD
ENDBRANCH   7   9
ENDBRANCH   6   7
ENDBRANCH   5   6
ENDBRANCH   2   5
BRANCH   1  11
HETATM   11  N   LIG     1      19.238  38.548  19.415  1.00  0.00    -0.237 NA
HETATM   12  C   LIG     1      18.781  39.120  18.143  1.00  0.00     0.135 C 
HETATM   13  C   LIG     1      20.704  38.529  19.472  1.00  0.00     0.135 C 
ENDBRANCH   1  11
TORSDOF 5
ENDMDL
MODEL 14
REMARK VINA RESULT:      -4.5      8.368     10.238
REMARK  5 active torsions:
REMARK  status: ('A' for Active; 'I' for Inactive)
REMARK    1  A    between atoms: N_2  and  N_3 
REMARK       I    between atoms: N_3  and  C_4 
REMARK    2  A    between atoms: C_4  and  C_5 
REMARK    3  A    between atoms: C_5  and  C_6 
REMARK    4  A    between atoms: C_6  and  C_7 
REMARK    5  A    between atoms: C_7  and  O_8 
ROOT
HETATM    1  N   LIG     1      17.213  33.077  12.630  1.00  0.00    -0.290 N 
HETATM    2  C   LIG     1      16.566  32.376  13.699  1.00  0.00     0.232 C 
HETATM    3  O   LIG     1      15.988  31.282  13.459  1.00  0.00    -0.272 OA
HETATM    4  H   LIG     1      17.145  32.690  11.660  1.00  0.00     0.183 HD
ENDROOT
BRANCH   2   5
HETATM    5  C   LIG     1      16.593  32.900  15.105  1.00  0.00     0.114 C 
BRANCH   5   6
HETATM    6  C   LIG     1      15.425  32.333  15.916  1.00  0.00     0.119 C 
BRANCH   6   7
HETATM    7  C   LIG     1      14.926  33.340  16.903  1.00  0.00     0.139 C 
HETATM    8  O   LIG     1      15.033  34.572  16.659  1.00  0.00    -0.650 OA
BRANCH   7   9
HETATM    9  O   LIG     1      14.351  32.917  18.098  1.00  0.00    -0.776 OA
HETATM   10  H   LIG     1      13.691  32.148  18.113  1.00  0.00     0.167 HD
ENDBRANCH   7   9
ENDBRANCH   6   7
ENDBRANCH   5   6
ENDBRANCH   2   5
BRANCH   1  11
HETATM   11  N   LIG     1      17.927  34.268  12.869  1.00  0.00    -0.237 NA
HETATM   12  C   LIG     1      19.360  33.955  12.887  1.00  0.00     0.135 C 
HETATM   13  C   LIG     1      17.621  35.214  11.791  1.00  0.00     0.135 C 
ENDBRANCH   1  11
TORSDOF 5
ENDMDL
MODEL 15
REMARK VINA RESULT:      -4.5      8.093      9.539
REMARK  5 active torsions:
REMARK  status: ('A' for Active; 'I' for Inactive)
REMARK    1  A    between atoms: N_2  and  N_3 
REMARK       I    between atoms: N_3  and  C_4 
REMARK    2  A    between atoms: C_4  and  C_5 
REMARK    3  A    between atoms: C_5  and  C_6 
REMARK    4  A    between atoms: C_6  and  C_7 
REMARK    5  A    between atoms: C_7  and  O_8 
ROOT
HETATM    1  N   LIG     1      16.200  32.801  16.482  1.00  0.00    -0.290 N 
HETATM    2  C   LIG     1      16.593  32.199  15.242  1.00  0.00     0.232 C 
HETATM    3  O   LIG     1      17.818  32.063  14.983  1.00  0.00    -0.272 OA
HETATM    4  H   LIG     1      16.944  33.164  17.123  1.00  0.00     0.183 HD
ENDROOT
BRANCH   2   5
HETATM    5  C   LIG     1      15.573  31.696  14.262  1.00  0.00     0.114 C 
BRANCH   5   6
HETATM    6  C   LIG     1      15.426  30.176  14.367  1.00  0.00     0.119 C 
BRANCH   6   7
HETATM    7  C   LIG     1      13.984  29.789  14.470  1.00  0.00     0.139 C 
HETATM    8  O   LIG     1      13.215  30.418  15.245  1.00  0.00    -0.650 OA
BRANCH   7   9
HETATM    9  O   LIG     1      13.494  28.729  13.714  1.00  0.00    -0.776 OA
HETATM   10  H   LIG     1      13.215  28.864  12.749  1.00  0.00     0.167 HD
ENDBRANCH   7   9
ENDBRANCH   6   7
ENDBRANCH   5   6
ENDBRANCH   2   5
BRANCH   1  11
HETATM   11  N   LIG     1      14.842  32.910  16.839  1.00  0.00    -0.237 NA
HETATM   12  C   LIG     1      14.617  32.122  18.056  1.00  0.00     0.135 C 
HETATM   13  C   LIG     1      14.540  34.325  17.080  1.00  0.00     0.135 C 
ENDBRANCH   1  11
TORSDOF 5
ENDMDL
MODEL 16
REMARK VINA RESULT:      -4.5      6.172      7.824
REMARK  5 active torsions:
REMARK  status: ('A' for Active; 'I' for Inactive)
REMARK    1  A    between atoms: N_2  and  N_3 
REMARK       I    between atoms: N_3  and  C_4 
REMARK    2  A    between atoms: C_4  and  C_5 
REMARK    3  A    between atoms: C_5  and  C_6 
REMARK    4  A    between atoms: C_6  and  C_7 
REMARK    5  A    between atoms: C_7  and  O_8 
ROOT
HETATM    1  N   LIG     1      15.600  33.322  18.244  1.00  0.00    -0.290 N 
HETATM    2  C   LIG     1      14.913  33.071  17.012  1.00  0.00     0.232 C 
HETATM    3  O   LIG     1      15.437  33.437  15.926  1.00  0.00    -0.272 OA
HETATM    4  H   LIG     1      16.501  33.855  18.219  1.00  0.00     0.183 HD
ENDROOT
BRANCH   2   5
HETATM    5  C   LIG     1      13.597  32.349  16.986  1.00  0.00     0.114 C 
BRANCH   5   6
HETATM    6  C   LIG     1      13.809  30.845  16.798  1.00  0.00     0.119 C 
BRANCH   6   7
HETATM    7  C   LIG     1      13.587  30.453  15.371  1.00  0.00     0.139 C 
HETATM    8  O   LIG     1      14.467  30.701  14.503  1.00  0.00    -0.650 OA
BRANCH   7   9
HETATM    9  O   LIG     1      12.404  29.820  15.000  1.00  0.00    -0.776 OA
HETATM   10  H   LIG     1      11.818  29.368  15.692  1.00  0.00     0.167 HD
ENDBRANCH   7   9
ENDBRANCH   6   7
ENDBRANCH   5   6
ENDBRANCH   2   5
BRANCH   1  11
HETATM   11  N   LIG     1      15.079  32.870  19.472  1.00  0.00    -0.237 NA
HETATM   12  C   LIG     1      15.722  31.593  19.807  1.00  0.00     0.135 C 
HETATM   13  C   LIG     1      15.373  33.876  20.498  1.00  0.00     0.135 C 
ENDBRANCH   1  11
TORSDOF 5
ENDMDL
MODEL 17
REMARK VINA RESULT:      -4.3      8.014     10.094
REMARK  5 active torsions:
REMARK  status: ('A' for Active; 'I' for Inactive)
REMARK    1  A    between atoms: N_2  and  N_3 
REMARK       I    between atoms: N_3  and  C_4 
REMARK    2  A    between atoms: C_4  and  C_5 
REMARK    3  A    between atoms: C_5  and  C_6 
REMARK    4  A    between atoms: C_6  and  C_7 
REMARK    5  A    between atoms: C_7  and  O_8 
ROOT
HETATM    1  N   LIG     1      13.896  29.924  14.822  1.00  0.00    -0.290 N 
HETATM    2  C   LIG     1      13.650  30.721  15.987  1.00  0.00     0.232 C 
HETATM    3  O   LIG     1      12.476  30.813  16.436  1.00  0.00    -0.272 OA
HETATM    4  H   LIG     1      13.083  29.479  14.335  1.00  0.00     0.183 HD
ENDROOT
BRANCH   2   5
HETATM    5  C   LIG     1      14.768  31.419  16.706  1.00  0.00     0.114 C 
BRANCH   5   6
HETATM    6  C   LIG     1      14.217  32.356  17.783  1.00  0.00     0.119 C 
BRANCH   6   7
HETATM    7  C   LIG     1      14.828  32.051  19.114  1.00  0.00     0.139 C 
HETATM    8  O   LIG     1      14.403  31.082  19.798  1.00  0.00    -0.650 OA
BRANCH   7   9
HETATM    9  O   LIG     1      15.863  32.844  19.602  1.00  0.00    -0.776 OA
HETATM   10  H   LIG     1      15.842  33.198  20.551  1.00  0.00     0.167 HD
ENDBRANCH   7   9
ENDBRANCH   6   7
ENDBRANCH   5   6
ENDBRANCH   2   5
BRANCH   1  11
HETATM   11  N   LIG     1      15.204  29.741  14.329  1.00  0.00    -0.237 NA
HETATM   12  C   LIG     1      15.314  28.375  13.804  1.00  0.00     0.135 C 
HETATM   13  C   LIG     1      15.437  30.721  13.264  1.00  0.00     0.135 C 
ENDBRANCH   1  11
TORSDOF 5
ENDMDL
MODEL 18
REMARK VINA RESULT:      -4.1      8.811     10.607
REMARK  5 active torsions:
REMARK  status: ('A' for Active; 'I' for Inactive)
REMARK    1  A    between atoms: N_2  and  N_3 
REMARK       I    between atoms: N_3  and  C_4 
REMARK    2  A    between atoms: C_4  and  C_5 
REMARK    3  A    between atoms: C_5  and  C_6 
REMARK    4  A    between atoms: C_6  and  C_7 
REMARK    5  A    between atoms: C_7  and  O_8 
ROOT
HETATM    1  N   LIG     1      14.958  32.094  16.045  1.00  0.00    -0.290 N 
HETATM    2  C   LIG     1      15.182  31.422  14.800  1.00  0.00     0.232 C 
HETATM    3  O   LIG     1      15.967  31.931  13.956  1.00  0.00    -0.272 OA
HETATM    4  H   LIG     1      15.412  33.024  16.205  1.00  0.00     0.183 HD
ENDROOT
BRANCH   2   5
HETATM    5  C   LIG     1      14.528  30.106  14.495  1.00  0.00     0.114 C 
BRANCH   5   6
HETATM    6  C   LIG     1      15.574  29.064  14.091  1.00  0.00     0.119 C 
BRANCH   6   7
HETATM    7  C   LIG     1      14.917  27.853  13.506  1.00  0.00     0.139 C 
HETATM    8  O   LIG     1      15.608  26.986  12.908  1.00  0.00    -0.650 OA
BRANCH   7   9
HETATM    9  O   LIG     1      13.539  27.689  13.615  1.00  0.00    -0.776 OA
HETATM   10  H   LIG     1      13.077  27.757  14.514  1.00  0.00     0.167 HD
ENDBRANCH   7   9
ENDBRANCH   6   7
ENDBRANCH   5   6
ENDBRANCH   2   5
BRANCH   1  11
HETATM   11  N   LIG     1      14.140  31.525  17.042  1.00  0.00    -0.237 NA
HETATM   12  C   LIG     1      14.626  31.973  18.352  1.00  0.00     0.135 C 
HETATM   13  C   LIG     1      12.763  31.978  16.823  1.00  0.00     0.135 C 
ENDBRANCH   1  11
TORSDOF 5
ENDMDL
MODEL 19
REMARK VINA RESULT:      -4.1      6.874      8.952
REMARK  5 active torsions:
REMARK  status: ('A' for Active; 'I' for Inactive)
REMARK    1  A    between atoms: N_2  and  N_3 
REMARK       I    between atoms: N_3  and  C_4 
REMARK    2  A    between atoms: C_4  and  C_5 
REMARK    3  A    between atoms: C_5  and  C_6 
REMARK    4  A    between atoms: C_6  and  C_7 
REMARK    5  A    between atoms: C_7  and  O_8 
ROOT
HETATM    1  N   LIG     1      14.193  31.124  15.496  1.00  0.00    -0.290 N 
HETATM    2  C   LIG     1      13.998  31.674  16.804  1.00  0.00     0.232 C 
HETATM    3  O   LIG     1      12.845  31.666  17.312  1.00  0.00    -0.272 OA
HETATM    4  H   LIG     1      13.359  30.775  14.966  1.00  0.00     0.183 HD
ENDROOT
BRANCH   2   5
HETATM    5  C   LIG     1      15.147  32.227  17.597  1.00  0.00     0.114 C 
BRANCH   5   6
HETATM    6  C   LIG     1      15.017  31.846  19.073  1.00  0.00     0.119 C 
BRANCH   6   7
HETATM    7  C   LIG     1      15.138  33.056  19.945  1.00  0.00     0.139 C 
HETATM    8  O   LIG     1      16.043  33.906  19.725  1.00  0.00    -0.650 OA
BRANCH   7   9
HETATM    9  O   LIG     1      14.257  33.239  21.007  1.00  0.00    -0.776 OA
HETATM   10  H   LIG     1      14.011  32.467  21.616  1.00  0.00     0.167 HD
ENDBRANCH   7   9
ENDBRANCH   6   7
ENDBRANCH   5   6
ENDBRANCH   2   5
BRANCH   1  11
HETATM   11  N   LIG     1      15.477  31.053  14.920  1.00  0.00    -0.237 NA
HETATM   12  C   LIG     1      15.443  30.074  13.828  1.00  0.00     0.135 C 
HETATM   13  C   LIG     1      15.828  32.381  14.408  1.00  0.00     0.135 C 
ENDBRANCH   1  11
TORSDOF 5
ENDMDL
MODEL 20
REMARK VINA RESULT:      -4.1      3.506      4.588
REMARK  5 active torsions:
REMARK  status: ('A' for Active; 'I' for Inactive)
REMARK    1  A    between atoms: N_2  and  N_3 
REMARK       I    between atoms: N_3  and  C_4 
REMARK    2  A    between atoms: C_4  and  C_5 
REMARK    3  A    between atoms: C_5  and  C_6 
REMARK    4  A    between atoms: C_6  and  C_7 
REMARK    5  A    between atoms: C_7  and  O_8 
ROOT
HETATM    1  N   LIG     1      19.224  38.638  20.758  1.00  0.00    -0.290 N 
HETATM    2  C   LIG     1      18.506  38.833  21.982  1.00  0.00     0.232 C 
HETATM    3  O   LIG     1      19.133  39.194  23.015  1.00  0.00    -0.272 OA
HETATM    4  H   LIG     1      20.265  38.747  20.761  1.00  0.00     0.183 HD
ENDROOT
BRANCH   2   5
HETATM    5  C   LIG     1      17.018  38.650  22.053  1.00  0.00     0.114 C 
BRANCH   5   6
HETATM    6  C   LIG     1      16.661  37.458  22.943  1.00  0.00     0.119 C 
BRANCH   6   7
HETATM    7  C   LIG     1      16.402  36.238  22.115  1.00  0.00     0.139 C 
HETATM    8  O   LIG     1      15.368  36.169  21.398  1.00  0.00    -0.650 OA
BRANCH   7   9
HETATM    9  O   LIG     1      17.299  35.175  22.144  1.00  0.00    -0.776 OA
HETATM   10  H   LIG     1      16.969  34.218  22.174  1.00  0.00     0.167 HD
ENDBRANCH   7   9
ENDBRANCH   6   7
ENDBRANCH   5   6
ENDBRANCH   2   5
BRANCH   1  11
HETATM   11  N   LIG     1      18.551  38.300  19.567  1.00  0.00    -0.237 NA
HETATM   12  C   LIG     1      19.125  39.088  18.470  1.00  0.00     0.135 C 
HETATM   13  C   LIG     1      18.738  36.866  19.321  1.00  0.00     0.135 C 
ENDBRANCH   1  11
TORSDOF 5
ENDMDL
