REMARK  6 active torsions:
REMARK  status: ('A' for Active; 'I' for Inactive)
REMARK    1  A    between atoms: C_2  and  C_17 
REMARK       I    between atoms: C_2  and  N_3 
REMARK    2  A    between atoms: N_3  and  C_4 
REMARK    3  A    between atoms: N_3  and  C_14 
REMARK    4  A    between atoms: C_5  and  C_6 
REMARK    5  A    between atoms: C_11  and  C_12 
REMARK    6  A    between atoms: C_14  and  O_15 
ROOT
HETATM    1  C   LIG     1      -0.377  -0.203  -0.020  1.00  0.00     0.052 A 
HETATM    2  C   LIG     1      -1.485   0.680  -0.003  1.00  0.00    -0.031 A 
HETATM    3  C   LIG     1      -2.686   0.267   0.594  1.00  0.00     0.009 A 
HETATM    4  C   LIG     1      -2.794  -0.998   1.168  1.00  0.00     0.001 A 
HETATM    5  C   LIG     1      -1.702  -1.862   1.173  1.00  0.00     0.009 A 
HETATM    6  C   LIG     1      -0.482  -1.475   0.595  1.00  0.00    -0.031 A 
ENDROOT
BRANCH   1   7
HETATM    7  N   LIG     1       0.853   0.184  -0.664  1.00  0.00    -0.294 N 
HETATM    8  C   LIG     1       1.038  -0.026  -2.083  1.00  0.00     0.239 C 
HETATM    9  O   LIG     1       2.111   0.343  -2.634  1.00  0.00    -0.272 OA
BRANCH   8  10
HETATM   10  C   LIG     1      -0.029  -0.635  -2.951  1.00  0.00     0.217 C 
HETATM   11 CL   LIG     1      -0.907   0.644  -3.821  1.00  0.00    -0.121 Cl
ENDBRANCH   8  10
BRANCH   7  12
HETATM   12  C   LIG     1       1.871   0.927   0.094  1.00  0.00     0.301 C 
BRANCH  12  13
HETATM   13  O   LIG     1       1.650   0.794   1.485  1.00  0.00    -0.376 OA
HETATM   14  C   LIG     1       2.600   1.563   2.187  1.00  0.00     0.203 C 
ENDBRANCH  12  13
ENDBRANCH   7  12
ENDBRANCH   1   7
BRANCH   6  15
HETATM   15  C   LIG     1       0.681  -2.441   0.641  1.00  0.00     0.036 C 
HETATM   16  C   LIG     1       0.585  -3.481  -0.470  1.00  0.00     0.010 C 
ENDBRANCH   6  15
BRANCH   2  17
HETATM   17  C   LIG     1      -1.399   2.084  -0.557  1.00  0.00     0.036 C 
HETATM   18  C   LIG     1      -1.171   3.098   0.561  1.00  0.00     0.010 C 
ENDBRANCH   2  17
TORSDOF 6
