MODEL 1
REMARK VINA RESULT:      -8.5      0.000      0.000
REMARK  5 active torsions:
REMARK  status: ('A' for Active; 'I' for Inactive)
REMARK    1  A    between atoms: C_2  and  C_6 
REMARK       I    between atoms: C_2  and  N_3 
REMARK    2  A    between atoms: N_3  and  C_4 
REMARK    3  A    between atoms: C_6  and  O_7 
REMARK    4  A    between atoms: O_7  and  C_8 
REMARK       I    between atoms: C_8  and  N_9 
REMARK    5  A    between atoms: N_9  and  C_10 
ROOT
HETATM    1  C   LIG     1      16.964  38.690  23.104  1.00  0.00     0.366 C 
HETATM    2  N   LIG     1      16.782  38.345  24.484  1.00  0.00    -0.303 N 
HETATM    3  O   LIG     1      16.304  39.649  22.621  1.00  0.00    -0.238 OA
HETATM    4  H   LIG     1      16.307  39.044  25.101  1.00  0.00     0.171 HD
ENDROOT
BRANCH   1   5
HETATM    5  O   LIG     1      17.895  37.989  22.321  1.00  0.00    -0.289 OA
BRANCH   5   6
HETATM    6  C   LIG     1      18.049  38.080  20.897  1.00  0.00     0.221 C 
HETATM    7  C   LIG     1      19.184  39.031  20.506  1.00  0.00     0.050 C 
BRANCH   6   8
HETATM    8  C   LIG     1      18.220  36.716  20.260  1.00  0.00     0.246 C 
HETATM    9  O   LIG     1      19.275  36.460  19.621  1.00  0.00    -0.271 OA
HETATM   10  N   LIG     1      17.191  35.714  20.314  1.00  0.00    -0.359 N 
HETATM   11  H   LIG     1      17.358  34.826  19.785  1.00  0.00     0.162 HD
BRANCH  10  12
HETATM   12  C   LIG     1      15.954  35.863  21.083  1.00  0.00     0.118 C 
HETATM   13  C   LIG     1      15.293  34.508  21.320  1.00  0.00     0.026 C 
ENDBRANCH  10  12
ENDBRANCH   6   8
ENDBRANCH   5   6
ENDBRANCH   1   5
BRANCH   2  14
HETATM   14  C   LIG     1      17.315  37.154  25.086  1.00  0.00     0.036 A 
HETATM   15  C   LIG     1      16.976  35.875  24.609  1.00  0.00     0.029 A 
HETATM   16  C   LIG     1      17.492  34.732  25.227  1.00  0.00     0.002 A 
HETATM   17  C   LIG     1      18.336  34.855  26.334  1.00  0.00     0.000 A 
HETATM   18  C   LIG     1      18.659  36.121  26.830  1.00  0.00     0.002 A 
HETATM   19  C   LIG     1      18.144  37.266  26.214  1.00  0.00     0.029 A 
ENDBRANCH   2  14
TORSDOF 5
ENDMDL
MODEL 2
REMARK VINA RESULT:      -7.9      1.548      2.447
REMARK  5 active torsions:
REMARK  status: ('A' for Active; 'I' for Inactive)
REMARK    1  A    between atoms: C_2  and  C_6 
REMARK       I    between atoms: C_2  and  N_3 
REMARK    2  A    between atoms: N_3  and  C_4 
REMARK    3  A    between atoms: C_6  and  O_7 
REMARK    4  A    between atoms: O_7  and  C_8 
REMARK       I    between atoms: C_8  and  N_9 
REMARK    5  A    between atoms: N_9  and  C_10 
ROOT
HETATM    1  C   LIG     1      16.408  38.431  22.918  1.00  0.00     0.366 C 
HETATM    2  N   LIG     1      16.336  38.152  24.323  1.00  0.00    -0.303 N 
HETATM    3  O   LIG     1      15.594  39.250  22.415  1.00  0.00    -0.238 OA
HETATM    4  H   LIG     1      15.788  38.812  24.921  1.00  0.00     0.171 HD
ENDROOT
BRANCH   1   5
HETATM    5  O   LIG     1      17.399  37.823  22.131  1.00  0.00    -0.289 OA
BRANCH   5   6
HETATM    6  C   LIG     1      18.152  38.447  21.080  1.00  0.00     0.221 C 
HETATM    7  C   LIG     1      19.402  39.152  21.615  1.00  0.00     0.050 C 
BRANCH   6   8
HETATM    8  C   LIG     1      18.494  37.470  19.975  1.00  0.00     0.246 C 
HETATM    9  O   LIG     1      18.448  36.232  20.205  1.00  0.00    -0.271 OA
HETATM   10  N   LIG     1      18.925  37.909  18.675  1.00  0.00    -0.359 N 
HETATM   11  H   LIG     1      19.214  37.171  17.991  1.00  0.00     0.162 HD
BRANCH  10  12
HETATM   12  C   LIG     1      18.951  39.313  18.261  1.00  0.00     0.118 C 
HETATM   13  C   LIG     1      18.747  39.442  16.755  1.00  0.00     0.026 C 
ENDBRANCH  10  12
ENDBRANCH   6   8
ENDBRANCH   5   6
ENDBRANCH   1   5
BRANCH   2  14
HETATM   14  C   LIG     1      17.064  37.093  24.965  1.00  0.00     0.036 A 
HETATM   15  C   LIG     1      16.909  35.751  24.570  1.00  0.00     0.029 A 
HETATM   16  C   LIG     1      17.613  34.737  25.226  1.00  0.00     0.002 A 
HETATM   17  C   LIG     1      18.464  35.051  26.290  1.00  0.00     0.000 A 
HETATM   18  C   LIG     1      18.604  36.377  26.705  1.00  0.00     0.002 A 
HETATM   19  C   LIG     1      17.901  37.393  26.051  1.00  0.00     0.029 A 
ENDBRANCH   2  14
TORSDOF 5
ENDMDL
MODEL 3
REMARK VINA RESULT:      -7.6      2.186      3.556
REMARK  5 active torsions:
REMARK  status: ('A' for Active; 'I' for Inactive)
REMARK    1  A    between atoms: C_2  and  C_6 
REMARK       I    between atoms: C_2  and  N_3 
REMARK    2  A    between atoms: N_3  and  C_4 
REMARK    3  A    between atoms: C_6  and  O_7 
REMARK    4  A    between atoms: O_7  and  C_8 
REMARK       I    between atoms: C_8  and  N_9 
REMARK    5  A    between atoms: N_9  and  C_10 
ROOT
HETATM    1  C   LIG     1      17.380  36.241  20.711  1.00  0.00     0.366 C 
HETATM    2  N   LIG     1      16.583  35.836  21.833  1.00  0.00    -0.303 N 
HETATM    3  O   LIG     1      17.082  35.815  19.564  1.00  0.00    -0.238 OA
HETATM    4  H   LIG     1      15.648  35.414  21.637  1.00  0.00     0.171 HD
ENDROOT
BRANCH   1   5
HETATM    5  O   LIG     1      18.452  37.130  20.894  1.00  0.00    -0.289 OA
BRANCH   5   6
HETATM    6  C   LIG     1      18.554  38.460  20.365  1.00  0.00     0.221 C 
HETATM    7  C   LIG     1      18.588  39.514  21.476  1.00  0.00     0.050 C 
BRANCH   6   8
HETATM    8  C   LIG     1      19.732  38.604  19.424  1.00  0.00     0.246 C 
HETATM    9  O   LIG     1      20.855  38.144  19.762  1.00  0.00    -0.271 OA
HETATM   10  N   LIG     1      19.626  39.301  18.170  1.00  0.00    -0.359 N 
HETATM   11  H   LIG     1      20.504  39.421  17.613  1.00  0.00     0.162 HD
BRANCH  10  12
HETATM   12  C   LIG     1      18.365  39.816  17.634  1.00  0.00     0.118 C 
HETATM   13  C   LIG     1      18.398  39.858  16.109  1.00  0.00     0.026 C 
ENDBRANCH  10  12
ENDBRANCH   6   8
ENDBRANCH   5   6
ENDBRANCH   1   5
BRANCH   2  14
HETATM   14  C   LIG     1      16.946  36.085  23.201  1.00  0.00     0.036 A 
HETATM   15  C   LIG     1      17.283  35.034  24.075  1.00  0.00     0.029 A 
HETATM   16  C   LIG     1      17.611  35.303  25.407  1.00  0.00     0.002 A 
HETATM   17  C   LIG     1      17.592  36.617  25.882  1.00  0.00     0.000 A 
HETATM   18  C   LIG     1      17.235  37.663  25.028  1.00  0.00     0.002 A 
HETATM   19  C   LIG     1      16.906  37.399  23.696  1.00  0.00     0.029 A 
ENDBRANCH   2  14
TORSDOF 5
ENDMDL
MODEL 4
REMARK VINA RESULT:      -7.6      2.180      3.633
REMARK  5 active torsions:
REMARK  status: ('A' for Active; 'I' for Inactive)
REMARK    1  A    between atoms: C_2  and  C_6 
REMARK       I    between atoms: C_2  and  N_3 
REMARK    2  A    between atoms: N_3  and  C_4 
REMARK    3  A    between atoms: C_6  and  O_7 
REMARK    4  A    between atoms: O_7  and  C_8 
REMARK       I    between atoms: C_8  and  N_9 
REMARK    5  A    between atoms: N_9  and  C_10 
ROOT
HETATM    1  C   LIG     1      17.368  36.289  20.700  1.00  0.00     0.366 C 
HETATM    2  N   LIG     1      16.546  35.929  21.818  1.00  0.00    -0.303 N 
HETATM    3  O   LIG     1      17.072  35.850  19.557  1.00  0.00    -0.238 OA
HETATM    4  H   LIG     1      15.601  35.529  21.617  1.00  0.00     0.171 HD
ENDROOT
BRANCH   1   5
HETATM    5  O   LIG     1      18.462  37.151  20.880  1.00  0.00    -0.289 OA
BRANCH   5   6
HETATM    6  C   LIG     1      18.595  38.479  20.354  1.00  0.00     0.221 C 
HETATM    7  C   LIG     1      18.601  39.535  21.465  1.00  0.00     0.050 C 
BRANCH   6   8
HETATM    8  C   LIG     1      19.806  38.612  19.454  1.00  0.00     0.246 C 
HETATM    9  O   LIG     1      20.901  38.103  19.811  1.00  0.00    -0.271 OA
HETATM   10  N   LIG     1      19.762  39.349  18.220  1.00  0.00    -0.359 N 
HETATM   11  H   LIG     1      20.660  39.456  17.694  1.00  0.00     0.162 HD
BRANCH  10  12
HETATM   12  C   LIG     1      18.536  39.924  17.662  1.00  0.00     0.118 C 
HETATM   13  C   LIG     1      18.456  39.683  16.158  1.00  0.00     0.026 C 
ENDBRANCH  10  12
ENDBRANCH   6   8
ENDBRANCH   5   6
ENDBRANCH   1   5
BRANCH   2  14
HETATM   14  C   LIG     1      16.899  36.193  23.186  1.00  0.00     0.036 A 
HETATM   15  C   LIG     1      16.926  37.504  23.698  1.00  0.00     0.029 A 
HETATM   16  C   LIG     1      17.294  37.734  25.026  1.00  0.00     0.002 A 
HETATM   17  C   LIG     1      17.651  36.663  25.850  1.00  0.00     0.000 A 
HETATM   18  C   LIG     1      17.651  35.361  25.344  1.00  0.00     0.002 A 
HETATM   19  C   LIG     1      17.284  35.127  24.015  1.00  0.00     0.029 A 
ENDBRANCH   2  14
TORSDOF 5
ENDMDL
MODEL 5
REMARK VINA RESULT:      -7.3      1.343      2.537
REMARK  5 active torsions:
REMARK  status: ('A' for Active; 'I' for Inactive)
REMARK    1  A    between atoms: C_2  and  C_6 
REMARK       I    between atoms: C_2  and  N_3 
REMARK    2  A    between atoms: N_3  and  C_4 
REMARK    3  A    between atoms: C_6  and  O_7 
REMARK    4  A    between atoms: O_7  and  C_8 
REMARK       I    between atoms: C_8  and  N_9 
REMARK    5  A    between atoms: N_9  and  C_10 
ROOT
HETATM    1  C   LIG     1      16.339  37.743  22.785  1.00  0.00     0.366 C 
HETATM    2  N   LIG     1      16.313  37.741  24.219  1.00  0.00    -0.303 N 
HETATM    3  O   LIG     1      15.440  38.363  22.158  1.00  0.00    -0.238 OA
HETATM    4  H   LIG     1      15.709  38.449  24.694  1.00  0.00     0.171 HD
ENDROOT
BRANCH   1   5
HETATM    5  O   LIG     1      17.378  37.092  22.100  1.00  0.00    -0.289 OA
BRANCH   5   6
HETATM    6  C   LIG     1      17.303  35.810  21.460  1.00  0.00     0.221 C 
HETATM    7  C   LIG     1      16.187  34.942  22.052  1.00  0.00     0.050 C 
BRANCH   6   8
HETATM    8  C   LIG     1      17.173  35.935  19.957  1.00  0.00     0.246 C 
HETATM    9  O   LIG     1      16.180  35.423  19.376  1.00  0.00    -0.271 OA
HETATM   10  N   LIG     1      18.179  36.578  19.155  1.00  0.00    -0.359 N 
HETATM   11  H   LIG     1      18.050  36.557  18.117  1.00  0.00     0.162 HD
BRANCH  10  12
HETATM   12  C   LIG     1      19.340  37.273  19.715  1.00  0.00     0.118 C 
HETATM   13  C   LIG     1      19.187  38.785  19.583  1.00  0.00     0.026 C 
ENDBRANCH  10  12
ENDBRANCH   6   8
ENDBRANCH   5   6
ENDBRANCH   1   5
BRANCH   2  14
HETATM   14  C   LIG     1      17.154  36.905  25.031  1.00  0.00     0.036 A 
HETATM   15  C   LIG     1      16.994  35.507  25.057  1.00  0.00     0.029 A 
HETATM   16  C   LIG     1      17.811  34.720  25.874  1.00  0.00     0.002 A 
HETATM   17  C   LIG     1      18.782  35.319  26.681  1.00  0.00     0.000 A 
HETATM   18  C   LIG     1      18.930  36.709  26.680  1.00  0.00     0.002 A 
HETATM   19  C   LIG     1      18.115  37.499  25.865  1.00  0.00     0.029 A 
ENDBRANCH   2  14
TORSDOF 5
ENDMDL
MODEL 6
REMARK VINA RESULT:      -7.2      1.405      2.261
REMARK  5 active torsions:
REMARK  status: ('A' for Active; 'I' for Inactive)
REMARK    1  A    between atoms: C_2  and  C_6 
REMARK       I    between atoms: C_2  and  N_3 
REMARK    2  A    between atoms: N_3  and  C_4 
REMARK    3  A    between atoms: C_6  and  O_7 
REMARK    4  A    between atoms: O_7  and  C_8 
REMARK       I    between atoms: C_8  and  N_9 
REMARK    5  A    between atoms: N_9  and  C_10 
ROOT
HETATM    1  C   LIG     1      16.770  38.170  22.888  1.00  0.00     0.366 C 
HETATM    2  N   LIG     1      17.048  38.237  24.293  1.00  0.00    -0.303 N 
HETATM    3  O   LIG     1      16.207  39.148  22.328  1.00  0.00    -0.238 OA
HETATM    4  H   LIG     1      17.007  39.175  24.752  1.00  0.00     0.171 HD
ENDROOT
BRANCH   1   5
HETATM    5  O   LIG     1      17.158  37.042  22.147  1.00  0.00    -0.289 OA
BRANCH   5   6
HETATM    6  C   LIG     1      16.297  35.995  21.676  1.00  0.00     0.221 C 
HETATM    7  C   LIG     1      14.820  36.397  21.747  1.00  0.00     0.050 C 
BRANCH   6   8
HETATM    8  C   LIG     1      16.681  35.530  20.287  1.00  0.00     0.246 C 
HETATM    9  O   LIG     1      17.490  36.214  19.606  1.00  0.00    -0.271 OA
HETATM   10  N   LIG     1      16.110  34.351  19.693  1.00  0.00    -0.359 N 
HETATM   11  H   LIG     1      16.372  34.140  18.702  1.00  0.00     0.162 HD
BRANCH  10  12
HETATM   12  C   LIG     1      15.218  33.435  20.405  1.00  0.00     0.118 C 
HETATM   13  C   LIG     1      15.319  32.022  19.836  1.00  0.00     0.026 C 
ENDBRANCH  10  12
ENDBRANCH   6   8
ENDBRANCH   5   6
ENDBRANCH   1   5
BRANCH   2  14
HETATM   14  C   LIG     1      17.490  37.114  25.074  1.00  0.00     0.036 A 
HETATM   15  C   LIG     1      18.501  37.247  26.044  1.00  0.00     0.029 A 
HETATM   16  C   LIG     1      18.928  36.134  26.774  1.00  0.00     0.002 A 
HETATM   17  C   LIG     1      18.362  34.879  26.533  1.00  0.00     0.000 A 
HETATM   18  C   LIG     1      17.376  34.733  25.554  1.00  0.00     0.002 A 
HETATM   19  C   LIG     1      16.947  35.844  24.822  1.00  0.00     0.029 A 
ENDBRANCH   2  14
TORSDOF 5
ENDMDL
MODEL 7
REMARK VINA RESULT:      -6.8      1.662      5.483
REMARK  5 active torsions:
REMARK  status: ('A' for Active; 'I' for Inactive)
REMARK    1  A    between atoms: C_2  and  C_6 
REMARK       I    between atoms: C_2  and  N_3 
REMARK    2  A    between atoms: N_3  and  C_4 
REMARK    3  A    between atoms: C_6  and  O_7 
REMARK    4  A    between atoms: O_7  and  C_8 
REMARK       I    between atoms: C_8  and  N_9 
REMARK    5  A    between atoms: N_9  and  C_10 
ROOT
HETATM    1  C   LIG     1      16.807  35.619  21.854  1.00  0.00     0.366 C 
HETATM    2  N   LIG     1      17.435  35.863  20.588  1.00  0.00    -0.303 N 
HETATM    3  O   LIG     1      15.906  34.741  21.930  1.00  0.00    -0.238 OA
HETATM    4  H   LIG     1      17.310  35.146  19.838  1.00  0.00     0.171 HD
ENDROOT
BRANCH   1   5
HETATM    5  O   LIG     1      17.222  36.327  22.993  1.00  0.00    -0.289 OA
BRANCH   5   6
HETATM    6  C   LIG     1      16.752  37.616  23.413  1.00  0.00     0.221 C 
HETATM    7  C   LIG     1      15.261  37.804  23.112  1.00  0.00     0.050 C 
BRANCH   6   8
HETATM    8  C   LIG     1      17.063  37.883  24.871  1.00  0.00     0.246 C 
HETATM    9  O   LIG     1      17.027  39.065  25.305  1.00  0.00    -0.271 OA
HETATM   10  N   LIG     1      17.452  36.833  25.773  1.00  0.00    -0.359 N 
HETATM   11  H   LIG     1      17.722  37.112  26.745  1.00  0.00     0.162 HD
BRANCH  10  12
HETATM   12  C   LIG     1      17.461  35.414  25.410  1.00  0.00     0.118 C 
HETATM   13  C   LIG     1      18.377  34.620  26.336  1.00  0.00     0.026 C 
ENDBRANCH  10  12
ENDBRANCH   6   8
ENDBRANCH   5   6
ENDBRANCH   1   5
BRANCH   2  14
HETATM   14  C   LIG     1      18.316  36.970  20.334  1.00  0.00     0.036 A 
HETATM   15  C   LIG     1      17.980  38.280  20.724  1.00  0.00     0.029 A 
HETATM   16  C   LIG     1      18.845  39.342  20.445  1.00  0.00     0.002 A 
HETATM   17  C   LIG     1      20.043  39.109  19.764  1.00  0.00     0.000 A 
HETATM   18  C   LIG     1      20.373  37.816  19.351  1.00  0.00     0.002 A 
HETATM   19  C   LIG     1      19.509  36.751  19.628  1.00  0.00     0.029 A 
ENDBRANCH   2  14
TORSDOF 5
ENDMDL
MODEL 8
REMARK VINA RESULT:      -6.7      4.772      6.711
REMARK  5 active torsions:
REMARK  status: ('A' for Active; 'I' for Inactive)
REMARK    1  A    between atoms: C_2  and  C_6 
REMARK       I    between atoms: C_2  and  N_3 
REMARK    2  A    between atoms: N_3  and  C_4 
REMARK    3  A    between atoms: C_6  and  O_7 
REMARK    4  A    between atoms: O_7  and  C_8 
REMARK       I    between atoms: C_8  and  N_9 
REMARK    5  A    between atoms: N_9  and  C_10 
ROOT
HETATM    1  C   LIG     1      14.881  32.169  19.554  1.00  0.00     0.366 C 
HETATM    2  N   LIG     1      14.651  32.914  20.758  1.00  0.00    -0.303 N 
HETATM    3  O   LIG     1      14.426  30.998  19.463  1.00  0.00    -0.238 OA
HETATM    4  H   LIG     1      13.912  32.565  21.410  1.00  0.00     0.171 HD
ENDROOT
BRANCH   1   5
HETATM    5  O   LIG     1      15.572  32.759  18.484  1.00  0.00    -0.289 OA
BRANCH   5   6
HETATM    6  C   LIG     1      15.037  33.058  17.186  1.00  0.00     0.221 C 
HETATM    7  C   LIG     1      14.850  34.564  16.979  1.00  0.00     0.050 C 
BRANCH   6   8
HETATM    8  C   LIG     1      15.865  32.441  16.078  1.00  0.00     0.246 C 
HETATM    9  O   LIG     1      17.005  32.911  15.823  1.00  0.00    -0.271 OA
HETATM   10  N   LIG     1      15.371  31.363  15.265  1.00  0.00    -0.359 N 
HETATM   11  H   LIG     1      15.975  31.044  14.473  1.00  0.00     0.162 HD
BRANCH  10  12
HETATM   12  C   LIG     1      14.096  30.685  15.507  1.00  0.00     0.118 C 
HETATM   13  C   LIG     1      13.809  29.658  14.415  1.00  0.00     0.026 C 
ENDBRANCH  10  12
ENDBRANCH   6   8
ENDBRANCH   5   6
ENDBRANCH   1   5
BRANCH   2  14
HETATM   14  C   LIG     1      15.292  34.164  21.058  1.00  0.00     0.036 A 
HETATM   15  C   LIG     1      16.693  34.271  21.137  1.00  0.00     0.029 A 
HETATM   16  C   LIG     1      17.290  35.496  21.453  1.00  0.00     0.002 A 
HETATM   17  C   LIG     1      16.495  36.618  21.706  1.00  0.00     0.000 A 
HETATM   18  C   LIG     1      15.103  36.514  21.653  1.00  0.00     0.002 A 
HETATM   19  C   LIG     1      14.503  35.291  21.339  1.00  0.00     0.029 A 
ENDBRANCH   2  14
TORSDOF 5
ENDMDL
MODEL 9
REMARK VINA RESULT:      -6.5      6.477      9.990
REMARK  5 active torsions:
REMARK  status: ('A' for Active; 'I' for Inactive)
REMARK    1  A    between atoms: C_2  and  C_6 
REMARK       I    between atoms: C_2  and  N_3 
REMARK    2  A    between atoms: N_3  and  C_4 
REMARK    3  A    between atoms: C_6  and  O_7 
REMARK    4  A    between atoms: O_7  and  C_8 
REMARK       I    between atoms: C_8  and  N_9 
REMARK    5  A    between atoms: N_9  and  C_10 
ROOT
HETATM    1  C   LIG     1      16.680  32.589  15.453  1.00  0.00     0.366 C 
HETATM    2  N   LIG     1      16.098  31.984  14.290  1.00  0.00    -0.303 N 
HETATM    3  O   LIG     1      17.600  33.437  15.306  1.00  0.00    -0.238 OA
HETATM    4  H   LIG     1      16.274  32.440  13.366  1.00  0.00     0.171 HD
ENDROOT
BRANCH   1   5
HETATM    5  O   LIG     1      16.198  32.263  16.731  1.00  0.00    -0.289 OA
BRANCH   5   6
HETATM    6  C   LIG     1      15.548  33.155  17.648  1.00  0.00     0.221 C 
HETATM    7  C   LIG     1      14.597  34.119  16.929  1.00  0.00     0.050 C 
BRANCH   6   8
HETATM    8  C   LIG     1      14.845  32.407  18.761  1.00  0.00     0.246 C 
HETATM    9  O   LIG     1      14.148  31.395  18.484  1.00  0.00    -0.271 OA
HETATM   10  N   LIG     1      14.902  32.846  20.130  1.00  0.00    -0.359 N 
HETATM   11  H   LIG     1      14.328  32.316  20.827  1.00  0.00     0.162 HD
BRANCH  10  12
HETATM   12  C   LIG     1      15.732  33.961  20.590  1.00  0.00     0.118 C 
HETATM   13  C   LIG     1      14.887  35.009  21.308  1.00  0.00     0.026 C 
ENDBRANCH  10  12
ENDBRANCH   6   8
ENDBRANCH   5   6
ENDBRANCH   1   5
BRANCH   2  14
HETATM   14  C   LIG     1      15.199  30.864  14.338  1.00  0.00     0.036 A 
HETATM   15  C   LIG     1      15.476  29.669  13.648  1.00  0.00     0.029 A 
HETATM   16  C   LIG     1      14.574  28.603  13.694  1.00  0.00     0.002 A 
HETATM   17  C   LIG     1      13.382  28.724  14.415  1.00  0.00     0.000 A 
HETATM   18  C   LIG     1      13.088  29.916  15.082  1.00  0.00     0.002 A 
HETATM   19  C   LIG     1      13.988  30.984  15.038  1.00  0.00     0.029 A 
ENDBRANCH   2  14
TORSDOF 5
ENDMDL
MODEL 10
REMARK VINA RESULT:      -6.5      2.832      4.888
REMARK  5 active torsions:
REMARK  status: ('A' for Active; 'I' for Inactive)
REMARK    1  A    between atoms: C_2  and  C_6 
REMARK       I    between atoms: C_2  and  N_3 
REMARK    2  A    between atoms: N_3  and  C_4 
REMARK    3  A    between atoms: C_6  and  O_7 
REMARK    4  A    between atoms: O_7  and  C_8 
REMARK       I    between atoms: C_8  and  N_9 
REMARK    5  A    between atoms: N_9  and  C_10 
ROOT
HETATM    1  C   LIG     1      17.096  35.618  22.722  1.00  0.00     0.366 C 
HETATM    2  N   LIG     1      17.570  36.968  22.619  1.00  0.00    -0.303 N 
HETATM    3  O   LIG     1      16.870  35.135  23.863  1.00  0.00    -0.238 OA
HETATM    4  H   LIG     1      17.473  37.582  23.460  1.00  0.00     0.171 HD
ENDROOT
BRANCH   1   5
HETATM    5  O   LIG     1      16.855  34.867  21.560  1.00  0.00    -0.289 OA
BRANCH   5   6
HETATM    6  C   LIG     1      15.574  34.600  20.970  1.00  0.00     0.221 C 
HETATM    7  C   LIG     1      14.578  35.735  21.233  1.00  0.00     0.050 C 
BRANCH   6   8
HETATM    8  C   LIG     1      15.687  34.290  19.492  1.00  0.00     0.246 C 
HETATM    9  O   LIG     1      15.653  35.231  18.657  1.00  0.00    -0.271 OA
HETATM   10  N   LIG     1      15.779  32.941  19.001  1.00  0.00    -0.359 N 
HETATM   11  H   LIG     1      15.779  32.808  17.963  1.00  0.00     0.162 HD
BRANCH  10  12
HETATM   12  C   LIG     1      15.900  31.768  19.870  1.00  0.00     0.118 C 
HETATM   13  C   LIG     1      14.582  31.003  19.940  1.00  0.00     0.026 C 
ENDBRANCH  10  12
ENDBRANCH   6   8
ENDBRANCH   5   6
ENDBRANCH   1   5
BRANCH   2  14
HETATM   14  C   LIG     1      18.056  37.552  21.399  1.00  0.00     0.036 A 
HETATM   15  C   LIG     1      18.431  36.756  20.302  1.00  0.00     0.029 A 
HETATM   16  C   LIG     1      18.923  37.349  19.135  1.00  0.00     0.002 A 
HETATM   17  C   LIG     1      19.058  38.738  19.059  1.00  0.00     0.000 A 
HETATM   18  C   LIG     1      18.712  39.535  20.153  1.00  0.00     0.002 A 
HETATM   19  C   LIG     1      18.220  38.945  21.322  1.00  0.00     0.029 A 
ENDBRANCH   2  14
TORSDOF 5
ENDMDL
MODEL 11
REMARK VINA RESULT:      -6.4      3.641      5.609
REMARK  5 active torsions:
REMARK  status: ('A' for Active; 'I' for Inactive)
REMARK    1  A    between atoms: C_2  and  C_6 
REMARK       I    between atoms: C_2  and  N_3 
REMARK    2  A    between atoms: N_3  and  C_4 
REMARK    3  A    between atoms: C_6  and  O_7 
REMARK    4  A    between atoms: O_7  and  C_8 
REMARK       I    between atoms: C_8  and  N_9 
REMARK    5  A    between atoms: N_9  and  C_10 
ROOT
HETATM    1  C   LIG     1      15.453  34.787  21.029  1.00  0.00     0.366 C 
HETATM    2  N   LIG     1      15.963  35.954  21.687  1.00  0.00    -0.303 N 
HETATM    3  O   LIG     1      14.623  34.057  21.634  1.00  0.00    -0.238 OA
HETATM    4  H   LIG     1      15.452  36.298  22.531  1.00  0.00     0.171 HD
ENDROOT
BRANCH   1   5
HETATM    5  O   LIG     1      15.849  34.491  19.714  1.00  0.00    -0.289 OA
BRANCH   5   6
HETATM    6  C   LIG     1      15.060  33.825  18.718  1.00  0.00     0.221 C 
HETATM    7  C   LIG     1      15.441  34.266  17.300  1.00  0.00     0.050 C 
BRANCH   6   8
HETATM    8  C   LIG     1      15.117  32.319  18.866  1.00  0.00     0.246 C 
HETATM    9  O   LIG     1      15.928  31.807  19.682  1.00  0.00    -0.271 OA
HETATM   10  N   LIG     1      14.308  31.442  18.062  1.00  0.00    -0.359 N 
HETATM   11  H   LIG     1      14.461  30.413  18.173  1.00  0.00     0.162 HD
BRANCH  10  12
HETATM   12  C   LIG     1      13.279  31.913  17.132  1.00  0.00     0.118 C 
HETATM   13  C   LIG     1      12.941  30.839  16.103  1.00  0.00     0.026 C 
ENDBRANCH  10  12
ENDBRANCH   6   8
ENDBRANCH   5   6
ENDBRANCH   1   5
BRANCH   2  14
HETATM   14  C   LIG     1      17.058  36.738  21.185  1.00  0.00     0.036 A 
HETATM   15  C   LIG     1      17.897  36.259  20.162  1.00  0.00     0.029 A 
HETATM   16  C   LIG     1      18.969  37.034  19.709  1.00  0.00     0.002 A 
HETATM   17  C   LIG     1      19.221  38.284  20.281  1.00  0.00     0.000 A 
HETATM   18  C   LIG     1      18.408  38.756  21.314  1.00  0.00     0.002 A 
HETATM   19  C   LIG     1      17.336  37.984  21.770  1.00  0.00     0.029 A 
ENDBRANCH   2  14
TORSDOF 5
ENDMDL
MODEL 12
REMARK VINA RESULT:      -6.3      1.832      5.296
REMARK  5 active torsions:
REMARK  status: ('A' for Active; 'I' for Inactive)
REMARK    1  A    between atoms: C_2  and  C_6 
REMARK       I    between atoms: C_2  and  N_3 
REMARK    2  A    between atoms: N_3  and  C_4 
REMARK    3  A    between atoms: C_6  and  O_7 
REMARK    4  A    between atoms: O_7  and  C_8 
REMARK       I    between atoms: C_8  and  N_9 
REMARK    5  A    between atoms: N_9  and  C_10 
ROOT
HETATM    1  C   LIG     1      16.791  35.269  21.794  1.00  0.00     0.366 C 
HETATM    2  N   LIG     1      17.151  35.843  20.530  1.00  0.00    -0.303 N 
HETATM    3  O   LIG     1      15.795  34.500  21.855  1.00  0.00    -0.238 OA
HETATM    4  H   LIG     1      16.739  35.417  19.669  1.00  0.00     0.171 HD
ENDROOT
BRANCH   1   5
HETATM    5  O   LIG     1      17.568  35.536  22.934  1.00  0.00    -0.289 OA
BRANCH   5   6
HETATM    6  C   LIG     1      17.078  35.749  24.266  1.00  0.00     0.221 C 
HETATM    7  C   LIG     1      17.648  34.726  25.254  1.00  0.00     0.050 C 
BRANCH   6   8
HETATM    8  C   LIG     1      17.318  37.169  24.735  1.00  0.00     0.246 C 
HETATM    9  O   LIG     1      18.264  37.407  25.531  1.00  0.00    -0.271 OA
HETATM   10  N   LIG     1      16.464  38.257  24.341  1.00  0.00    -0.359 N 
HETATM   11  H   LIG     1      16.653  39.194  24.768  1.00  0.00     0.162 HD
BRANCH  10  12
HETATM   12  C   LIG     1      15.379  38.124  23.367  1.00  0.00     0.118 C 
HETATM   13  C   LIG     1      15.455  39.224  22.312  1.00  0.00     0.026 C 
ENDBRANCH  10  12
ENDBRANCH   6   8
ENDBRANCH   5   6
ENDBRANCH   1   5
BRANCH   2  14
HETATM   14  C   LIG     1      18.127  36.887  20.376  1.00  0.00     0.036 A 
HETATM   15  C   LIG     1      19.211  36.753  19.489  1.00  0.00     0.029 A 
HETATM   16  C   LIG     1      20.159  37.775  19.375  1.00  0.00     0.002 A 
HETATM   17  C   LIG     1      20.041  38.929  20.154  1.00  0.00     0.000 A 
HETATM   18  C   LIG     1      18.981  39.060  21.055  1.00  0.00     0.002 A 
HETATM   19  C   LIG     1      18.032  38.040  21.172  1.00  0.00     0.029 A 
ENDBRANCH   2  14
TORSDOF 5
ENDMDL
MODEL 13
REMARK VINA RESULT:      -5.9      4.048      7.551
REMARK  5 active torsions:
REMARK  status: ('A' for Active; 'I' for Inactive)
REMARK    1  A    between atoms: C_2  and  C_6 
REMARK       I    between atoms: C_2  and  N_3 
REMARK    2  A    between atoms: N_3  and  C_4 
REMARK    3  A    between atoms: C_6  and  O_7 
REMARK    4  A    between atoms: O_7  and  C_8 
REMARK       I    between atoms: C_8  and  N_9 
REMARK    5  A    between atoms: N_9  and  C_10 
ROOT
HETATM    1  C   LIG     1      14.819  33.000  20.444  1.00  0.00     0.366 C 
HETATM    2  N   LIG     1      14.299  31.982  19.578  1.00  0.00    -0.303 N 
HETATM    3  O   LIG     1      14.392  33.074  21.627  1.00  0.00    -0.238 OA
HETATM    4  H   LIG     1      13.779  31.190  20.018  1.00  0.00     0.171 HD
ENDROOT
BRANCH   1   5
HETATM    5  O   LIG     1      15.818  33.873  19.982  1.00  0.00    -0.289 OA
BRANCH   5   6
HETATM    6  C   LIG     1      15.955  35.261  20.317  1.00  0.00     0.221 C 
HETATM    7  C   LIG     1      14.673  35.830  20.933  1.00  0.00     0.050 C 
BRANCH   6   8
HETATM    8  C   LIG     1      17.157  35.512  21.204  1.00  0.00     0.246 C 
HETATM    9  O   LIG     1      17.177  35.035  22.369  1.00  0.00    -0.271 OA
HETATM   10  N   LIG     1      18.264  36.326  20.777  1.00  0.00    -0.359 N 
HETATM   11  H   LIG     1      19.020  36.511  21.477  1.00  0.00     0.162 HD
BRANCH  10  12
HETATM   12  C   LIG     1      18.393  36.875  19.426  1.00  0.00     0.118 C 
HETATM   13  C   LIG     1      19.322  38.085  19.415  1.00  0.00     0.026 C 
ENDBRANCH  10  12
ENDBRANCH   6   8
ENDBRANCH   5   6
ENDBRANCH   1   5
BRANCH   2  14
HETATM   14  C   LIG     1      14.551  31.931  18.164  1.00  0.00     0.036 A 
HETATM   15  C   LIG     1      15.505  32.769  17.557  1.00  0.00     0.029 A 
HETATM   16  C   LIG     1      15.715  32.714  16.176  1.00  0.00     0.002 A 
HETATM   17  C   LIG     1      14.966  31.836  15.388  1.00  0.00     0.000 A 
HETATM   18  C   LIG     1      13.999  31.019  15.979  1.00  0.00     0.002 A 
HETATM   19  C   LIG     1      13.787  31.071  17.359  1.00  0.00     0.029 A 
ENDBRANCH   2  14
TORSDOF 5
ENDMDL
MODEL 14
REMARK VINA RESULT:      -5.8      1.923      3.403
REMARK  5 active torsions:
REMARK  status: ('A' for Active; 'I' for Inactive)
REMARK    1  A    between atoms: C_2  and  C_6 
REMARK       I    between atoms: C_2  and  N_3 
REMARK    2  A    between atoms: N_3  and  C_4 
REMARK    3  A    between atoms: C_6  and  O_7 
REMARK    4  A    between atoms: O_7  and  C_8 
REMARK       I    between atoms: C_8  and  N_9 
REMARK    5  A    between atoms: N_9  and  C_10 
ROOT
HETATM    1  C   LIG     1      16.825  35.888  21.107  1.00  0.00     0.366 C 
HETATM    2  N   LIG     1      16.445  35.319  22.367  1.00  0.00    -0.303 N 
HETATM    3  O   LIG     1      16.556  35.262  20.047  1.00  0.00    -0.238 OA
HETATM    4  H   LIG     1      15.747  34.541  22.358  1.00  0.00     0.171 HD
ENDROOT
BRANCH   1   5
HETATM    5  O   LIG     1      17.453  37.144  21.063  1.00  0.00    -0.289 OA
BRANCH   5   6
HETATM    6  C   LIG     1      18.654  37.470  20.349  1.00  0.00     0.221 C 
HETATM    7  C   LIG     1      18.783  36.665  19.052  1.00  0.00     0.050 C 
BRANCH   6   8
HETATM    8  C   LIG     1      18.774  38.958  20.094  1.00  0.00     0.246 C 
HETATM    9  O   LIG     1      18.898  39.376  18.913  1.00  0.00    -0.271 OA
HETATM   10  N   LIG     1      18.803  39.916  21.167  1.00  0.00    -0.359 N 
HETATM   11  H   LIG     1      18.963  40.918  20.911  1.00  0.00     0.162 HD
BRANCH  10  12
HETATM   12  C   LIG     1      18.596  39.564  22.573  1.00  0.00     0.118 C 
HETATM   13  C   LIG     1      19.899  39.101  23.218  1.00  0.00     0.026 C 
ENDBRANCH  10  12
ENDBRANCH   6   8
ENDBRANCH   5   6
ENDBRANCH   1   5
BRANCH   2  14
HETATM   14  C   LIG     1      16.879  35.832  23.638  1.00  0.00     0.036 A 
HETATM   15  C   LIG     1      16.737  37.193  23.968  1.00  0.00     0.029 A 
HETATM   16  C   LIG     1      17.187  37.669  25.202  1.00  0.00     0.002 A 
HETATM   17  C   LIG     1      17.796  36.798  26.110  1.00  0.00     0.000 A 
HETATM   18  C   LIG     1      17.963  35.451  25.780  1.00  0.00     0.002 A 
HETATM   19  C   LIG     1      17.514  34.971  24.546  1.00  0.00     0.029 A 
ENDBRANCH   2  14
TORSDOF 5
ENDMDL
MODEL 15
REMARK VINA RESULT:      -5.8      8.845     11.403
REMARK  5 active torsions:
REMARK  status: ('A' for Active; 'I' for Inactive)
REMARK    1  A    between atoms: C_2  and  C_6 
REMARK       I    between atoms: C_2  and  N_3 
REMARK    2  A    between atoms: N_3  and  C_4 
REMARK    3  A    between atoms: C_6  and  O_7 
REMARK    4  A    between atoms: O_7  and  C_8 
REMARK       I    between atoms: C_8  and  N_9 
REMARK    5  A    between atoms: N_9  and  C_10 
ROOT
HETATM    1  C   LIG     1      17.562  34.047  14.738  1.00  0.00     0.366 C 
HETATM    2  N   LIG     1      18.220  34.650  13.616  1.00  0.00    -0.303 N 
HETATM    3  O   LIG     1      16.904  34.778  15.526  1.00  0.00    -0.238 OA
HETATM    4  H   LIG     1      17.933  35.618  13.347  1.00  0.00     0.171 HD
ENDROOT
BRANCH   1   5
HETATM    5  O   LIG     1      17.623  32.657  14.926  1.00  0.00    -0.289 OA
BRANCH   5   6
HETATM    6  C   LIG     1      16.505  31.765  15.046  1.00  0.00     0.221 C 
HETATM    7  C   LIG     1      15.549  32.196  16.164  1.00  0.00     0.050 C 
BRANCH   6   8
HETATM    8  C   LIG     1      15.778  31.589  13.729  1.00  0.00     0.246 C 
HETATM    9  O   LIG     1      15.761  32.536  12.900  1.00  0.00    -0.271 OA
HETATM   10  N   LIG     1      15.056  30.386  13.412  1.00  0.00    -0.359 N 
HETATM   11  H   LIG     1      14.519  30.373  12.513  1.00  0.00     0.162 HD
BRANCH  10  12
HETATM   12  C   LIG     1      15.059  29.191  14.258  1.00  0.00     0.118 C 
HETATM   13  C   LIG     1      15.436  27.953  13.451  1.00  0.00     0.026 C 
ENDBRANCH  10  12
ENDBRANCH   6   8
ENDBRANCH   5   6
ENDBRANCH   1   5
BRANCH   2  14
HETATM   14  C   LIG     1      19.161  33.959  12.777  1.00  0.00     0.036 A 
HETATM   15  C   LIG     1      20.549  34.125  12.938  1.00  0.00     0.029 A 
HETATM   16  C   LIG     1      21.441  33.458  12.094  1.00  0.00     0.002 A 
HETATM   17  C   LIG     1      20.958  32.633  11.074  1.00  0.00     0.000 A 
HETATM   18  C   LIG     1      19.581  32.482  10.891  1.00  0.00     0.002 A 
HETATM   19  C   LIG     1      18.686  33.148  11.734  1.00  0.00     0.029 A 
ENDBRANCH   2  14
TORSDOF 5
ENDMDL
MODEL 16
REMARK VINA RESULT:      -5.7      3.223      6.601
REMARK  5 active torsions:
REMARK  status: ('A' for Active; 'I' for Inactive)
REMARK    1  A    between atoms: C_2  and  C_6 
REMARK       I    between atoms: C_2  and  N_3 
REMARK    2  A    between atoms: N_3  and  C_4 
REMARK    3  A    between atoms: C_6  and  O_7 
REMARK    4  A    between atoms: O_7  and  C_8 
REMARK       I    between atoms: C_8  and  N_9 
REMARK    5  A    between atoms: N_9  and  C_10 
ROOT
HETATM    1  C   LIG     1      15.216  34.417  20.953  1.00  0.00     0.366 C 
HETATM    2  N   LIG     1      14.808  33.308  20.140  1.00  0.00    -0.303 N 
HETATM    3  O   LIG     1      14.789  34.498  22.136  1.00  0.00    -0.238 OA
HETATM    4  H   LIG     1      14.382  32.484  20.622  1.00  0.00     0.171 HD
ENDROOT
BRANCH   1   5
HETATM    5  O   LIG     1      16.109  35.373  20.441  1.00  0.00    -0.289 OA
BRANCH   5   6
HETATM    6  C   LIG     1      17.274  35.888  21.102  1.00  0.00     0.221 C 
HETATM    7  C   LIG     1      18.244  36.547  20.116  1.00  0.00     0.050 C 
BRANCH   6   8
HETATM    8  C   LIG     1      16.911  36.825  22.236  1.00  0.00     0.246 C 
HETATM    9  O   LIG     1      16.589  38.015  21.978  1.00  0.00    -0.271 OA
HETATM   10  N   LIG     1      16.974  36.416  23.613  1.00  0.00    -0.359 N 
HETATM   11  H   LIG     1      16.780  37.145  24.339  1.00  0.00     0.162 HD
BRANCH  10  12
HETATM   12  C   LIG     1      17.264  35.045  24.039  1.00  0.00     0.118 C 
HETATM   13  C   LIG     1      17.513  34.983  25.543  1.00  0.00     0.026 C 
ENDBRANCH  10  12
ENDBRANCH   6   8
ENDBRANCH   5   6
ENDBRANCH   1   5
BRANCH   2  14
HETATM   14  C   LIG     1      15.058  33.219  18.728  1.00  0.00     0.036 A 
HETATM   15  C   LIG     1      15.380  34.357  17.966  1.00  0.00     0.029 A 
HETATM   16  C   LIG     1      15.596  34.246  16.589  1.00  0.00     0.002 A 
HETATM   17  C   LIG     1      15.479  33.003  15.960  1.00  0.00     0.000 A 
HETATM   18  C   LIG     1      15.135  31.872  16.705  1.00  0.00     0.002 A 
HETATM   19  C   LIG     1      14.918  31.981  18.081  1.00  0.00     0.029 A 
ENDBRANCH   2  14
TORSDOF 5
ENDMDL
MODEL 17
REMARK VINA RESULT:      -5.6      2.930      5.005
REMARK  5 active torsions:
REMARK  status: ('A' for Active; 'I' for Inactive)
REMARK    1  A    between atoms: C_2  and  C_6 
REMARK       I    between atoms: C_2  and  N_3 
REMARK    2  A    between atoms: N_3  and  C_4 
REMARK    3  A    between atoms: C_6  and  O_7 
REMARK    4  A    between atoms: O_7  and  C_8 
REMARK       I    between atoms: C_8  and  N_9 
REMARK    5  A    between atoms: N_9  and  C_10 
ROOT
HETATM    1  C   LIG     1      15.886  37.157  22.056  1.00  0.00     0.366 C 
HETATM    2  N   LIG     1      16.906  38.164  22.024  1.00  0.00    -0.303 N 
HETATM    3  O   LIG     1      15.054  37.159  23.002  1.00  0.00    -0.238 OA
HETATM    4  H   LIG     1      16.779  39.003  22.634  1.00  0.00     0.171 HD
ENDROOT
BRANCH   1   5
HETATM    5  O   LIG     1      15.800  36.209  21.023  1.00  0.00    -0.289 OA
BRANCH   5   6
HETATM    6  C   LIG     1      16.132  34.816  21.117  1.00  0.00     0.221 C 
HETATM    7  C   LIG     1      17.038  34.525  22.318  1.00  0.00     0.050 C 
BRANCH   6   8
HETATM    8  C   LIG     1      14.896  33.941  21.127  1.00  0.00     0.246 C 
HETATM    9  O   LIG     1      14.007  34.134  21.998  1.00  0.00    -0.271 OA
HETATM   10  N   LIG     1      14.724  32.852  20.203  1.00  0.00    -0.359 N 
HETATM   11  H   LIG     1      13.877  32.250  20.324  1.00  0.00     0.162 HD
BRANCH  10  12
HETATM   12  C   LIG     1      15.648  32.570  19.102  1.00  0.00     0.118 C 
HETATM   13  C   LIG     1      14.894  32.404  17.786  1.00  0.00     0.026 C 
ENDBRANCH  10  12
ENDBRANCH   6   8
ENDBRANCH   5   6
ENDBRANCH   1   5
BRANCH   2  14
HETATM   14  C   LIG     1      18.024  38.139  21.122  1.00  0.00     0.036 A 
HETATM   15  C   LIG     1      18.797  39.289  20.877  1.00  0.00     0.029 A 
HETATM   16  C   LIG     1      19.866  39.242  19.978  1.00  0.00     0.002 A 
HETATM   17  C   LIG     1      20.164  38.054  19.304  1.00  0.00     0.000 A 
HETATM   18  C   LIG     1      19.386  36.914  19.522  1.00  0.00     0.002 A 
HETATM   19  C   LIG     1      18.316  36.957  20.421  1.00  0.00     0.029 A 
ENDBRANCH   2  14
TORSDOF 5
ENDMDL
MODEL 18
REMARK VINA RESULT:      -5.5      7.161     10.723
REMARK  5 active torsions:
REMARK  status: ('A' for Active; 'I' for Inactive)
REMARK    1  A    between atoms: C_2  and  C_6 
REMARK       I    between atoms: C_2  and  N_3 
REMARK    2  A    between atoms: N_3  and  C_4 
REMARK    3  A    between atoms: C_6  and  O_7 
REMARK    4  A    between atoms: O_7  and  C_8 
REMARK       I    between atoms: C_8  and  N_9 
REMARK    5  A    between atoms: N_9  and  C_10 
ROOT
HETATM    1  C   LIG     1      16.136  32.191  14.542  1.00  0.00     0.366 C 
HETATM    2  N   LIG     1      15.680  31.369  13.458  1.00  0.00    -0.303 N 
HETATM    3  O   LIG     1      16.878  33.178  14.291  1.00  0.00    -0.238 OA
HETATM    4  H   LIG     1      15.767  31.752  12.489  1.00  0.00     0.171 HD
ENDROOT
BRANCH   1   5
HETATM    5  O   LIG     1      15.724  31.914  15.855  1.00  0.00    -0.289 OA
BRANCH   5   6
HETATM    6  C   LIG     1      14.632  32.532  16.553  1.00  0.00     0.221 C 
HETATM    7  C   LIG     1      13.997  31.582  17.574  1.00  0.00     0.050 C 
BRANCH   6   8
HETATM    8  C   LIG     1      15.040  33.844  17.192  1.00  0.00     0.246 C 
HETATM    9  O   LIG     1      15.100  34.885  16.485  1.00  0.00    -0.271 OA
HETATM   10  N   LIG     1      15.417  33.933  18.577  1.00  0.00    -0.359 N 
HETATM   11  H   LIG     1      15.757  34.860  18.922  1.00  0.00     0.162 HD
BRANCH  10  12
HETATM   12  C   LIG     1      15.321  32.814  19.517  1.00  0.00     0.118 C 
HETATM   13  C   LIG     1      14.935  33.303  20.909  1.00  0.00     0.026 C 
ENDBRANCH  10  12
ENDBRANCH   6   8
ENDBRANCH   5   6
ENDBRANCH   1   5
BRANCH   2  14
HETATM   14  C   LIG     1      15.011  30.110  13.638  1.00  0.00     0.036 A 
HETATM   15  C   LIG     1      13.688  30.043  14.112  1.00  0.00     0.029 A 
HETATM   16  C   LIG     1      13.068  28.804  14.299  1.00  0.00     0.002 A 
HETATM   17  C   LIG     1      13.766  27.624  14.029  1.00  0.00     0.000 A 
HETATM   18  C   LIG     1      15.088  27.681  13.582  1.00  0.00     0.002 A 
HETATM   19  C   LIG     1      15.711  28.918  13.395  1.00  0.00     0.029 A 
ENDBRANCH   2  14
TORSDOF 5
ENDMDL
MODEL 19
REMARK VINA RESULT:      -5.5      8.736     10.805
REMARK  5 active torsions:
REMARK  status: ('A' for Active; 'I' for Inactive)
REMARK    1  A    between atoms: C_2  and  C_6 
REMARK       I    between atoms: C_2  and  N_3 
REMARK    2  A    between atoms: N_3  and  C_4 
REMARK    3  A    between atoms: C_6  and  O_7 
REMARK    4  A    between atoms: O_7  and  C_8 
REMARK       I    between atoms: C_8  and  N_9 
REMARK    5  A    between atoms: N_9  and  C_10 
ROOT
HETATM    1  C   LIG     1      16.971  34.113  15.024  1.00  0.00     0.366 C 
HETATM    2  N   LIG     1      16.207  33.289  15.914  1.00  0.00    -0.303 N 
HETATM    3  O   LIG     1      17.472  35.184  15.460  1.00  0.00    -0.238 OA
HETATM    4  H   LIG     1      16.299  33.467  16.940  1.00  0.00     0.171 HD
ENDROOT
BRANCH   1   5
HETATM    5  O   LIG     1      17.184  33.706  13.697  1.00  0.00    -0.289 OA
BRANCH   5   6
HETATM    6  C   LIG     1      18.250  34.133  12.836  1.00  0.00     0.221 C 
HETATM    7  C   LIG     1      19.046  32.946  12.283  1.00  0.00     0.050 C 
BRANCH   6   8
HETATM    8  C   LIG     1      17.752  35.035  11.725  1.00  0.00     0.246 C 
HETATM    9  O   LIG     1      16.718  35.729  11.908  1.00  0.00    -0.271 OA
HETATM   10  N   LIG     1      18.395  35.087  10.440  1.00  0.00    -0.359 N 
HETATM   11  H   LIG     1      17.945  35.679   9.703  1.00  0.00     0.162 HD
BRANCH  10  12
HETATM   12  C   LIG     1      19.641  34.385  10.128  1.00  0.00     0.118 C 
HETATM   13  C   LIG     1      20.804  35.366  10.005  1.00  0.00     0.026 C 
ENDBRANCH  10  12
ENDBRANCH   6   8
ENDBRANCH   5   6
ENDBRANCH   1   5
BRANCH   2  14
HETATM   14  C   LIG     1      15.420  32.165  15.484  1.00  0.00     0.036 A 
HETATM   15  C   LIG     1      14.369  31.661  16.272  1.00  0.00     0.029 A 
HETATM   16  C   LIG     1      13.634  30.553  15.840  1.00  0.00     0.002 A 
HETATM   17  C   LIG     1      13.950  29.931  14.629  1.00  0.00     0.000 A 
HETATM   18  C   LIG     1      15.009  30.410  13.853  1.00  0.00     0.002 A 
HETATM   19  C   LIG     1      15.746  31.517  14.282  1.00  0.00     0.029 A 
ENDBRANCH   2  14
TORSDOF 5
ENDMDL
