REMARK  5 active torsions:
REMARK  status: ('A' for Active; 'I' for Inactive)
REMARK    1  A    between atoms: C_2  and  C_6 
REMARK       I    between atoms: C_2  and  N_3 
REMARK    2  A    between atoms: N_3  and  C_4 
REMARK    3  A    between atoms: C_6  and  O_7 
REMARK    4  A    between atoms: O_7  and  C_8 
REMARK       I    between atoms: C_8  and  N_9 
REMARK    5  A    between atoms: N_9  and  C_10 
ROOT
HETATM    1  C   LIG     1      -1.037  -0.783   1.428  1.00  0.00     0.366 C 
HETATM    2  N   LIG     1      -2.425  -1.043   1.179  1.00  0.00    -0.303 N 
HETATM    3  O   LIG     1      -0.512  -1.224   2.485  1.00  0.00    -0.238 OA
HETATM    4  H   LIG     1      -2.888  -1.790   1.745  1.00  0.00     0.171 HD
ENDROOT
BRANCH   1   5
HETATM    5  O   LIG     1      -0.273  -0.079   0.483  1.00  0.00    -0.289 OA
BRANCH   5   6
HETATM    6  C   LIG     1       1.121   0.245   0.587  1.00  0.00     0.221 C 
HETATM    7  C   LIG     1       1.433   1.016   1.874  1.00  0.00     0.050 C 
BRANCH   6   8
HETATM    8  C   LIG     1       1.998  -0.982   0.447  1.00  0.00     0.246 C 
HETATM    9  O   LIG     1       1.610  -2.079   0.929  1.00  0.00    -0.271 OA
HETATM   10  N   LIG     1       3.293  -0.927  -0.176  1.00  0.00    -0.359 N 
HETATM   11  H   LIG     1       3.867  -1.802  -0.166  1.00  0.00     0.162 HD
BRANCH  10  12
HETATM   12  C   LIG     1       3.825   0.267  -0.836  1.00  0.00     0.118 C 
HETATM   13  C   LIG     1       5.233   0.015  -1.367  1.00  0.00     0.026 C 
ENDBRANCH  10  12
ENDBRANCH   6   8
ENDBRANCH   5   6
ENDBRANCH   1   5
BRANCH   2  14
HETATM   14  C   LIG     1      -3.177  -0.421   0.124  1.00  0.00     0.036 A 
HETATM   15  C   LIG     1      -2.951   0.917  -0.249  1.00  0.00     0.029 A 
HETATM   16  C   LIG     1      -3.712   1.504  -1.264  1.00  0.00     0.002 A 
HETATM   17  C   LIG     1      -4.713   0.768  -1.904  1.00  0.00     0.000 A 
HETATM   18  C   LIG     1      -4.961  -0.553  -1.523  1.00  0.00     0.002 A 
HETATM   19  C   LIG     1      -4.202  -1.143  -0.508  1.00  0.00     0.029 A 
ENDBRANCH   2  14
TORSDOF 5
