MODEL 1
REMARK VINA RESULT:      -4.9      0.000      0.000
REMARK  3 active torsions:
REMARK  status: ('A' for Active; 'I' for Inactive)
REMARK    1  A    between atoms: C_2  and  C_3 
REMARK    2  A    between atoms: C_3  and  C_4 
REMARK    3  A    between atoms: C_4  and  C_5 
ROOT
HETATM    1  C   LIG     1      17.587  37.887  25.060  1.00  0.00     0.148 C 
HETATM    2  O   LIG     1      16.897  38.698  25.735  1.00  0.00    -0.293 OA
ENDROOT
BRANCH   1   3
HETATM    3  C   LIG     1      17.230  37.690  23.640  1.00  0.00     0.040 C 
HETATM    4  C   LIG     1      17.054  38.691  22.776  1.00  0.00     0.015 C 
ENDBRANCH   1   3
BRANCH   1   5
HETATM    5  C   LIG     1      18.701  37.111  25.726  1.00  0.00     0.082 C 
BRANCH   5   6
HETATM    6  C   LIG     1      18.208  36.083  26.758  1.00  0.00     0.003 C 
HETATM    7  C   LIG     1      17.586  34.853  26.099  1.00  0.00     0.005 C 
ENDBRANCH   5   6
ENDBRANCH   1   5
TORSDOF 3
ENDMDL
MODEL 2
REMARK VINA RESULT:      -4.8      1.334      1.561
REMARK  3 active torsions:
REMARK  status: ('A' for Active; 'I' for Inactive)
REMARK    1  A    between atoms: C_2  and  C_3 
REMARK    2  A    between atoms: C_3  and  C_4 
REMARK    3  A    between atoms: C_4  and  C_5 
ROOT
HETATM    1  C   LIG     1      16.717  37.521  23.842  1.00  0.00     0.148 C 
HETATM    2  O   LIG     1      15.565  38.026  23.928  1.00  0.00    -0.293 OA
ENDROOT
BRANCH   1   3
HETATM    3  C   LIG     1      17.349  37.460  22.508  1.00  0.00     0.040 C 
HETATM    4  C   LIG     1      17.673  38.540  21.794  1.00  0.00     0.015 C 
ENDBRANCH   1   3
BRANCH   1   5
HETATM    5  C   LIG     1      17.381  36.947  25.074  1.00  0.00     0.082 C 
BRANCH   5   6
HETATM    6  C   LIG     1      17.428  35.410  25.094  1.00  0.00     0.003 C 
HETATM    7  C   LIG     1      18.227  34.871  26.280  1.00  0.00     0.005 C 
ENDBRANCH   5   6
ENDBRANCH   1   5
TORSDOF 3
ENDMDL
MODEL 3
REMARK VINA RESULT:      -4.8      0.716      3.625
REMARK  3 active torsions:
REMARK  status: ('A' for Active; 'I' for Inactive)
REMARK    1  A    between atoms: C_2  and  C_3 
REMARK    2  A    between atoms: C_3  and  C_4 
REMARK    3  A    between atoms: C_4  and  C_5 
ROOT
HETATM    1  C   LIG     1      17.447  37.531  25.186  1.00  0.00     0.148 C 
HETATM    2  O   LIG     1      17.093  38.693  25.525  1.00  0.00    -0.293 OA
ENDROOT
BRANCH   1   3
HETATM    3  C   LIG     1      18.289  36.762  26.125  1.00  0.00     0.040 C 
HETATM    4  C   LIG     1      18.188  35.443  26.297  1.00  0.00     0.015 C 
ENDBRANCH   1   3
BRANCH   1   5
HETATM    5  C   LIG     1      17.058  36.993  23.827  1.00  0.00     0.082 C 
BRANCH   5   6
HETATM    6  C   LIG     1      16.589  38.078  22.843  1.00  0.00     0.003 C 
HETATM    7  C   LIG     1      17.729  38.597  21.967  1.00  0.00     0.005 C 
ENDBRANCH   5   6
ENDBRANCH   1   5
TORSDOF 3
ENDMDL
MODEL 4
REMARK VINA RESULT:      -4.7      1.570      4.131
REMARK  3 active torsions:
REMARK  status: ('A' for Active; 'I' for Inactive)
REMARK    1  A    between atoms: C_2  and  C_3 
REMARK    2  A    between atoms: C_3  and  C_4 
REMARK    3  A    between atoms: C_4  and  C_5 
ROOT
HETATM    1  C   LIG     1      17.057  38.005  23.765  1.00  0.00     0.148 C 
HETATM    2  O   LIG     1      15.841  38.008  24.100  1.00  0.00    -0.293 OA
ENDROOT
BRANCH   1   3
HETATM    3  C   LIG     1      18.071  37.955  24.838  1.00  0.00     0.040 C 
HETATM    4  C   LIG     1      18.136  36.982  25.748  1.00  0.00     0.015 C 
ENDBRANCH   1   3
BRANCH   1   5
HETATM    5  C   LIG     1      17.435  38.110  22.304  1.00  0.00     0.082 C 
BRANCH   5   6
HETATM    6  C   LIG     1      18.392  39.273  21.994  1.00  0.00     0.003 C 
HETATM    7  C   LIG     1      19.003  39.164  20.598  1.00  0.00     0.005 C 
ENDBRANCH   5   6
ENDBRANCH   1   5
TORSDOF 3
ENDMDL
MODEL 5
REMARK VINA RESULT:      -4.4      2.275      4.103
REMARK  3 active torsions:
REMARK  status: ('A' for Active; 'I' for Inactive)
REMARK    1  A    between atoms: C_2  and  C_3 
REMARK    2  A    between atoms: C_3  and  C_4 
REMARK    3  A    between atoms: C_4  and  C_5 
ROOT
HETATM    1  C   LIG     1      17.124  35.778  24.324  1.00  0.00     0.148 C 
HETATM    2  O   LIG     1      16.969  37.017  24.506  1.00  0.00    -0.293 OA
ENDROOT
BRANCH   1   3
HETATM    3  C   LIG     1      17.490  34.948  25.490  1.00  0.00     0.040 C 
HETATM    4  C   LIG     1      18.327  35.349  26.449  1.00  0.00     0.015 C 
ENDBRANCH   1   3
BRANCH   1   5
HETATM    5  C   LIG     1      16.992  35.200  22.933  1.00  0.00     0.082 C 
BRANCH   5   6
HETATM    6  C   LIG     1      16.409  36.184  21.905  1.00  0.00     0.003 C 
HETATM    7  C   LIG     1      15.091  35.687  21.312  1.00  0.00     0.005 C 
ENDBRANCH   5   6
ENDBRANCH   1   5
TORSDOF 3
ENDMDL
MODEL 6
REMARK VINA RESULT:      -4.3      1.970      2.668
REMARK  3 active torsions:
REMARK  status: ('A' for Active; 'I' for Inactive)
REMARK    1  A    between atoms: C_2  and  C_3 
REMARK    2  A    between atoms: C_3  and  C_4 
REMARK    3  A    between atoms: C_4  and  C_5 
ROOT
HETATM    1  C   LIG     1      17.167  37.621  22.643  1.00  0.00     0.148 C 
HETATM    2  O   LIG     1      16.879  36.929  21.628  1.00  0.00    -0.293 OA
ENDROOT
BRANCH   1   3
HETATM    3  C   LIG     1      17.725  38.971  22.424  1.00  0.00     0.040 C 
HETATM    4  C   LIG     1      18.521  39.285  21.400  1.00  0.00     0.015 C 
ENDBRANCH   1   3
BRANCH   1   5
HETATM    5  C   LIG     1      16.994  37.036  24.026  1.00  0.00     0.082 C 
BRANCH   5   6
HETATM    6  C   LIG     1      17.808  37.759  25.112  1.00  0.00     0.003 C 
HETATM    7  C   LIG     1      18.460  36.786  26.092  1.00  0.00     0.005 C 
ENDBRANCH   5   6
ENDBRANCH   1   5
TORSDOF 3
ENDMDL
MODEL 7
REMARK VINA RESULT:      -4.2      2.230      3.486
REMARK  3 active torsions:
REMARK  status: ('A' for Active; 'I' for Inactive)
REMARK    1  A    between atoms: C_2  and  C_3 
REMARK    2  A    between atoms: C_3  and  C_4 
REMARK    3  A    between atoms: C_4  and  C_5 
ROOT
HETATM    1  C   LIG     1      16.894  38.111  23.006  1.00  0.00     0.148 C 
HETATM    2  O   LIG     1      16.012  39.003  22.873  1.00  0.00    -0.293 OA
ENDROOT
BRANCH   1   3
HETATM    3  C   LIG     1      17.755  38.163  24.205  1.00  0.00     0.040 C 
HETATM    4  C   LIG     1      17.334  37.849  25.432  1.00  0.00     0.015 C 
ENDBRANCH   1   3
BRANCH   1   5
HETATM    5  C   LIG     1      17.080  37.070  21.925  1.00  0.00     0.082 C 
BRANCH   5   6
HETATM    6  C   LIG     1      16.861  35.627  22.411  1.00  0.00     0.003 C 
HETATM    7  C   LIG     1      16.273  34.732  21.320  1.00  0.00     0.005 C 
ENDBRANCH   5   6
ENDBRANCH   1   5
TORSDOF 3
ENDMDL
MODEL 8
REMARK VINA RESULT:      -4.2      4.196      5.112
REMARK  3 active torsions:
REMARK  status: ('A' for Active; 'I' for Inactive)
REMARK    1  A    between atoms: C_2  and  C_3 
REMARK    2  A    between atoms: C_3  and  C_4 
REMARK    3  A    between atoms: C_4  and  C_5 
ROOT
HETATM    1  C   LIG     1      18.439  37.231  20.124  1.00  0.00     0.148 C 
HETATM    2  O   LIG     1      18.677  36.463  19.152  1.00  0.00    -0.293 OA
ENDROOT
BRANCH   1   3
HETATM    3  C   LIG     1      19.147  38.526  20.172  1.00  0.00     0.040 C 
HETATM    4  C   LIG     1      20.283  38.772  19.518  1.00  0.00     0.015 C 
ENDBRANCH   1   3
BRANCH   1   5
HETATM    5  C   LIG     1      17.498  36.785  21.221  1.00  0.00     0.082 C 
BRANCH   5   6
HETATM    6  C   LIG     1      17.222  37.868  22.277  1.00  0.00     0.003 C 
HETATM    7  C   LIG     1      15.803  37.779  22.841  1.00  0.00     0.005 C 
ENDBRANCH   5   6
ENDBRANCH   1   5
TORSDOF 3
ENDMDL
MODEL 9
REMARK VINA RESULT:      -4.2      4.212      5.862
REMARK  3 active torsions:
REMARK  status: ('A' for Active; 'I' for Inactive)
REMARK    1  A    between atoms: C_2  and  C_3 
REMARK    2  A    between atoms: C_3  and  C_4 
REMARK    3  A    between atoms: C_4  and  C_5 
ROOT
HETATM    1  C   LIG     1      17.694  36.389  20.439  1.00  0.00     0.148 C 
HETATM    2  O   LIG     1      16.887  35.635  19.830  1.00  0.00    -0.293 OA
ENDROOT
BRANCH   1   3
HETATM    3  C   LIG     1      17.257  36.978  21.721  1.00  0.00     0.040 C 
HETATM    4  C   LIG     1      17.478  38.248  22.064  1.00  0.00     0.015 C 
ENDBRANCH   1   3
BRANCH   1   5
HETATM    5  C   LIG     1      19.036  36.709  19.820  1.00  0.00     0.082 C 
BRANCH   5   6
HETATM    6  C   LIG     1      19.051  38.021  19.018  1.00  0.00     0.003 C 
HETATM    7  C   LIG     1      20.207  38.935  19.424  1.00  0.00     0.005 C 
ENDBRANCH   5   6
ENDBRANCH   1   5
TORSDOF 3
ENDMDL
MODEL 10
REMARK VINA RESULT:      -4.1      9.407     10.359
REMARK  3 active torsions:
REMARK  status: ('A' for Active; 'I' for Inactive)
REMARK    1  A    between atoms: C_2  and  C_3 
REMARK    2  A    between atoms: C_3  and  C_4 
REMARK    3  A    between atoms: C_4  and  C_5 
ROOT
HETATM    1  C   LIG     1      14.985  32.475  17.899  1.00  0.00     0.148 C 
HETATM    2  O   LIG     1      15.817  33.138  17.219  1.00  0.00    -0.293 OA
ENDROOT
BRANCH   1   3
HETATM    3  C   LIG     1      15.233  32.332  19.348  1.00  0.00     0.040 C 
HETATM    4  C   LIG     1      14.873  31.262  20.057  1.00  0.00     0.015 C 
ENDBRANCH   1   3
BRANCH   1   5
HETATM    5  C   LIG     1      13.814  31.809  17.213  1.00  0.00     0.082 C 
BRANCH   5   6
HETATM    6  C   LIG     1      14.192  31.073  15.917  1.00  0.00     0.003 C 
HETATM    7  C   LIG     1      13.019  30.284  15.336  1.00  0.00     0.005 C 
ENDBRANCH   5   6
ENDBRANCH   1   5
TORSDOF 3
ENDMDL
MODEL 11
REMARK VINA RESULT:      -4.1      5.319      6.209
REMARK  3 active torsions:
REMARK  status: ('A' for Active; 'I' for Inactive)
REMARK    1  A    between atoms: C_2  and  C_3 
REMARK    2  A    between atoms: C_3  and  C_4 
REMARK    3  A    between atoms: C_4  and  C_5 
ROOT
HETATM    1  C   LIG     1      15.365  33.867  20.738  1.00  0.00     0.148 C 
HETATM    2  O   LIG     1      14.479  33.769  21.630  1.00  0.00    -0.293 OA
ENDROOT
BRANCH   1   3
HETATM    3  C   LIG     1      15.531  32.737  19.800  1.00  0.00     0.040 C 
HETATM    4  C   LIG     1      14.934  31.554  19.955  1.00  0.00     0.015 C 
ENDBRANCH   1   3
BRANCH   1   5
HETATM    5  C   LIG     1      16.256  35.088  20.694  1.00  0.00     0.082 C 
BRANCH   5   6
HETATM    6  C   LIG     1      16.980  35.376  22.019  1.00  0.00     0.003 C 
HETATM    7  C   LIG     1      16.803  36.825  22.473  1.00  0.00     0.005 C 
ENDBRANCH   5   6
ENDBRANCH   1   5
TORSDOF 3
ENDMDL
MODEL 12
REMARK VINA RESULT:      -4.1      3.081      4.675
REMARK  3 active torsions:
REMARK  status: ('A' for Active; 'I' for Inactive)
REMARK    1  A    between atoms: C_2  and  C_3 
REMARK    2  A    between atoms: C_3  and  C_4 
REMARK    3  A    between atoms: C_4  and  C_5 
ROOT
HETATM    1  C   LIG     1      17.110  37.658  22.432  1.00  0.00     0.148 C 
HETATM    2  O   LIG     1      16.840  37.847  23.649  1.00  0.00    -0.293 OA
ENDROOT
BRANCH   1   3
HETATM    3  C   LIG     1      16.637  36.406  21.805  1.00  0.00     0.040 C 
HETATM    4  C   LIG     1      16.981  35.190  22.231  1.00  0.00     0.015 C 
ENDBRANCH   1   3
BRANCH   1   5
HETATM    5  C   LIG     1      17.945  38.670  21.680  1.00  0.00     0.082 C 
BRANCH   5   6
HETATM    6  C   LIG     1      18.669  38.089  20.455  1.00  0.00     0.003 C 
HETATM    7  C   LIG     1      19.814  38.983  19.980  1.00  0.00     0.005 C 
ENDBRANCH   5   6
ENDBRANCH   1   5
TORSDOF 3
ENDMDL
MODEL 13
REMARK VINA RESULT:      -4.1      4.394      5.002
REMARK  3 active torsions:
REMARK  status: ('A' for Active; 'I' for Inactive)
REMARK    1  A    between atoms: C_2  and  C_3 
REMARK    2  A    between atoms: C_3  and  C_4 
REMARK    3  A    between atoms: C_4  and  C_5 
ROOT
HETATM    1  C   LIG     1      17.949  36.695  20.507  1.00  0.00     0.148 C 
HETATM    2  O   LIG     1      18.261  36.442  19.311  1.00  0.00    -0.293 OA
ENDROOT
BRANCH   1   3
HETATM    3  C   LIG     1      18.242  38.047  21.027  1.00  0.00     0.040 C 
HETATM    4  C   LIG     1      17.473  38.680  21.914  1.00  0.00     0.015 C 
ENDBRANCH   1   3
BRANCH   1   5
HETATM    5  C   LIG     1      17.350  35.611  21.374  1.00  0.00     0.082 C 
BRANCH   5   6
HETATM    6  C   LIG     1      16.041  35.026  20.818  1.00  0.00     0.003 C 
HETATM    7  C   LIG     1      14.812  35.798  21.297  1.00  0.00     0.005 C 
ENDBRANCH   5   6
ENDBRANCH   1   5
TORSDOF 3
ENDMDL
MODEL 14
REMARK VINA RESULT:      -4.1      2.524      3.497
REMARK  3 active torsions:
REMARK  status: ('A' for Active; 'I' for Inactive)
REMARK    1  A    between atoms: C_2  and  C_3 
REMARK    2  A    between atoms: C_3  and  C_4 
REMARK    3  A    between atoms: C_4  and  C_5 
ROOT
HETATM    1  C   LIG     1      17.410  37.533  21.766  1.00  0.00     0.148 C 
HETATM    2  O   LIG     1      18.120  38.254  21.014  1.00  0.00    -0.293 OA
ENDROOT
BRANCH   1   3
HETATM    3  C   LIG     1      17.153  36.139  21.348  1.00  0.00     0.040 C 
HETATM    4  C   LIG     1      16.935  35.139  22.203  1.00  0.00     0.015 C 
ENDBRANCH   1   3
BRANCH   1   5
HETATM    5  C   LIG     1      16.804  38.122  23.020  1.00  0.00     0.082 C 
BRANCH   5   6
HETATM    6  C   LIG     1      17.795  38.242  24.190  1.00  0.00     0.003 C 
HETATM    7  C   LIG     1      17.439  37.311  25.349  1.00  0.00     0.005 C 
ENDBRANCH   5   6
ENDBRANCH   1   5
TORSDOF 3
ENDMDL
MODEL 15
REMARK VINA RESULT:      -4.0      9.848     10.714
REMARK  3 active torsions:
REMARK  status: ('A' for Active; 'I' for Inactive)
REMARK    1  A    between atoms: C_2  and  C_3 
REMARK    2  A    between atoms: C_3  and  C_4 
REMARK    3  A    between atoms: C_4  and  C_5 
ROOT
HETATM    1  C   LIG     1      15.412  33.200  16.433  1.00  0.00     0.148 C 
HETATM    2  O   LIG     1      15.228  34.448  16.436  1.00  0.00    -0.293 OA
ENDROOT
BRANCH   1   3
HETATM    3  C   LIG     1      16.374  32.643  15.460  1.00  0.00     0.040 C 
HETATM    4  C   LIG     1      16.019  32.132  14.280  1.00  0.00     0.015 C 
ENDBRANCH   1   3
BRANCH   1   5
HETATM    5  C   LIG     1      14.612  32.320  17.368  1.00  0.00     0.082 C 
BRANCH   5   6
HETATM    6  C   LIG     1      13.187  32.025  16.874  1.00  0.00     0.003 C 
HETATM    7  C   LIG     1      13.094  30.690  16.136  1.00  0.00     0.005 C 
ENDBRANCH   5   6
ENDBRANCH   1   5
TORSDOF 3
ENDMDL
MODEL 16
REMARK VINA RESULT:      -4.0      3.083      3.807
REMARK  3 active torsions:
REMARK  status: ('A' for Active; 'I' for Inactive)
REMARK    1  A    between atoms: C_2  and  C_3 
REMARK    2  A    between atoms: C_3  and  C_4 
REMARK    3  A    between atoms: C_4  and  C_5 
ROOT
HETATM    1  C   LIG     1      17.169  37.347  22.561  1.00  0.00     0.148 C 
HETATM    2  O   LIG     1      16.827  37.118  23.753  1.00  0.00    -0.293 OA
ENDROOT
BRANCH   1   3
HETATM    3  C   LIG     1      17.336  38.755  22.146  1.00  0.00     0.040 C 
HETATM    4  C   LIG     1      18.379  39.200  21.444  1.00  0.00     0.015 C 
ENDBRANCH   1   3
BRANCH   1   5
HETATM    5  C   LIG     1      17.337  36.197  21.593  1.00  0.00     0.082 C 
BRANCH   5   6
HETATM    6  C   LIG     1      16.250  35.117  21.719  1.00  0.00     0.003 C 
HETATM    7  C   LIG     1      14.878  35.621  21.272  1.00  0.00     0.005 C 
ENDBRANCH   5   6
ENDBRANCH   1   5
TORSDOF 3
ENDMDL
MODEL 17
REMARK VINA RESULT:      -4.0      2.407      2.902
REMARK  3 active torsions:
REMARK  status: ('A' for Active; 'I' for Inactive)
REMARK    1  A    between atoms: C_2  and  C_3 
REMARK    2  A    between atoms: C_3  and  C_4 
REMARK    3  A    between atoms: C_4  and  C_5 
ROOT
HETATM    1  C   LIG     1      17.091  35.632  23.558  1.00  0.00     0.148 C 
HETATM    2  O   LIG     1      17.102  34.754  24.464  1.00  0.00    -0.293 OA
ENDROOT
BRANCH   1   3
HETATM    3  C   LIG     1      16.961  35.179  22.157  1.00  0.00     0.040 C 
HETATM    4  C   LIG     1      17.193  35.962  21.103  1.00  0.00     0.015 C 
ENDBRANCH   1   3
BRANCH   1   5
HETATM    5  C   LIG     1      17.268  37.089  23.920  1.00  0.00     0.082 C 
BRANCH   5   6
HETATM    6  C   LIG     1      17.295  37.353  25.434  1.00  0.00     0.003 C 
HETATM    7  C   LIG     1      18.649  37.013  26.057  1.00  0.00     0.005 C 
ENDBRANCH   5   6
ENDBRANCH   1   5
TORSDOF 3
ENDMDL
MODEL 18
REMARK VINA RESULT:      -3.9      2.916      3.863
REMARK  3 active torsions:
REMARK  status: ('A' for Active; 'I' for Inactive)
REMARK    1  A    between atoms: C_2  and  C_3 
REMARK    2  A    between atoms: C_3  and  C_4 
REMARK    3  A    between atoms: C_4  and  C_5 
ROOT
HETATM    1  C   LIG     1      17.947  38.129  21.322  1.00  0.00     0.148 C 
HETATM    2  O   LIG     1      17.844  39.212  21.960  1.00  0.00    -0.293 OA
ENDROOT
BRANCH   1   3
HETATM    3  C   LIG     1      18.943  38.058  20.233  1.00  0.00     0.040 C 
HETATM    4  C   LIG     1      19.155  36.967  19.495  1.00  0.00     0.015 C 
ENDBRANCH   1   3
BRANCH   1   5
HETATM    5  C   LIG     1      17.022  36.976  21.644  1.00  0.00     0.082 C 
BRANCH   5   6
HETATM    6  C   LIG     1      16.957  36.635  23.142  1.00  0.00     0.003 C 
HETATM    7  C   LIG     1      17.055  35.132  23.399  1.00  0.00     0.005 C 
ENDBRANCH   5   6
ENDBRANCH   1   5
TORSDOF 3
ENDMDL
MODEL 19
REMARK VINA RESULT:      -3.9      9.233     10.317
REMARK  3 active torsions:
REMARK  status: ('A' for Active; 'I' for Inactive)
REMARK    1  A    between atoms: C_2  and  C_3 
REMARK    2  A    between atoms: C_3  and  C_4 
REMARK    3  A    between atoms: C_4  and  C_5 
ROOT
HETATM    1  C   LIG     1      14.482  32.118  17.778  1.00  0.00     0.148 C 
HETATM    2  O   LIG     1      13.536  31.299  17.616  1.00  0.00    -0.293 OA
ENDROOT
BRANCH   1   3
HETATM    3  C   LIG     1      15.135  32.167  19.103  1.00  0.00     0.040 C 
HETATM    4  C   LIG     1      14.889  31.293  20.081  1.00  0.00     0.015 C 
ENDBRANCH   1   3
BRANCH   1   5
HETATM    5  C   LIG     1      14.872  33.049  16.653  1.00  0.00     0.082 C 
BRANCH   5   6
HETATM    6  C   LIG     1      16.032  32.526  15.790  1.00  0.00     0.003 C 
HETATM    7  C   LIG     1      15.570  31.491  14.765  1.00  0.00     0.005 C 
ENDBRANCH   5   6
ENDBRANCH   1   5
TORSDOF 3
ENDMDL
MODEL 20
REMARK VINA RESULT:      -3.9     11.025     11.886
REMARK  3 active torsions:
REMARK  status: ('A' for Active; 'I' for Inactive)
REMARK    1  A    between atoms: C_2  and  C_3 
REMARK    2  A    between atoms: C_3  and  C_4 
REMARK    3  A    between atoms: C_4  and  C_5 
ROOT
HETATM    1  C   LIG     1      13.588  31.403  16.434  1.00  0.00     0.148 C 
HETATM    2  O   LIG     1      12.524  31.631  17.071  1.00  0.00    -0.293 OA
ENDROOT
BRANCH   1   3
HETATM    3  C   LIG     1      14.793  32.176  16.799  1.00  0.00     0.040 C 
HETATM    4  C   LIG     1      14.828  33.509  16.853  1.00  0.00     0.015 C 
ENDBRANCH   1   3
BRANCH   1   5
HETATM    5  C   LIG     1      13.584  30.407  15.296  1.00  0.00     0.082 C 
BRANCH   5   6
HETATM    6  C   LIG     1      14.876  30.413  14.463  1.00  0.00     0.003 C 
HETATM    7  C   LIG     1      15.221  29.028  13.917  1.00  0.00     0.005 C 
ENDBRANCH   5   6
ENDBRANCH   1   5
TORSDOF 3
ENDMDL
