REMARK  3 active torsions:
REMARK  status: ('A' for Active; 'I' for Inactive)
REMARK    1  A    between atoms: C_2  and  C_3 
REMARK    2  A    between atoms: C_3  and  C_4 
REMARK    3  A    between atoms: C_4  and  C_5 
ROOT
HETATM    1  C   LIG     1       0.563   0.903   0.247  1.00  0.00     0.148 C 
HETATM    2  O   LIG     1      -0.074   1.850   0.784  1.00  0.00    -0.293 OA
ENDROOT
BRANCH   1   3
HETATM    3  C   LIG     1       2.024   0.844   0.458  1.00  0.00     0.040 C 
HETATM    4  C   LIG     1       2.837   0.035  -0.223  1.00  0.00     0.015 C 
ENDBRANCH   1   3
BRANCH   1   5
HETATM    5  C   LIG     1      -0.165  -0.091  -0.630  1.00  0.00     0.082 C 
BRANCH   5   6
HETATM    6  C   LIG     1      -1.680  -0.150  -0.374  1.00  0.00     0.003 C 
HETATM    7  C   LIG     1      -2.014  -0.758   0.988  1.00  0.00     0.005 C 
ENDBRANCH   5   6
ENDBRANCH   1   5
TORSDOF 3
