REMARK  1 active torsions:
REMARK  status: ('A' for Active; 'I' for Inactive)
REMARK    1  A    between atoms: C_2  and  O_5 
ROOT
HETATM    1  C   LIG     1      -0.554   1.439   0.174  1.00  0.00     0.045 C 
HETATM    2  C   LIG     1      -0.272  -0.037  -0.186  1.00  0.00     0.049 C 
HETATM    3  C   LIG     1      -0.320  -0.921   1.085  1.00  0.00     0.045 C 
HETATM    4  C   LIG     1      -1.385  -0.515  -1.135  1.00  0.00     0.045 C 
ENDROOT
BRANCH   2   5
HETATM    5  O   LIG     1       0.951  -0.163  -0.912  1.00  0.00    -0.386 OA
HETATM    6  C   LIG     1       2.113  -0.004  -0.121  1.00  0.00     0.202 C 
ENDBRANCH   2   5
TORSDOF 1
