MODEL 1
REMARK VINA RESULT:      -3.8      0.000      0.000
REMARK  1 active torsions:
REMARK  status: ('A' for Active; 'I' for Inactive)
REMARK    1  A    between atoms: C_2  and  O_5 
ROOT
HETATM    1  C   LIG     1      17.142  36.085  23.452  1.00  0.00     0.045 C 
HETATM    2  C   LIG     1      16.687  37.561  23.397  1.00  0.00     0.049 C 
HETATM    3  C   LIG     1      17.710  38.411  22.603  1.00  0.00     0.045 C 
HETATM    4  C   LIG     1      15.345  37.617  22.647  1.00  0.00     0.045 C 
ENDROOT
BRANCH   2   5
HETATM    5  O   LIG     1      16.432  38.068  24.707  1.00  0.00    -0.386 OA
HETATM    6  C   LIG     1      17.435  37.755  25.655  1.00  0.00     0.202 C 
ENDBRANCH   2   5
TORSDOF 1
ENDMDL
MODEL 2
REMARK VINA RESULT:      -3.7      0.122      1.802
REMARK  1 active torsions:
REMARK  status: ('A' for Active; 'I' for Inactive)
REMARK    1  A    between atoms: C_2  and  O_5 
ROOT
HETATM    1  C   LIG     1      15.365  37.702  22.665  1.00  0.00     0.045 C 
HETATM    2  C   LIG     1      16.663  37.555  23.490  1.00  0.00     0.049 C 
HETATM    3  C   LIG     1      17.124  36.076  23.512  1.00  0.00     0.045 C 
HETATM    4  C   LIG     1      17.761  38.381  22.797  1.00  0.00     0.045 C 
ENDROOT
BRANCH   2   5
HETATM    5  O   LIG     1      16.508  38.115  24.794  1.00  0.00    -0.386 OA
HETATM    6  C   LIG     1      17.489  37.697  25.724  1.00  0.00     0.202 C 
ENDBRANCH   2   5
TORSDOF 1
ENDMDL
MODEL 3
REMARK VINA RESULT:      -3.7      0.704      2.387
REMARK  1 active torsions:
REMARK  status: ('A' for Active; 'I' for Inactive)
REMARK    1  A    between atoms: C_2  and  O_5 
ROOT
HETATM    1  C   LIG     1      17.237  36.061  23.960  1.00  0.00     0.045 C 
HETATM    2  C   LIG     1      17.070  37.557  24.309  1.00  0.00     0.049 C 
HETATM    3  C   LIG     1      17.485  37.817  25.779  1.00  0.00     0.045 C 
HETATM    4  C   LIG     1      18.016  38.364  23.403  1.00  0.00     0.045 C 
ENDROOT
BRANCH   2   5
HETATM    5  O   LIG     1      15.750  38.010  24.010  1.00  0.00    -0.386 OA
HETATM    6  C   LIG     1      15.319  37.710  22.696  1.00  0.00     0.202 C 
ENDBRANCH   2   5
TORSDOF 1
ENDMDL
MODEL 4
REMARK VINA RESULT:      -3.6      1.916      2.709
REMARK  1 active torsions:
REMARK  status: ('A' for Active; 'I' for Inactive)
REMARK    1  A    between atoms: C_2  and  O_5 
ROOT
HETATM    1  C   LIG     1      17.546  36.358  20.810  1.00  0.00     0.045 C 
HETATM    2  C   LIG     1      16.459  36.225  21.900  1.00  0.00     0.049 C 
HETATM    3  C   LIG     1      15.152  35.659  21.293  1.00  0.00     0.045 C 
HETATM    4  C   LIG     1      16.963  35.223  22.953  1.00  0.00     0.045 C 
ENDROOT
BRANCH   2   5
HETATM    5  O   LIG     1      16.269  37.462  22.588  1.00  0.00    -0.386 OA
HETATM    6  C   LIG     1      16.730  37.458  23.925  1.00  0.00     0.202 C 
ENDBRANCH   2   5
TORSDOF 1
ENDMDL
MODEL 5
REMARK VINA RESULT:      -3.6      0.704      2.313
REMARK  1 active torsions:
REMARK  status: ('A' for Active; 'I' for Inactive)
REMARK    1  A    between atoms: C_2  and  O_5 
ROOT
HETATM    1  C   LIG     1      17.356  38.035  25.643  1.00  0.00     0.045 C 
HETATM    2  C   LIG     1      17.045  37.766  24.154  1.00  0.00     0.049 C 
HETATM    3  C   LIG     1      18.040  38.533  23.247  1.00  0.00     0.045 C 
HETATM    4  C   LIG     1      17.236  36.261  23.894  1.00  0.00     0.045 C 
ENDROOT
BRANCH   2   5
HETATM    5  O   LIG     1      15.678  38.051  23.855  1.00  0.00    -0.386 OA
HETATM    6  C   LIG     1      15.188  37.394  22.703  1.00  0.00     0.202 C 
ENDBRANCH   2   5
TORSDOF 1
ENDMDL
MODEL 6
REMARK VINA RESULT:      -3.5      3.497      4.347
REMARK  1 active torsions:
REMARK  status: ('A' for Active; 'I' for Inactive)
REMARK    1  A    between atoms: C_2  and  O_5 
ROOT
HETATM    1  C   LIG     1      15.741  33.655  20.469  1.00  0.00     0.045 C 
HETATM    2  C   LIG     1      16.120  35.089  20.902  1.00  0.00     0.049 C 
HETATM    3  C   LIG     1      14.850  35.894  21.272  1.00  0.00     0.045 C 
HETATM    4  C   LIG     1      16.998  34.987  22.162  1.00  0.00     0.045 C 
ENDROOT
BRANCH   2   5
HETATM    5  O   LIG     1      16.922  35.729  19.909  1.00  0.00    -0.386 OA
HETATM    6  C   LIG     1      17.968  36.524  20.434  1.00  0.00     0.202 C 
ENDBRANCH   2   5
TORSDOF 1
ENDMDL
MODEL 7
REMARK VINA RESULT:      -3.5      3.995      5.001
REMARK  1 active torsions:
REMARK  status: ('A' for Active; 'I' for Inactive)
REMARK    1  A    between atoms: C_2  and  O_5 
ROOT
HETATM    1  C   LIG     1      20.716  38.654  19.484  1.00  0.00     0.045 C 
HETATM    2  C   LIG     1      19.185  38.589  19.282  1.00  0.00     0.049 C 
HETATM    3  C   LIG     1      18.804  39.112  17.875  1.00  0.00     0.045 C 
HETATM    4  C   LIG     1      18.757  37.113  19.369  1.00  0.00     0.045 C 
ENDROOT
BRANCH   2   5
HETATM    5  O   LIG     1      18.500  39.264  20.337  1.00  0.00    -0.386 OA
HETATM    6  C   LIG     1      18.035  38.411  21.365  1.00  0.00     0.202 C 
ENDBRANCH   2   5
TORSDOF 1
ENDMDL
MODEL 8
REMARK VINA RESULT:      -3.4      1.833      2.961
REMARK  1 active torsions:
REMARK  status: ('A' for Active; 'I' for Inactive)
REMARK    1  A    between atoms: C_2  and  O_5 
ROOT
HETATM    1  C   LIG     1      16.792  37.396  23.950  1.00  0.00     0.045 C 
HETATM    2  C   LIG     1      16.625  36.794  22.537  1.00  0.00     0.049 C 
HETATM    3  C   LIG     1      17.579  37.494  21.537  1.00  0.00     0.045 C 
HETATM    4  C   LIG     1      17.021  35.308  22.605  1.00  0.00     0.045 C 
ENDROOT
BRANCH   2   5
HETATM    5  O   LIG     1      15.259  36.823  22.125  1.00  0.00    -0.386 OA
HETATM    6  C   LIG     1      14.872  35.724  21.322  1.00  0.00     0.202 C 
ENDBRANCH   2   5
TORSDOF 1
ENDMDL
MODEL 9
REMARK VINA RESULT:      -3.4      4.689      5.967
REMARK  1 active torsions:
REMARK  status: ('A' for Active; 'I' for Inactive)
REMARK    1  A    between atoms: C_2  and  O_5 
ROOT
HETATM    1  C   LIG     1      19.168  36.827  19.579  1.00  0.00     0.045 C 
HETATM    2  C   LIG     1      19.119  38.351  19.330  1.00  0.00     0.049 C 
HETATM    3  C   LIG     1      18.506  39.078  20.552  1.00  0.00     0.045 C 
HETATM    4  C   LIG     1      20.565  38.851  19.161  1.00  0.00     0.045 C 
ENDROOT
BRANCH   2   5
HETATM    5  O   LIG     1      18.450  38.649  18.105  1.00  0.00    -0.386 OA
HETATM    6  C   LIG     1      19.163  39.526  17.254  1.00  0.00     0.202 C 
ENDBRANCH   2   5
TORSDOF 1
ENDMDL
MODEL 10
REMARK VINA RESULT:      -3.3      2.298      2.682
REMARK  1 active torsions:
REMARK  status: ('A' for Active; 'I' for Inactive)
REMARK    1  A    between atoms: C_2  and  O_5 
ROOT
HETATM    1  C   LIG     1      17.624  36.295  20.650  1.00  0.00     0.045 C 
HETATM    2  C   LIG     1      16.710  36.101  21.881  1.00  0.00     0.049 C 
HETATM    3  C   LIG     1      16.619  37.414  22.698  1.00  0.00     0.045 C 
HETATM    4  C   LIG     1      15.297  35.762  21.374  1.00  0.00     0.045 C 
ENDROOT
BRANCH   2   5
HETATM    5  O   LIG     1      17.131  34.982  22.661  1.00  0.00    -0.386 OA
HETATM    6  C   LIG     1      17.112  35.210  24.058  1.00  0.00     0.202 C 
ENDBRANCH   2   5
TORSDOF 1
ENDMDL
MODEL 11
REMARK VINA RESULT:      -3.3      1.774      2.895
REMARK  1 active torsions:
REMARK  status: ('A' for Active; 'I' for Inactive)
REMARK    1  A    between atoms: C_2  and  O_5 
ROOT
HETATM    1  C   LIG     1      17.321  37.308  24.418  1.00  0.00     0.045 C 
HETATM    2  C   LIG     1      16.898  37.348  22.932  1.00  0.00     0.049 C 
HETATM    3  C   LIG     1      15.419  37.788  22.804  1.00  0.00     0.045 C 
HETATM    4  C   LIG     1      17.766  38.400  22.220  1.00  0.00     0.045 C 
ENDROOT
BRANCH   2   5
HETATM    5  O   LIG     1      17.172  36.104  22.287  1.00  0.00    -0.386 OA
HETATM    6  C   LIG     1      17.461  36.218  20.907  1.00  0.00     0.202 C 
ENDBRANCH   2   5
TORSDOF 1
ENDMDL
MODEL 12
REMARK VINA RESULT:      -3.3      1.516      2.676
REMARK  1 active torsions:
REMARK  status: ('A' for Active; 'I' for Inactive)
REMARK    1  A    between atoms: C_2  and  O_5 
ROOT
HETATM    1  C   LIG     1      17.790  38.517  22.400  1.00  0.00     0.045 C 
HETATM    2  C   LIG     1      16.896  37.507  23.154  1.00  0.00     0.049 C 
HETATM    3  C   LIG     1      17.034  37.701  24.685  1.00  0.00     0.045 C 
HETATM    4  C   LIG     1      15.432  37.791  22.773  1.00  0.00     0.045 C 
ENDROOT
BRANCH   2   5
HETATM    5  O   LIG     1      17.164  36.170  22.731  1.00  0.00    -0.386 OA
HETATM    6  C   LIG     1      16.831  35.911  21.381  1.00  0.00     0.202 C 
ENDBRANCH   2   5
TORSDOF 1
ENDMDL
MODEL 13
REMARK VINA RESULT:      -3.3      2.044      2.938
REMARK  1 active torsions:
REMARK  status: ('A' for Active; 'I' for Inactive)
REMARK    1  A    between atoms: C_2  and  O_5 
ROOT
HETATM    1  C   LIG     1      15.237  36.612  21.906  1.00  0.00     0.045 C 
HETATM    2  C   LIG     1      16.753  36.431  22.147  1.00  0.00     0.049 C 
HETATM    3  C   LIG     1      17.013  35.192  23.039  1.00  0.00     0.045 C 
HETATM    4  C   LIG     1      17.423  36.181  20.784  1.00  0.00     0.045 C 
ENDROOT
BRANCH   2   5
HETATM    5  O   LIG     1      17.336  37.628  22.663  1.00  0.00    -0.386 OA
HETATM    6  C   LIG     1      17.862  38.490  21.672  1.00  0.00     0.202 C 
ENDBRANCH   2   5
TORSDOF 1
ENDMDL
MODEL 14
REMARK VINA RESULT:      -3.2      7.672      8.394
REMARK  1 active torsions:
REMARK  status: ('A' for Active; 'I' for Inactive)
REMARK    1  A    between atoms: C_2  and  O_5 
ROOT
HETATM    1  C   LIG     1      13.626  32.070  17.008  1.00  0.00     0.045 C 
HETATM    2  C   LIG     1      15.018  32.740  17.030  1.00  0.00     0.049 C 
HETATM    3  C   LIG     1      15.836  32.324  15.782  1.00  0.00     0.045 C 
HETATM    4  C   LIG     1      14.813  34.264  16.973  1.00  0.00     0.045 C 
ENDROOT
BRANCH   2   5
HETATM    5  O   LIG     1      15.695  32.476  18.259  1.00  0.00    -0.386 OA
HETATM    6  C   LIG     1      14.880  31.884  19.253  1.00  0.00     0.202 C 
ENDBRANCH   2   5
TORSDOF 1
ENDMDL
MODEL 15
REMARK VINA RESULT:      -3.2      1.697      2.870
REMARK  1 active torsions:
REMARK  status: ('A' for Active; 'I' for Inactive)
REMARK    1  A    between atoms: C_2  and  O_5 
ROOT
HETATM    1  C   LIG     1      16.058  38.987  22.595  1.00  0.00     0.045 C 
HETATM    2  C   LIG     1      17.228  38.095  23.067  1.00  0.00     0.049 C 
HETATM    3  C   LIG     1      17.084  37.770  24.575  1.00  0.00     0.045 C 
HETATM    4  C   LIG     1      17.157  36.769  22.290  1.00  0.00     0.045 C 
ENDROOT
BRANCH   2   5
HETATM    5  O   LIG     1      18.487  38.683  22.737  1.00  0.00    -0.386 OA
HETATM    6  C   LIG     1      18.519  39.309  21.469  1.00  0.00     0.202 C 
ENDBRANCH   2   5
TORSDOF 1
ENDMDL
MODEL 16
REMARK VINA RESULT:      -3.1      7.960      8.838
REMARK  1 active torsions:
REMARK  status: ('A' for Active; 'I' for Inactive)
REMARK    1  A    between atoms: C_2  and  O_5 
ROOT
HETATM    1  C   LIG     1      15.251  32.525  18.855  1.00  0.00     0.045 C 
HETATM    2  C   LIG     1      15.060  32.695  17.331  1.00  0.00     0.049 C 
HETATM    3  C   LIG     1      13.804  31.923  16.856  1.00  0.00     0.045 C 
HETATM    4  C   LIG     1      14.830  34.189  17.045  1.00  0.00     0.045 C 
ENDROOT
BRANCH   2   5
HETATM    5  O   LIG     1      16.244  32.331  16.621  1.00  0.00    -0.386 OA
HETATM    6  C   LIG     1      16.212  32.645  15.242  1.00  0.00     0.202 C 
ENDBRANCH   2   5
TORSDOF 1
ENDMDL
MODEL 17
REMARK VINA RESULT:      -3.1     12.570     13.249
REMARK  1 active torsions:
REMARK  status: ('A' for Active; 'I' for Inactive)
REMARK    1  A    between atoms: C_2  and  O_5 
ROOT
HETATM    1  C   LIG     1      19.034  34.720  10.761  1.00  0.00     0.045 C 
HETATM    2  C   LIG     1      19.278  33.711  11.906  1.00  0.00     0.049 C 
HETATM    3  C   LIG     1      20.656  33.967  12.565  1.00  0.00     0.045 C 
HETATM    4  C   LIG     1      18.194  33.936  12.975  1.00  0.00     0.045 C 
ENDROOT
BRANCH   2   5
HETATM    5  O   LIG     1      19.114  32.368  11.449  1.00  0.00    -0.386 OA
HETATM    6  C   LIG     1      19.940  32.024  10.354  1.00  0.00     0.202 C 
ENDBRANCH   2   5
TORSDOF 1
ENDMDL
MODEL 18
REMARK VINA RESULT:      -3.1     12.430     13.118
REMARK  1 active torsions:
REMARK  status: ('A' for Active; 'I' for Inactive)
REMARK    1  A    between atoms: C_2  and  O_5 
ROOT
HETATM    1  C   LIG     1      20.788  32.787  11.189  1.00  0.00     0.045 C 
HETATM    2  C   LIG     1      20.696  34.279  11.582  1.00  0.00     0.049 C 
HETATM    3  C   LIG     1      21.688  34.597  12.728  1.00  0.00     0.045 C 
HETATM    4  C   LIG     1      21.104  35.118  10.359  1.00  0.00     0.045 C 
ENDROOT
BRANCH   2   5
HETATM    5  O   LIG     1      19.350  34.647  11.886  1.00  0.00    -0.386 OA
HETATM    6  C   LIG     1      18.627  33.662  12.600  1.00  0.00     0.202 C 
ENDBRANCH   2   5
TORSDOF 1
ENDMDL
MODEL 19
REMARK VINA RESULT:      -3.0     12.169     12.749
REMARK  1 active torsions:
REMARK  status: ('A' for Active; 'I' for Inactive)
REMARK    1  A    between atoms: C_2  and  O_5 
ROOT
HETATM    1  C   LIG     1      20.605  33.954  12.535  1.00  0.00     0.045 C 
HETATM    2  C   LIG     1      19.373  33.543  11.697  1.00  0.00     0.049 C 
HETATM    3  C   LIG     1      18.869  34.742  10.855  1.00  0.00     0.045 C 
HETATM    4  C   LIG     1      19.810  32.434  10.725  1.00  0.00     0.045 C 
ENDROOT
BRANCH   2   5
HETATM    5  O   LIG     1      18.359  32.971  12.523  1.00  0.00    -0.386 OA
HETATM    6  C   LIG     1      18.131  33.673  13.731  1.00  0.00     0.202 C 
ENDBRANCH   2   5
TORSDOF 1
ENDMDL
MODEL 20
REMARK VINA RESULT:      -2.9     12.924     13.671
REMARK  1 active torsions:
REMARK  status: ('A' for Active; 'I' for Inactive)
REMARK    1  A    between atoms: C_2  and  O_5 
ROOT
HETATM    1  C   LIG     1      19.185  33.931  12.242  1.00  0.00     0.045 C 
HETATM    2  C   LIG     1      20.595  33.933  11.609  1.00  0.00     0.049 C 
HETATM    3  C   LIG     1      20.669  34.967  10.459  1.00  0.00     0.045 C 
HETATM    4  C   LIG     1      21.600  34.359  12.693  1.00  0.00     0.045 C 
ENDROOT
BRANCH   2   5
HETATM    5  O   LIG     1      20.977  32.617  11.207  1.00  0.00    -0.386 OA
HETATM    6  C   LIG     1      19.970  31.908  10.512  1.00  0.00     0.202 C 
ENDBRANCH   2   5
TORSDOF 1
ENDMDL
