MODEL 1
REMARK VINA RESULT:      -4.7      0.000      0.000
REMARK  1 active torsions:
REMARK  status: ('A' for Active; 'I' for Inactive)
REMARK    1  A    between atoms: C_3  and  C_4 
ROOT
HETATM    1  C   LIG     1      17.275  37.745  25.396  1.00  0.00     0.150 C 
HETATM    2  C   LIG     1      17.700  38.192  24.066  1.00  0.00     0.062 C 
HETATM    3  N   LIG     1      18.036  38.546  23.016  1.00  0.00    -0.197 NA
ENDROOT
BRANCH   1   4
HETATM    4  C   LIG     1      18.412  37.071  26.118  1.00  0.00    -0.017 C 
HETATM    5  C   LIG     1      18.453  35.754  26.395  1.00  0.00    -0.034 C 
HETATM    6  C   LIG     1      17.365  34.791  26.015  1.00  0.00     0.036 C 
ENDBRANCH   1   4
TORSDOF 1
ENDMDL
MODEL 2
REMARK VINA RESULT:      -4.5      2.389      2.720
REMARK  1 active torsions:
REMARK  status: ('A' for Active; 'I' for Inactive)
REMARK    1  A    between atoms: C_3  and  C_4 
ROOT
HETATM    1  C   LIG     1      17.143  35.951  24.029  1.00  0.00     0.150 C 
HETATM    2  C   LIG     1      16.894  35.377  22.703  1.00  0.00     0.062 C 
HETATM    3  N   LIG     1      16.697  34.925  21.656  1.00  0.00    -0.197 NA
ENDROOT
BRANCH   1   4
HETATM    4  C   LIG     1      17.386  34.863  25.041  1.00  0.00    -0.017 C 
HETATM    5  C   LIG     1      17.987  35.059  26.229  1.00  0.00    -0.034 C 
HETATM    6  C   LIG     1      18.491  36.395  26.694  1.00  0.00     0.036 C 
ENDBRANCH   1   4
TORSDOF 1
ENDMDL
MODEL 3
REMARK VINA RESULT:      -4.3      3.167      4.909
REMARK  1 active torsions:
REMARK  status: ('A' for Active; 'I' for Inactive)
REMARK    1  A    between atoms: C_3  and  C_4 
ROOT
HETATM    1  C   LIG     1      17.442  37.834  21.941  1.00  0.00     0.150 C 
HETATM    2  C   LIG     1      16.718  37.928  23.214  1.00  0.00     0.062 C 
HETATM    3  N   LIG     1      16.147  38.002  24.218  1.00  0.00    -0.197 NA
ENDROOT
BRANCH   1   4
HETATM    4  C   LIG     1      18.201  39.105  21.668  1.00  0.00    -0.017 C 
HETATM    5  C   LIG     1      19.072  39.258  20.653  1.00  0.00    -0.034 C 
HETATM    6  C   LIG     1      19.392  38.176  19.662  1.00  0.00     0.036 C 
ENDBRANCH   1   4
TORSDOF 1
ENDMDL
MODEL 4
REMARK VINA RESULT:      -4.0     10.345     10.917
REMARK  1 active torsions:
REMARK  status: ('A' for Active; 'I' for Inactive)
REMARK    1  A    between atoms: C_3  and  C_4 
ROOT
HETATM    1  C   LIG     1      14.492  32.033  17.420  1.00  0.00     0.150 C 
HETATM    2  C   LIG     1      14.831  33.384  16.961  1.00  0.00     0.062 C 
HETATM    3  N   LIG     1      15.099  34.450  16.599  1.00  0.00    -0.197 NA
ENDROOT
BRANCH   1   4
HETATM    4  C   LIG     1      13.195  31.575  16.807  1.00  0.00    -0.017 C 
HETATM    5  C   LIG     1      13.113  30.776  15.727  1.00  0.00    -0.034 C 
HETATM    6  C   LIG     1      14.311  30.240  14.998  1.00  0.00     0.036 C 
ENDBRANCH   1   4
TORSDOF 1
ENDMDL
MODEL 5
REMARK VINA RESULT:      -4.0      4.635      5.762
REMARK  1 active torsions:
REMARK  status: ('A' for Active; 'I' for Inactive)
REMARK    1  A    between atoms: C_3  and  C_4 
ROOT
HETATM    1  C   LIG     1      19.264  38.337  19.862  1.00  0.00     0.150 C 
HETATM    2  C   LIG     1      19.140  39.031  18.576  1.00  0.00     0.062 C 
HETATM    3  N   LIG     1      19.043  39.579  17.561  1.00  0.00    -0.197 NA
ENDROOT
BRANCH   1   4
HETATM    4  C   LIG     1      18.773  36.918  19.748  1.00  0.00    -0.017 C 
HETATM    5  C   LIG     1      17.856  36.370  20.566  1.00  0.00    -0.034 C 
HETATM    6  C   LIG     1      17.204  37.111  21.698  1.00  0.00     0.036 C 
ENDBRANCH   1   4
TORSDOF 1
ENDMDL
MODEL 6
REMARK VINA RESULT:      -4.0      2.181      3.759
REMARK  1 active torsions:
REMARK  status: ('A' for Active; 'I' for Inactive)
REMARK    1  A    between atoms: C_3  and  C_4 
ROOT
HETATM    1  C   LIG     1      17.381  38.072  25.083  1.00  0.00     0.150 C 
HETATM    2  C   LIG     1      17.921  37.083  26.021  1.00  0.00     0.062 C 
HETATM    3  N   LIG     1      18.346  36.302  26.762  1.00  0.00    -0.197 NA
ENDROOT
BRANCH   1   4
HETATM    4  C   LIG     1      16.838  37.395  23.852  1.00  0.00    -0.017 C 
HETATM    5  C   LIG     1      17.085  37.806  22.595  1.00  0.00    -0.034 C 
HETATM    6  C   LIG     1      17.940  38.994  22.263  1.00  0.00     0.036 C 
ENDBRANCH   1   4
TORSDOF 1
ENDMDL
MODEL 7
REMARK VINA RESULT:      -3.9      3.691      4.374
REMARK  1 active torsions:
REMARK  status: ('A' for Active; 'I' for Inactive)
REMARK    1  A    between atoms: C_3  and  C_4 
ROOT
HETATM    1  C   LIG     1      17.186  36.773  22.048  1.00  0.00     0.150 C 
HETATM    2  C   LIG     1      16.369  37.483  23.036  1.00  0.00     0.062 C 
HETATM    3  N   LIG     1      15.723  38.044  23.816  1.00  0.00    -0.197 NA
ENDROOT
BRANCH   1   4
HETATM    4  C   LIG     1      16.967  35.286  22.147  1.00  0.00    -0.017 C 
HETATM    5  C   LIG     1      16.304  34.560  21.229  1.00  0.00    -0.034 C 
HETATM    6  C   LIG     1      15.701  35.145  19.985  1.00  0.00     0.036 C 
ENDBRANCH   1   4
TORSDOF 1
ENDMDL
MODEL 8
REMARK VINA RESULT:      -3.9     12.567     13.196
REMARK  1 active torsions:
REMARK  status: ('A' for Active; 'I' for Inactive)
REMARK    1  A    between atoms: C_3  and  C_4 
ROOT
HETATM    1  C   LIG     1      14.749  30.175  14.524  1.00  0.00     0.150 C 
HETATM    2  C   LIG     1      15.107  28.857  13.988  1.00  0.00     0.062 C 
HETATM    3  N   LIG     1      15.391  27.817  13.566  1.00  0.00    -0.197 NA
ENDROOT
BRANCH   1   4
HETATM    4  C   LIG     1      13.347  30.161  15.071  1.00  0.00    -0.017 C 
HETATM    5  C   LIG     1      12.978  30.772  16.212  1.00  0.00    -0.034 C 
HETATM    6  C   LIG     1      13.924  31.547  17.083  1.00  0.00     0.036 C 
ENDBRANCH   1   4
TORSDOF 1
ENDMDL
MODEL 9
REMARK VINA RESULT:      -3.8      2.898      4.116
REMARK  1 active torsions:
REMARK  status: ('A' for Active; 'I' for Inactive)
REMARK    1  A    between atoms: C_3  and  C_4 
ROOT
HETATM    1  C   LIG     1      17.339  36.876  21.437  1.00  0.00     0.150 C 
HETATM    2  C   LIG     1      18.197  36.718  20.258  1.00  0.00     0.062 C 
HETATM    3  N   LIG     1      18.873  36.593  19.326  1.00  0.00    -0.197 NA
ENDROOT
BRANCH   1   4
HETATM    4  C   LIG     1      17.423  38.283  21.969  1.00  0.00    -0.017 C 
HETATM    5  C   LIG     1      17.226  38.613  23.259  1.00  0.00    -0.034 C 
HETATM    6  C   LIG     1      16.898  37.614  24.331  1.00  0.00     0.036 C 
ENDBRANCH   1   4
TORSDOF 1
ENDMDL
MODEL 10
REMARK VINA RESULT:      -3.8     11.983     12.570
REMARK  1 active torsions:
REMARK  status: ('A' for Active; 'I' for Inactive)
REMARK    1  A    between atoms: C_3  and  C_4 
ROOT
HETATM    1  C   LIG     1      15.414  30.215  14.466  1.00  0.00     0.150 C 
HETATM    2  C   LIG     1      15.781  31.528  13.926  1.00  0.00     0.062 C 
HETATM    3  N   LIG     1      16.072  32.564  13.500  1.00  0.00    -0.197 NA
ENDROOT
BRANCH   1   4
HETATM    4  C   LIG     1      13.917  30.071  14.538  1.00  0.00    -0.017 C 
HETATM    5  C   LIG     1      13.170  30.482  15.580  1.00  0.00    -0.034 C 
HETATM    6  C   LIG     1      13.741  31.139  16.803  1.00  0.00     0.036 C 
ENDBRANCH   1   4
TORSDOF 1
ENDMDL
MODEL 11
REMARK VINA RESULT:      -3.7     10.571     11.099
REMARK  1 active torsions:
REMARK  status: ('A' for Active; 'I' for Inactive)
REMARK    1  A    between atoms: C_3  and  C_4 
ROOT
HETATM    1  C   LIG     1      15.527  31.855  15.231  1.00  0.00     0.150 C 
HETATM    2  C   LIG     1      16.898  32.374  15.185  1.00  0.00     0.062 C 
HETATM    3  N   LIG     1      17.980  32.784  15.148  1.00  0.00    -0.197 NA
ENDROOT
BRANCH   1   4
HETATM    4  C   LIG     1      14.869  32.211  16.538  1.00  0.00    -0.017 C 
HETATM    5  C   LIG     1      13.701  31.692  16.959  1.00  0.00    -0.034 C 
HETATM    6  C   LIG     1      12.908  30.687  16.175  1.00  0.00     0.036 C 
ENDBRANCH   1   4
TORSDOF 1
ENDMDL
MODEL 12
REMARK VINA RESULT:      -3.7     11.818     12.353
REMARK  1 active torsions:
REMARK  status: ('A' for Active; 'I' for Inactive)
REMARK    1  A    between atoms: C_3  and  C_4 
ROOT
HETATM    1  C   LIG     1      15.683  31.678  15.112  1.00  0.00     0.150 C 
HETATM    2  C   LIG     1      16.299  32.516  14.078  1.00  0.00     0.062 C 
HETATM    3  N   LIG     1      16.786  33.178  13.262  1.00  0.00    -0.197 NA
ENDROOT
BRANCH   1   4
HETATM    4  C   LIG     1      14.936  30.530  14.488  1.00  0.00    -0.017 C 
HETATM    5  C   LIG     1      13.737  30.091  14.914  1.00  0.00    -0.034 C 
HETATM    6  C   LIG     1      12.993  30.698  16.068  1.00  0.00     0.036 C 
ENDBRANCH   1   4
TORSDOF 1
ENDMDL
MODEL 13
REMARK VINA RESULT:      -3.6      3.019      3.547
REMARK  1 active torsions:
REMARK  status: ('A' for Active; 'I' for Inactive)
REMARK    1  A    between atoms: C_3  and  C_4 
ROOT
HETATM    1  C   LIG     1      16.304  35.412  22.081  1.00  0.00     0.150 C 
HETATM    2  C   LIG     1      17.182  35.890  21.008  1.00  0.00     0.062 C 
HETATM    3  N   LIG     1      17.874  36.268  20.161  1.00  0.00    -0.197 NA
ENDROOT
BRANCH   1   4
HETATM    4  C   LIG     1      17.089  35.182  23.346  1.00  0.00    -0.017 C 
HETATM    5  C   LIG     1      17.258  36.109  24.306  1.00  0.00    -0.034 C 
HETATM    6  C   LIG     1      16.680  37.493  24.236  1.00  0.00     0.036 C 
ENDBRANCH   1   4
TORSDOF 1
ENDMDL
MODEL 14
REMARK VINA RESULT:      -3.6     10.052     10.607
REMARK  1 active torsions:
REMARK  status: ('A' for Active; 'I' for Inactive)
REMARK    1  A    between atoms: C_3  and  C_4 
ROOT
HETATM    1  C   LIG     1      14.624  32.957  16.857  1.00  0.00     0.150 C 
HETATM    2  C   LIG     1      15.153  32.636  18.186  1.00  0.00     0.062 C 
HETATM    3  N   LIG     1      15.570  32.383  19.236  1.00  0.00    -0.197 NA
ENDROOT
BRANCH   1   4
HETATM    4  C   LIG     1      15.098  31.951  15.841  1.00  0.00    -0.017 C 
HETATM    5  C   LIG     1      14.368  30.900  15.425  1.00  0.00    -0.034 C 
HETATM    6  C   LIG     1      12.985  30.600  15.924  1.00  0.00     0.036 C 
ENDBRANCH   1   4
TORSDOF 1
ENDMDL
MODEL 15
REMARK VINA RESULT:      -3.6      6.580      7.268
REMARK  1 active torsions:
REMARK  status: ('A' for Active; 'I' for Inactive)
REMARK    1  A    between atoms: C_3  and  C_4 
ROOT
HETATM    1  C   LIG     1      15.685  32.923  20.123  1.00  0.00     0.150 C 
HETATM    2  C   LIG     1      14.880  32.164  19.161  1.00  0.00     0.062 C 
HETATM    3  N   LIG     1      14.244  31.564  18.402  1.00  0.00    -0.197 NA
ENDROOT
BRANCH   1   4
HETATM    4  C   LIG     1      15.626  34.397  19.818  1.00  0.00    -0.017 C 
HETATM    5  C   LIG     1      16.124  35.353  20.624  1.00  0.00    -0.034 C 
HETATM    6  C   LIG     1      16.803  35.067  21.932  1.00  0.00     0.036 C 
ENDBRANCH   1   4
TORSDOF 1
ENDMDL
MODEL 16
REMARK VINA RESULT:      -3.5     12.156     12.878
REMARK  1 active torsions:
REMARK  status: ('A' for Active; 'I' for Inactive)
REMARK    1  A    between atoms: C_3  and  C_4 
ROOT
HETATM    1  C   LIG     1      15.232  30.045  14.318  1.00  0.00     0.150 C 
HETATM    2  C   LIG     1      13.946  30.264  14.988  1.00  0.00     0.062 C 
HETATM    3  N   LIG     1      12.931  30.436  15.518  1.00  0.00    -0.197 NA
ENDROOT
BRANCH   1   4
HETATM    4  C   LIG     1      15.567  31.207  13.421  1.00  0.00    -0.017 C 
HETATM    5  C   LIG     1      16.273  32.283  13.815  1.00  0.00    -0.034 C 
HETATM    6  C   LIG     1      16.816  32.457  15.204  1.00  0.00     0.036 C 
ENDBRANCH   1   4
TORSDOF 1
ENDMDL
MODEL 17
REMARK VINA RESULT:      -3.5      9.190      9.734
REMARK  1 active torsions:
REMARK  status: ('A' for Active; 'I' for Inactive)
REMARK    1  A    between atoms: C_3  and  C_4 
ROOT
HETATM    1  C   LIG     1      15.148  33.073  16.725  1.00  0.00     0.150 C 
HETATM    2  C   LIG     1      16.109  32.483  15.788  1.00  0.00     0.062 C 
HETATM    3  N   LIG     1      16.869  32.018  15.049  1.00  0.00    -0.197 NA
ENDROOT
BRANCH   1   4
HETATM    4  C   LIG     1      14.390  31.996  17.456  1.00  0.00    -0.017 C 
HETATM    5  C   LIG     1      14.533  31.733  18.768  1.00  0.00    -0.034 C 
HETATM    6  C   LIG     1      15.467  32.487  19.669  1.00  0.00     0.036 C 
ENDBRANCH   1   4
TORSDOF 1
ENDMDL
MODEL 18
REMARK VINA RESULT:      -3.4     12.931     13.608
REMARK  1 active torsions:
REMARK  status: ('A' for Active; 'I' for Inactive)
REMARK    1  A    between atoms: C_3  and  C_4 
ROOT
HETATM    1  C   LIG     1      14.174  29.828  14.123  1.00  0.00     0.150 C 
HETATM    2  C   LIG     1      14.928  28.590  13.900  1.00  0.00     0.062 C 
HETATM    3  N   LIG     1      15.523  27.613  13.724  1.00  0.00    -0.197 NA
ENDROOT
BRANCH   1   4
HETATM    4  C   LIG     1      14.849  30.680  15.165  1.00  0.00    -0.017 C 
HETATM    5  C   LIG     1      15.700  31.683  14.882  1.00  0.00    -0.034 C 
HETATM    6  C   LIG     1      16.081  32.080  13.485  1.00  0.00     0.036 C 
ENDBRANCH   1   4
TORSDOF 1
ENDMDL
MODEL 19
REMARK VINA RESULT:      -3.4     12.014     12.643
REMARK  1 active torsions:
REMARK  status: ('A' for Active; 'I' for Inactive)
REMARK    1  A    between atoms: C_3  and  C_4 
ROOT
HETATM    1  C   LIG     1      14.569  30.556  14.706  1.00  0.00     0.150 C 
HETATM    2  C   LIG     1      14.987  29.260  14.163  1.00  0.00     0.062 C 
HETATM    3  N   LIG     1      15.316  28.236  13.735  1.00  0.00    -0.197 NA
ENDROOT
BRANCH   1   4
HETATM    4  C   LIG     1      15.704  31.545  14.651  1.00  0.00    -0.017 C 
HETATM    5  C   LIG     1      15.877  32.543  15.537  1.00  0.00    -0.034 C 
HETATM    6  C   LIG     1      14.956  32.793  16.696  1.00  0.00     0.036 C 
ENDBRANCH   1   4
TORSDOF 1
ENDMDL
MODEL 20
REMARK VINA RESULT:      -3.3     10.828     11.457
REMARK  1 active torsions:
REMARK  status: ('A' for Active; 'I' for Inactive)
REMARK    1  A    between atoms: C_3  and  C_4 
ROOT
HETATM    1  C   LIG     1      13.188  31.072  16.148  1.00  0.00     0.150 C 
HETATM    2  C   LIG     1      13.993  30.352  15.156  1.00  0.00     0.062 C 
HETATM    3  N   LIG     1      14.628  29.784  14.372  1.00  0.00    -0.197 NA
ENDROOT
BRANCH   1   4
HETATM    4  C   LIG     1      13.960  31.250  17.428  1.00  0.00    -0.017 C 
HETATM    5  C   LIG     1      14.694  32.340  17.721  1.00  0.00    -0.034 C 
HETATM    6  C   LIG     1      14.831  33.519  16.802  1.00  0.00     0.036 C 
ENDBRANCH   1   4
TORSDOF 1
ENDMDL
