REMARK  1 active torsions:
REMARK  status: ('A' for Active; 'I' for Inactive)
REMARK    1  A    between atoms: C_8  and  C_9 
ROOT
HETATM    1 CL   LIG     1      -0.540   2.821  -0.452  1.00  0.00    -0.083 Cl
HETATM    2  C   LIG     1      -1.419   1.300  -0.322  1.00  0.00     0.045 A 
HETATM    3  C   LIG     1      -2.814   1.331  -0.436  1.00  0.00     0.026 A 
HETATM    4  C   LIG     1      -3.561   0.161  -0.285  1.00  0.00     0.025 A 
HETATM    5  C   LIG     1      -2.919  -1.049  -0.011  1.00  0.00     0.035 A 
HETATM    6 CL   LIG     1      -3.860  -2.517   0.184  1.00  0.00    -0.084 Cl
HETATM    7  C   LIG     1      -1.526  -1.091   0.104  1.00  0.00     0.037 A 
HETATM    8  C   LIG     1      -0.761   0.078  -0.058  1.00  0.00    -0.003 A 
ENDROOT
BRANCH   8   9
HETATM    9  C   LIG     1       0.712  -0.005   0.056  1.00  0.00    -0.024 A 
HETATM   10  C   LIG     1       1.302  -0.540   1.214  1.00  0.00     0.014 A 
HETATM   11  C   LIG     1       2.693  -0.636   1.318  1.00  0.00     0.024 A 
HETATM   12  C   LIG     1       3.506  -0.206   0.265  1.00  0.00     0.034 A 
HETATM   13  C   LIG     1       2.927   0.316  -0.896  1.00  0.00     0.024 A 
HETATM   14 CL   LIG     1       5.251  -0.328   0.397  1.00  0.00    -0.084 Cl
HETATM   15  C   LIG     1       1.536   0.413  -1.003  1.00  0.00     0.014 A 
ENDBRANCH   8   9
TORSDOF 1
