MODEL 1
REMARK VINA RESULT:      -7.5      0.000      0.000
REMARK  1 active torsions:
REMARK  status: ('A' for Active; 'I' for Inactive)
REMARK    1  A    between atoms: C_8  and  C_9 
ROOT
HETATM    1 CL   LIG     1      16.503  38.995  22.604  1.00  0.00    -0.083 Cl
HETATM    2  C   LIG     1      16.974  37.744  23.751  1.00  0.00     0.045 A 
HETATM    3  C   LIG     1      17.367  38.139  25.036  1.00  0.00     0.026 A 
HETATM    4  C   LIG     1      17.803  37.191  25.964  1.00  0.00     0.025 A 
HETATM    5  C   LIG     1      17.856  35.840  25.612  1.00  0.00     0.035 A 
HETATM    6 CL   LIG     1      18.410  34.651  26.777  1.00  0.00    -0.084 Cl
HETATM    7  C   LIG     1      17.466  35.435  24.332  1.00  0.00     0.037 A 
HETATM    8  C   LIG     1      17.013  36.378  23.392  1.00  0.00    -0.003 A 
ENDROOT
BRANCH   8   9
HETATM    9  C   LIG     1      16.593  35.913  22.051  1.00  0.00    -0.024 A 
HETATM   10  C   LIG     1      17.334  36.277  20.913  1.00  0.00     0.014 A 
HETATM   11  C   LIG     1      16.950  35.825  19.647  1.00  0.00     0.024 A 
HETATM   12  C   LIG     1      15.830  35.000  19.506  1.00  0.00     0.034 A 
HETATM   13  C   LIG     1      15.095  34.623  20.635  1.00  0.00     0.024 A 
HETATM   14 CL   LIG     1      15.351  34.434  17.917  1.00  0.00    -0.084 Cl
HETATM   15  C   LIG     1      15.476  35.073  21.903  1.00  0.00     0.014 A 
ENDBRANCH   8   9
TORSDOF 1
ENDMDL
MODEL 2
REMARK VINA RESULT:      -6.7      2.694      3.842
REMARK  1 active torsions:
REMARK  status: ('A' for Active; 'I' for Inactive)
REMARK    1  A    between atoms: C_8  and  C_9 
ROOT
HETATM    1 CL   LIG     1      15.804  37.760  23.009  1.00  0.00    -0.083 Cl
HETATM    2  C   LIG     1      17.199  38.002  21.960  1.00  0.00     0.045 A 
HETATM    3  C   LIG     1      17.948  39.174  22.116  1.00  0.00     0.026 A 
HETATM    4  C   LIG     1      19.029  39.439  21.273  1.00  0.00     0.025 A 
HETATM    5  C   LIG     1      19.365  38.537  20.261  1.00  0.00     0.035 A 
HETATM    6 CL   LIG     1      20.720  38.874  19.199  1.00  0.00    -0.084 Cl
HETATM    7  C   LIG     1      18.623  37.362  20.097  1.00  0.00     0.037 A 
HETATM    8  C   LIG     1      17.540  37.078  20.947  1.00  0.00    -0.003 A 
ENDROOT
BRANCH   8   9
HETATM    9  C   LIG     1      16.786  35.819  20.755  1.00  0.00    -0.024 A 
HETATM   10  C   LIG     1      16.289  35.480  19.484  1.00  0.00     0.014 A 
HETATM   11  C   LIG     1      15.592  34.284  19.295  1.00  0.00     0.024 A 
HETATM   12  C   LIG     1      15.390  33.412  20.370  1.00  0.00     0.034 A 
HETATM   13  C   LIG     1      15.891  33.736  21.635  1.00  0.00     0.024 A 
HETATM   14 CL   LIG     1      14.515  31.911  20.130  1.00  0.00    -0.084 Cl
HETATM   15  C   LIG     1      16.590  34.932  21.827  1.00  0.00     0.014 A 
ENDBRANCH   8   9
TORSDOF 1
ENDMDL
MODEL 3
REMARK VINA RESULT:      -6.6      2.753      3.689
REMARK  1 active torsions:
REMARK  status: ('A' for Active; 'I' for Inactive)
REMARK    1  A    between atoms: C_8  and  C_9 
ROOT
HETATM    1 CL   LIG     1      16.790  34.721  20.903  1.00  0.00    -0.083 Cl
HETATM    2  C   LIG     1      17.090  35.640  22.376  1.00  0.00     0.045 A 
HETATM    3  C   LIG     1      16.714  35.071  23.599  1.00  0.00     0.026 A 
HETATM    4  C   LIG     1      16.879  35.781  24.789  1.00  0.00     0.025 A 
HETATM    5  C   LIG     1      17.415  37.071  24.766  1.00  0.00     0.035 A 
HETATM    6 CL   LIG     1      17.617  37.964  26.263  1.00  0.00    -0.084 Cl
HETATM    7  C   LIG     1      17.795  37.648  23.550  1.00  0.00     0.037 A 
HETATM    8  C   LIG     1      17.645  36.939  22.345  1.00  0.00    -0.003 A 
ENDROOT
BRANCH   8   9
HETATM    9  C   LIG     1      18.070  37.575  21.079  1.00  0.00    -0.024 A 
HETATM   10  C   LIG     1      18.222  38.970  21.004  1.00  0.00     0.014 A 
HETATM   11  C   LIG     1      18.640  39.572  19.814  1.00  0.00     0.024 A 
HETATM   12  C   LIG     1      18.918  38.788  18.691  1.00  0.00     0.034 A 
HETATM   13  C   LIG     1      18.782  37.397  18.760  1.00  0.00     0.024 A 
HETATM   14 CL   LIG     1      19.444  39.545  17.199  1.00  0.00    -0.084 Cl
HETATM   15  C   LIG     1      18.364  36.792  19.949  1.00  0.00     0.014 A 
ENDBRANCH   8   9
TORSDOF 1
ENDMDL
MODEL 4
REMARK VINA RESULT:      -5.8      3.042      4.161
REMARK  1 active torsions:
REMARK  status: ('A' for Active; 'I' for Inactive)
REMARK    1  A    between atoms: C_8  and  C_9 
ROOT
HETATM    1 CL   LIG     1      14.394  35.627  21.945  1.00  0.00    -0.083 Cl
HETATM    2  C   LIG     1      15.944  36.176  21.314  1.00  0.00     0.045 A 
HETATM    3  C   LIG     1      16.595  37.223  21.977  1.00  0.00     0.026 A 
HETATM    4  C   LIG     1      17.798  37.732  21.484  1.00  0.00     0.025 A 
HETATM    5  C   LIG     1      18.357  37.202  20.319  1.00  0.00     0.035 A 
HETATM    6 CL   LIG     1      19.866  37.846  19.698  1.00  0.00    -0.084 Cl
HETATM    7  C   LIG     1      17.715  36.155  19.649  1.00  0.00     0.037 A 
HETATM    8  C   LIG     1      16.509  35.626  20.141  1.00  0.00    -0.003 A 
ENDROOT
BRANCH   8   9
HETATM    9  C   LIG     1      15.865  34.509  19.416  1.00  0.00    -0.024 A 
HETATM   10  C   LIG     1      15.488  34.665  18.071  1.00  0.00     0.014 A 
HETATM   11  C   LIG     1      14.894  33.606  17.377  1.00  0.00     0.024 A 
HETATM   12  C   LIG     1      14.679  32.382  18.016  1.00  0.00     0.034 A 
HETATM   13  C   LIG     1      15.062  32.214  19.351  1.00  0.00     0.024 A 
HETATM   14 CL   LIG     1      13.935  31.054  17.144  1.00  0.00    -0.084 Cl
HETATM   15  C   LIG     1      15.656  33.271  20.047  1.00  0.00     0.014 A 
ENDBRANCH   8   9
TORSDOF 1
ENDMDL
MODEL 5
REMARK VINA RESULT:      -5.4      8.015     11.352
REMARK  1 active torsions:
REMARK  status: ('A' for Active; 'I' for Inactive)
REMARK    1  A    between atoms: C_8  and  C_9 
ROOT
HETATM    1 CL   LIG     1      16.810  35.936  11.834  1.00  0.00    -0.083 Cl
HETATM    2  C   LIG     1      18.109  34.808  11.457  1.00  0.00     0.045 A 
HETATM    3  C   LIG     1      18.950  35.106  10.379  1.00  0.00     0.026 A 
HETATM    4  C   LIG     1      19.960  34.216  10.005  1.00  0.00     0.025 A 
HETATM    5  C   LIG     1      20.131  33.018  10.702  1.00  0.00     0.035 A 
HETATM    6 CL   LIG     1      21.397  31.900  10.226  1.00  0.00    -0.084 Cl
HETATM    7  C   LIG     1      19.296  32.712  11.781  1.00  0.00     0.037 A 
HETATM    8  C   LIG     1      18.284  33.604  12.176  1.00  0.00    -0.003 A 
ENDROOT
BRANCH   8   9
HETATM    9  C   LIG     1      17.428  33.255  13.331  1.00  0.00    -0.024 A 
HETATM   10  C   LIG     1      16.490  32.214  13.226  1.00  0.00     0.014 A 
HETATM   11  C   LIG     1      15.691  31.869  14.321  1.00  0.00     0.024 A 
HETATM   12  C   LIG     1      15.827  32.556  15.531  1.00  0.00     0.034 A 
HETATM   13  C   LIG     1      16.767  33.585  15.648  1.00  0.00     0.024 A 
HETATM   14 CL   LIG     1      14.825  32.122  16.904  1.00  0.00    -0.084 Cl
HETATM   15  C   LIG     1      17.567  33.931  14.555  1.00  0.00     0.014 A 
ENDBRANCH   8   9
TORSDOF 1
ENDMDL
MODEL 6
REMARK VINA RESULT:      -4.9      6.335      8.620
REMARK  1 active torsions:
REMARK  status: ('A' for Active; 'I' for Inactive)
REMARK    1  A    between atoms: C_8  and  C_9 
ROOT
HETATM    1 CL   LIG     1      14.155  30.581  14.443  1.00  0.00    -0.083 Cl
HETATM    2  C   LIG     1      14.511  31.267  16.026  1.00  0.00     0.045 A 
HETATM    3  C   LIG     1      13.779  30.806  17.126  1.00  0.00     0.026 A 
HETATM    4  C   LIG     1      13.984  31.357  18.393  1.00  0.00     0.025 A 
HETATM    5  C   LIG     1      14.919  32.380  18.568  1.00  0.00     0.035 A 
HETATM    6 CL   LIG     1      15.172  33.075  20.159  1.00  0.00    -0.084 Cl
HETATM    7  C   LIG     1      15.657  32.847  17.476  1.00  0.00     0.037 A 
HETATM    8  C   LIG     1      15.469  32.292  16.197  1.00  0.00    -0.003 A 
ENDROOT
BRANCH   8   9
HETATM    9  C   LIG     1      16.277  32.800  15.066  1.00  0.00    -0.024 A 
HETATM   10  C   LIG     1      17.111  33.918  15.240  1.00  0.00     0.014 A 
HETATM   11  C   LIG     1      17.889  34.390  14.179  1.00  0.00     0.024 A 
HETATM   12  C   LIG     1      17.847  33.746  12.938  1.00  0.00     0.034 A 
HETATM   13  C   LIG     1      17.029  32.626  12.760  1.00  0.00     0.024 A 
HETATM   14 CL   LIG     1      18.824  34.340  11.608  1.00  0.00    -0.084 Cl
HETATM   15  C   LIG     1      16.250  32.151  13.820  1.00  0.00     0.014 A 
ENDBRANCH   8   9
TORSDOF 1
ENDMDL
MODEL 7
REMARK VINA RESULT:      -4.9      6.914      9.682
REMARK  1 active torsions:
REMARK  status: ('A' for Active; 'I' for Inactive)
REMARK    1  A    between atoms: C_8  and  C_9 
ROOT
HETATM    1 CL   LIG     1      15.976  31.095  13.029  1.00  0.00    -0.083 Cl
HETATM    2  C   LIG     1      15.878  32.085  14.483  1.00  0.00     0.045 A 
HETATM    3  C   LIG     1      14.958  31.716  15.472  1.00  0.00     0.026 A 
HETATM    4  C   LIG     1      14.803  32.499  16.618  1.00  0.00     0.025 A 
HETATM    5  C   LIG     1      15.561  33.660  16.781  1.00  0.00     0.035 A 
HETATM    6 CL   LIG     1      15.360  34.645  18.219  1.00  0.00    -0.084 Cl
HETATM    7  C   LIG     1      16.483  34.037  15.799  1.00  0.00     0.037 A 
HETATM    8  C   LIG     1      16.658  33.251  14.646  1.00  0.00    -0.003 A 
ENDROOT
BRANCH   8   9
HETATM    9  C   LIG     1      17.652  33.671  13.634  1.00  0.00    -0.024 A 
HETATM   10  C   LIG     1      19.011  33.354  13.804  1.00  0.00     0.014 A 
HETATM   11  C   LIG     1      19.951  33.734  12.842  1.00  0.00     0.024 A 
HETATM   12  C   LIG     1      19.542  34.427  11.698  1.00  0.00     0.034 A 
HETATM   13  C   LIG     1      18.191  34.735  11.514  1.00  0.00     0.024 A 
HETATM   14 CL   LIG     1      20.723  34.902  10.491  1.00  0.00    -0.084 Cl
HETATM   15  C   LIG     1      17.248  34.356  12.475  1.00  0.00     0.014 A 
ENDBRANCH   8   9
TORSDOF 1
ENDMDL
MODEL 8
REMARK VINA RESULT:      -4.9     15.242     16.141
REMARK  1 active torsions:
REMARK  status: ('A' for Active; 'I' for Inactive)
REMARK    1  A    between atoms: C_8  and  C_9 
ROOT
HETATM    1 CL   LIG     1      23.383  22.125  18.396  1.00  0.00    -0.083 Cl
HETATM    2  C   LIG     1      23.822  22.210  20.100  1.00  0.00     0.045 A 
HETATM    3  C   LIG     1      22.963  21.619  21.034  1.00  0.00     0.026 A 
HETATM    4  C   LIG     1      23.237  21.707  22.400  1.00  0.00     0.025 A 
HETATM    5  C   LIG     1      24.370  22.393  22.844  1.00  0.00     0.035 A 
HETATM    6 CL   LIG     1      24.710  22.508  24.561  1.00  0.00    -0.084 Cl
HETATM    7  C   LIG     1      25.235  22.987  21.919  1.00  0.00     0.037 A 
HETATM    8  C   LIG     1      24.976  22.895  20.540  1.00  0.00    -0.003 A 
ENDROOT
BRANCH   8   9
HETATM    9  C   LIG     1      25.920  23.522  19.588  1.00  0.00    -0.024 A 
HETATM   10  C   LIG     1      26.073  24.919  19.561  1.00  0.00     0.014 A 
HETATM   11  C   LIG     1      26.976  25.514  18.675  1.00  0.00     0.024 A 
HETATM   12  C   LIG     1      27.740  24.720  17.815  1.00  0.00     0.034 A 
HETATM   13  C   LIG     1      27.604  23.328  17.844  1.00  0.00     0.024 A 
HETATM   14 CL   LIG     1      28.874  25.468  16.705  1.00  0.00    -0.084 Cl
HETATM   15  C   LIG     1      26.701  22.731  18.729  1.00  0.00     0.014 A 
ENDBRANCH   8   9
TORSDOF 1
ENDMDL
MODEL 9
REMARK VINA RESULT:      -4.7     16.232     17.330
REMARK  1 active torsions:
REMARK  status: ('A' for Active; 'I' for Inactive)
REMARK    1  A    between atoms: C_8  and  C_9 
ROOT
HETATM    1 CL   LIG     1      27.983  25.988  35.270  1.00  0.00    -0.083 Cl
HETATM    2  C   LIG     1      27.373  27.628  35.474  1.00  0.00     0.045 A 
HETATM    3  C   LIG     1      27.065  28.062  36.769  1.00  0.00     0.026 A 
HETATM    4  C   LIG     1      26.526  29.333  36.978  1.00  0.00     0.025 A 
HETATM    5  C   LIG     1      26.284  30.178  35.892  1.00  0.00     0.035 A 
HETATM    6 CL   LIG     1      25.602  31.773  36.157  1.00  0.00    -0.084 Cl
HETATM    7  C   LIG     1      26.590  29.755  34.595  1.00  0.00     0.037 A 
HETATM    8  C   LIG     1      27.144  28.481  34.372  1.00  0.00    -0.003 A 
ENDROOT
BRANCH   8   9
HETATM    9  C   LIG     1      27.468  28.071  32.988  1.00  0.00    -0.024 A 
HETATM   10  C   LIG     1      26.617  27.195  32.293  1.00  0.00     0.014 A 
HETATM   11  C   LIG     1      26.911  26.819  30.979  1.00  0.00     0.024 A 
HETATM   12  C   LIG     1      28.053  27.319  30.345  1.00  0.00     0.034 A 
HETATM   13  C   LIG     1      28.899  28.201  31.025  1.00  0.00     0.024 A 
HETATM   14 CL   LIG     1      28.420  26.847  28.696  1.00  0.00    -0.084 Cl
HETATM   15  C   LIG     1      28.607  28.580  32.339  1.00  0.00     0.014 A 
ENDBRANCH   8   9
TORSDOF 1
ENDMDL
MODEL 10
REMARK VINA RESULT:      -4.7     15.236     16.226
REMARK  1 active torsions:
REMARK  status: ('A' for Active; 'I' for Inactive)
REMARK    1  A    between atoms: C_8  and  C_9 
ROOT
HETATM    1 CL   LIG     1      22.429  19.585  24.399  1.00  0.00    -0.083 Cl
HETATM    2  C   LIG     1      23.506  20.920  24.798  1.00  0.00     0.045 A 
HETATM    3  C   LIG     1      23.810  21.144  26.146  1.00  0.00     0.026 A 
HETATM    4  C   LIG     1      24.614  22.223  26.519  1.00  0.00     0.025 A 
HETATM    5  C   LIG     1      25.114  23.092  25.546  1.00  0.00     0.035 A 
HETATM    6 CL   LIG     1      26.119  24.451  26.017  1.00  0.00    -0.084 Cl
HETATM    7  C   LIG     1      24.816  22.877  24.197  1.00  0.00     0.037 A 
HETATM    8  C   LIG     1      24.018  21.787  23.807  1.00  0.00    -0.003 A 
ENDROOT
BRANCH   8   9
HETATM    9  C   LIG     1      23.735  21.581  22.369  1.00  0.00    -0.024 A 
HETATM   10  C   LIG     1      22.818  22.413  21.704  1.00  0.00     0.014 A 
HETATM   11  C   LIG     1      22.561  22.232  20.341  1.00  0.00     0.024 A 
HETATM   12  C   LIG     1      23.221  21.225  19.631  1.00  0.00     0.034 A 
HETATM   13  C   LIG     1      24.144  20.401  20.282  1.00  0.00     0.024 A 
HETATM   14 CL   LIG     1      22.898  21.000  17.921  1.00  0.00    -0.084 Cl
HETATM   15  C   LIG     1      24.403  20.580  21.645  1.00  0.00     0.014 A 
ENDBRANCH   8   9
TORSDOF 1
ENDMDL
MODEL 11
REMARK VINA RESULT:      -4.7     15.128     16.108
REMARK  1 active torsions:
REMARK  status: ('A' for Active; 'I' for Inactive)
REMARK    1  A    between atoms: C_8  and  C_9 
ROOT
HETATM    1 CL   LIG     1      28.285  23.203  22.304  1.00  0.00    -0.083 Cl
HETATM    2  C   LIG     1      26.547  23.166  22.019  1.00  0.00     0.045 A 
HETATM    3  C   LIG     1      25.728  22.596  23.001  1.00  0.00     0.026 A 
HETATM    4  C   LIG     1      24.350  22.493  22.799  1.00  0.00     0.025 A 
HETATM    5  C   LIG     1      23.781  22.953  21.609  1.00  0.00     0.035 A 
HETATM    6 CL   LIG     1      22.050  22.817  21.354  1.00  0.00    -0.084 Cl
HETATM    7  C   LIG     1      24.590  23.525  20.622  1.00  0.00     0.037 A 
HETATM    8  C   LIG     1      25.977  23.645  20.818  1.00  0.00    -0.003 A 
ENDROOT
BRANCH   8   9
HETATM    9  C   LIG     1      26.802  24.269  19.760  1.00  0.00    -0.024 A 
HETATM   10  C   LIG     1      27.208  23.515  18.645  1.00  0.00     0.014 A 
HETATM   11  C   LIG     1      27.973  24.105  17.634  1.00  0.00     0.024 A 
HETATM   12  C   LIG     1      28.332  25.454  17.723  1.00  0.00     0.034 A 
HETATM   13  C   LIG     1      27.921  26.214  18.823  1.00  0.00     0.024 A 
HETATM   14 CL   LIG     1      29.290  26.193  16.454  1.00  0.00    -0.084 Cl
HETATM   15  C   LIG     1      27.156  25.627  19.835  1.00  0.00     0.014 A 
ENDBRANCH   8   9
TORSDOF 1
ENDMDL
MODEL 12
REMARK VINA RESULT:      -4.6     15.431     16.656
REMARK  1 active torsions:
REMARK  status: ('A' for Active; 'I' for Inactive)
REMARK    1  A    between atoms: C_8  and  C_9 
ROOT
HETATM    1 CL   LIG     1      25.926  23.084  22.084  1.00  0.00    -0.083 Cl
HETATM    2  C   LIG     1      24.947  22.377  20.801  1.00  0.00     0.045 A 
HETATM    3  C   LIG     1      23.979  21.429  21.154  1.00  0.00     0.026 A 
HETATM    4  C   LIG     1      23.216  20.799  20.170  1.00  0.00     0.025 A 
HETATM    5  C   LIG     1      23.421  21.105  18.822  1.00  0.00     0.035 A 
HETATM    6 CL   LIG     1      22.465  20.307  17.586  1.00  0.00    -0.084 Cl
HETATM    7  C   LIG     1      24.385  22.050  18.459  1.00  0.00     0.037 A 
HETATM    8  C   LIG     1      25.151  22.702  19.441  1.00  0.00    -0.003 A 
ENDROOT
BRANCH   8   9
HETATM    9  C   LIG     1      26.153  23.707  19.023  1.00  0.00    -0.024 A 
HETATM   10  C   LIG     1      27.237  23.330  18.212  1.00  0.00     0.014 A 
HETATM   11  C   LIG     1      28.176  24.280  17.800  1.00  0.00     0.024 A 
HETATM   12  C   LIG     1      28.036  25.617  18.187  1.00  0.00     0.034 A 
HETATM   13  C   LIG     1      26.954  26.004  18.983  1.00  0.00     0.024 A 
HETATM   14 CL   LIG     1      29.215  26.808  17.669  1.00  0.00    -0.084 Cl
HETATM   15  C   LIG     1      26.013  25.055  19.397  1.00  0.00     0.014 A 
ENDBRANCH   8   9
TORSDOF 1
ENDMDL
