MODEL 1
REMARK VINA RESULT:     -10.4      0.000      0.000
REMARK  3 active torsions:
REMARK  status: ('A' for Active; 'I' for Inactive)
REMARK    1  A    between atoms: N_2  and  C_4 
REMARK    2  A    between atoms: C_4  and  C_5 
REMARK    3  A    between atoms: C_5  and  C_6 
ROOT
HETATM    1  C   LIG     1      15.896  35.077  22.198  1.00  0.00    -0.012 C 
HETATM    2  C   LIG     1      16.903  35.894  22.566  1.00  0.00    -0.016 C 
HETATM    3  C   LIG     1      17.626  36.718  21.580  1.00  0.00     0.008 A 
HETATM    4  C   LIG     1      17.498  38.104  21.653  1.00  0.00     0.080 A 
HETATM    5  C   LIG     1      18.104  38.920  20.693  1.00  0.00     0.037 A 
HETATM    6  C   LIG     1      18.874  38.347  19.677  1.00  0.00     0.003 A 
HETATM    7  C   LIG     1      19.036  36.959  19.621  1.00  0.00     0.001 A 
HETATM    8  C   LIG     1      18.415  36.143  20.571  1.00  0.00     0.015 A 
HETATM    9  O   LIG     1      16.750  38.659  22.684  1.00  0.00    -0.346 OA
HETATM   10  C   LIG     1      17.219  38.659  24.028  1.00  0.00     0.215 C 
HETATM   11  C   LIG     1      17.420  37.287  24.658  1.00  0.00    -0.023 A 
HETATM   12  C   LIG     1      17.258  36.028  24.002  1.00  0.00    -0.017 A 
HETATM   13  C   LIG     1      17.475  34.843  24.734  1.00  0.00     0.013 A 
HETATM   14  C   LIG     1      17.838  34.885  26.078  1.00  0.00     0.001 A 
HETATM   15  C   LIG     1      17.998  36.110  26.719  1.00  0.00     0.001 A 
HETATM   16  C   LIG     1      17.794  37.296  26.016  1.00  0.00     0.010 A 
ENDROOT
BRANCH   1  17
HETATM   17  C   LIG     1      15.403  34.950  20.777  1.00  0.00     0.058 C 
BRANCH  17  18
HETATM   18  C   LIG     1      15.954  33.692  20.091  1.00  0.00     0.275 C 
BRANCH  18  19
HETATM   19  N   LIG     1      14.866  32.882  19.498  1.00  0.00     0.080 N 
HETATM   20  C   LIG     1      14.837  31.526  20.076  1.00  0.00     0.309 C 
HETATM   21  C   LIG     1      15.038  32.787  18.039  1.00  0.00     0.309 C 
ENDBRANCH  18  19
ENDBRANCH  17  18
ENDBRANCH   1  17
TORSDOF 3
ENDMDL
