REMARK  3 active torsions:
REMARK  status: ('A' for Active; 'I' for Inactive)
REMARK    1  A    between atoms: N_2  and  C_4 
REMARK    2  A    between atoms: C_4  and  C_5 
REMARK    3  A    between atoms: C_5  and  C_6 
ROOT
HETATM    1  C   LIG     1       0.622  -0.314  -0.315  1.00  0.00    -0.012 C 
HETATM    2  C   LIG     1      -0.630  -0.001   0.076  1.00  0.00    -0.016 C 
HETATM    3  C   LIG     1      -1.033   1.395   0.326  1.00  0.00     0.008 A 
HETATM    4  C   LIG     1      -1.976   1.974  -0.521  1.00  0.00     0.080 A 
HETATM    5  C   LIG     1      -2.331   3.318  -0.369  1.00  0.00     0.037 A 
HETATM    6  C   LIG     1      -1.767   4.075   0.662  1.00  0.00     0.003 A 
HETATM    7  C   LIG     1      -0.847   3.488   1.538  1.00  0.00     0.001 A 
HETATM    8  C   LIG     1      -0.480   2.149   1.373  1.00  0.00     0.015 A 
HETATM    9  O   LIG     1      -2.547   1.201  -1.525  1.00  0.00    -0.346 OA
HETATM   10  C   LIG     1      -3.484   0.171  -1.230  1.00  0.00     0.215 C 
HETATM   11  C   LIG     1      -2.958  -0.979  -0.381  1.00  0.00    -0.023 A 
HETATM   12  C   LIG     1      -1.655  -1.070   0.197  1.00  0.00    -0.017 A 
HETATM   13  C   LIG     1      -1.320  -2.212   0.953  1.00  0.00     0.013 A 
HETATM   14  C   LIG     1      -2.236  -3.246   1.136  1.00  0.00     0.001 A 
HETATM   15  C   LIG     1      -3.506  -3.159   0.575  1.00  0.00     0.001 A 
HETATM   16  C   LIG     1      -3.863  -2.038  -0.172  1.00  0.00     0.010 A 
ENDROOT
BRANCH   1  17
HETATM   17  C   LIG     1       1.700   0.714  -0.557  1.00  0.00     0.058 C 
BRANCH  17  18
HETATM   18  C   LIG     1       2.979   0.080  -1.122  1.00  0.00     0.275 C 
BRANCH  18  19
HETATM   19  N   LIG     1       3.537  -0.927  -0.192  1.00  0.00     0.080 N 
HETATM   20  C   LIG     1       4.371  -0.290   0.843  1.00  0.00     0.309 C 
HETATM   21  C   LIG     1       4.343  -1.912  -0.931  1.00  0.00     0.309 C 
ENDBRANCH  18  19
ENDBRANCH  17  18
ENDBRANCH   1  17
TORSDOF 3
