MODEL 1
REMARK VINA RESULT:      -6.1      0.000      0.000
REMARK  1 active torsions:
REMARK  status: ('A' for Active; 'I' for Inactive)
REMARK    1  A    between atoms: C_2  and  C_3 
ROOT
HETATM    1  C   LIG     1      17.246  37.227  24.756  1.00  0.00    -0.015 C 
HETATM    2  C   LIG     1      18.485  37.387  25.663  1.00  0.00     0.004 C 
HETATM    3  C   LIG     1      18.452  36.366  26.808  1.00  0.00     0.000 C 
HETATM    4  C   LIG     1      18.353  34.934  26.266  1.00  0.00     0.000 C 
HETATM    5  C   LIG     1      17.133  34.770  25.349  1.00  0.00     0.000 C 
HETATM    6  C   LIG     1      17.165  35.790  24.203  1.00  0.00     0.004 C 
ENDROOT
BRANCH   1   7
HETATM    7  C   LIG     1      17.176  38.300  23.645  1.00  0.00     0.000 C 
HETATM    8  C   LIG     1      17.416  37.781  22.224  1.00  0.00     0.005 C 
ENDBRANCH   1   7
TORSDOF 1
ENDMDL
MODEL 2
REMARK VINA RESULT:      -5.9      1.208      1.580
REMARK  1 active torsions:
REMARK  status: ('A' for Active; 'I' for Inactive)
REMARK    1  A    between atoms: C_2  and  C_3 
ROOT
HETATM    1  C   LIG     1      16.964  36.345  24.080  1.00  0.00    -0.015 C 
HETATM    2  C   LIG     1      17.867  37.451  24.667  1.00  0.00     0.004 C 
HETATM    3  C   LIG     1      17.883  37.378  26.199  1.00  0.00     0.000 C 
HETATM    4  C   LIG     1      18.333  35.993  26.681  1.00  0.00     0.000 C 
HETATM    5  C   LIG     1      17.451  34.886  26.088  1.00  0.00     0.000 C 
HETATM    6  C   LIG     1      17.434  34.956  24.555  1.00  0.00     0.004 C 
ENDROOT
BRANCH   1   7
HETATM    7  C   LIG     1      16.830  36.437  22.542  1.00  0.00     0.000 C 
HETATM    8  C   LIG     1      16.705  35.093  21.819  1.00  0.00     0.005 C 
ENDBRANCH   1   7
TORSDOF 1
ENDMDL
MODEL 3
REMARK VINA RESULT:      -5.7      2.947      5.391
REMARK  1 active torsions:
REMARK  status: ('A' for Active; 'I' for Inactive)
REMARK    1  A    between atoms: C_2  and  C_3 
ROOT
HETATM    1  C   LIG     1      17.534  37.565  21.344  1.00  0.00    -0.015 C 
HETATM    2  C   LIG     1      18.288  36.563  20.445  1.00  0.00     0.004 C 
HETATM    3  C   LIG     1      18.836  37.265  19.195  1.00  0.00     0.000 C 
HETATM    4  C   LIG     1      19.741  38.443  19.578  1.00  0.00     0.000 C 
HETATM    5  C   LIG     1      19.004  39.436  20.488  1.00  0.00     0.000 C 
HETATM    6  C   LIG     1      18.456  38.736  21.738  1.00  0.00     0.004 C 
ENDROOT
BRANCH   1   7
HETATM    7  C   LIG     1      16.871  36.888  22.567  1.00  0.00     0.000 C 
HETATM    8  C   LIG     1      16.905  35.357  22.560  1.00  0.00     0.005 C 
ENDBRANCH   1   7
TORSDOF 1
ENDMDL
MODEL 4
REMARK VINA RESULT:      -5.7      3.246      5.267
REMARK  1 active torsions:
REMARK  status: ('A' for Active; 'I' for Inactive)
REMARK    1  A    between atoms: C_2  and  C_3 
ROOT
HETATM    1  C   LIG     1      18.044  36.787  21.013  1.00  0.00    -0.015 C 
HETATM    2  C   LIG     1      17.548  38.117  21.619  1.00  0.00     0.004 C 
HETATM    3  C   LIG     1      18.667  39.167  21.606  1.00  0.00     0.000 C 
HETATM    4  C   LIG     1      19.206  39.381  20.186  1.00  0.00     0.000 C 
HETATM    5  C   LIG     1      19.686  38.060  19.569  1.00  0.00     0.000 C 
HETATM    6  C   LIG     1      18.568  37.009  19.580  1.00  0.00     0.004 C 
ENDROOT
BRANCH   1   7
HETATM    7  C   LIG     1      16.986  35.662  21.096  1.00  0.00     0.000 C 
HETATM    8  C   LIG     1      16.761  35.083  22.496  1.00  0.00     0.005 C 
ENDBRANCH   1   7
TORSDOF 1
ENDMDL
MODEL 5
REMARK VINA RESULT:      -5.7      0.820      1.950
REMARK  1 active torsions:
REMARK  status: ('A' for Active; 'I' for Inactive)
REMARK    1  A    between atoms: C_2  and  C_3 
ROOT
HETATM    1  C   LIG     1      17.588  37.330  24.050  1.00  0.00    -0.015 C 
HETATM    2  C   LIG     1      16.847  35.984  23.903  1.00  0.00     0.004 C 
HETATM    3  C   LIG     1      17.534  34.895  24.739  1.00  0.00     0.000 C 
HETATM    4  C   LIG     1      17.628  35.309  26.213  1.00  0.00     0.000 C 
HETATM    5  C   LIG     1      18.348  36.656  26.367  1.00  0.00     0.000 C 
HETATM    6  C   LIG     1      17.662  37.746  25.533  1.00  0.00     0.004 C 
ENDROOT
BRANCH   1   7
HETATM    7  C   LIG     1      16.997  38.438  23.147  1.00  0.00     0.000 C 
HETATM    8  C   LIG     1      17.973  39.034  22.128  1.00  0.00     0.005 C 
ENDBRANCH   1   7
TORSDOF 1
ENDMDL
MODEL 6
REMARK VINA RESULT:      -5.7      0.860      3.866
REMARK  1 active torsions:
REMARK  status: ('A' for Active; 'I' for Inactive)
REMARK    1  A    between atoms: C_2  and  C_3 
ROOT
HETATM    1  C   LIG     1      17.326  36.911  24.844  1.00  0.00    -0.015 C 
HETATM    2  C   LIG     1      17.225  35.808  23.768  1.00  0.00     0.004 C 
HETATM    3  C   LIG     1      16.493  36.332  22.525  1.00  0.00     0.000 C 
HETATM    4  C   LIG     1      17.183  37.582  21.964  1.00  0.00     0.000 C 
HETATM    5  C   LIG     1      17.304  38.677  23.032  1.00  0.00     0.000 C 
HETATM    6  C   LIG     1      18.037  38.155  24.276  1.00  0.00     0.004 C 
ENDROOT
BRANCH   1   7
HETATM    7  C   LIG     1      17.965  36.405  26.159  1.00  0.00     0.000 C 
HETATM    8  C   LIG     1      18.145  34.887  26.252  1.00  0.00     0.005 C 
ENDBRANCH   1   7
TORSDOF 1
ENDMDL
MODEL 7
REMARK VINA RESULT:      -5.6      3.024      4.157
REMARK  1 active torsions:
REMARK  status: ('A' for Active; 'I' for Inactive)
REMARK    1  A    between atoms: C_2  and  C_3 
ROOT
HETATM    1  C   LIG     1      18.030  38.339  20.916  1.00  0.00    -0.015 C 
HETATM    2  C   LIG     1      17.762  38.342  22.436  1.00  0.00     0.004 C 
HETATM    3  C   LIG     1      16.601  37.400  22.781  1.00  0.00     0.000 C 
HETATM    4  C   LIG     1      16.877  35.977  22.278  1.00  0.00     0.000 C 
HETATM    5  C   LIG     1      17.162  35.967  20.770  1.00  0.00     0.000 C 
HETATM    6  C   LIG     1      18.323  36.908  20.422  1.00  0.00     0.004 C 
ENDROOT
BRANCH   1   7
HETATM    7  C   LIG     1      19.124  39.351  20.501  1.00  0.00     0.000 C 
HETATM    8  C   LIG     1      20.204  38.794  19.569  1.00  0.00     0.005 C 
ENDBRANCH   1   7
TORSDOF 1
ENDMDL
MODEL 8
REMARK VINA RESULT:      -5.5      3.205      4.445
REMARK  1 active torsions:
REMARK  status: ('A' for Active; 'I' for Inactive)
REMARK    1  A    between atoms: C_2  and  C_3 
ROOT
HETATM    1  C   LIG     1      18.374  38.238  21.297  1.00  0.00    -0.015 C 
HETATM    2  C   LIG     1      17.990  37.013  20.440  1.00  0.00     0.004 C 
HETATM    3  C   LIG     1      17.346  35.925  21.310  1.00  0.00     0.000 C 
HETATM    4  C   LIG     1      16.125  36.471  22.061  1.00  0.00     0.000 C 
HETATM    5  C   LIG     1      16.495  37.699  22.903  1.00  0.00     0.000 C 
HETATM    6  C   LIG     1      17.138  38.789  22.035  1.00  0.00     0.004 C 
ENDROOT
BRANCH   1   7
HETATM    7  C   LIG     1      19.121  39.323  20.487  1.00  0.00     0.000 C 
HETATM    8  C   LIG     1      20.219  38.799  19.557  1.00  0.00     0.005 C 
ENDBRANCH   1   7
TORSDOF 1
ENDMDL
MODEL 9
REMARK VINA RESULT:      -5.0      9.477     11.109
REMARK  1 active torsions:
REMARK  status: ('A' for Active; 'I' for Inactive)
REMARK    1  A    between atoms: C_2  and  C_3 
ROOT
HETATM    1  C   LIG     1      14.630  32.178  16.268  1.00  0.00    -0.015 C 
HETATM    2  C   LIG     1      13.743  30.954  16.581  1.00  0.00     0.004 C 
HETATM    3  C   LIG     1      13.266  30.286  15.284  1.00  0.00     0.000 C 
HETATM    4  C   LIG     1      14.456  29.887  14.400  1.00  0.00     0.000 C 
HETATM    5  C   LIG     1      15.353  31.096  14.099  1.00  0.00     0.000 C 
HETATM    6  C   LIG     1      15.831  31.764  15.395  1.00  0.00     0.004 C 
ENDROOT
BRANCH   1   7
HETATM    7  C   LIG     1      15.053  32.949  17.540  1.00  0.00     0.000 C 
HETATM    8  C   LIG     1      14.960  32.152  18.845  1.00  0.00     0.005 C 
ENDBRANCH   1   7
TORSDOF 1
ENDMDL
MODEL 10
REMARK VINA RESULT:      -4.9     10.084     11.626
REMARK  1 active torsions:
REMARK  status: ('A' for Active; 'I' for Inactive)
REMARK    1  A    between atoms: C_2  and  C_3 
ROOT
HETATM    1  C   LIG     1      14.596  30.473  15.293  1.00  0.00    -0.015 C 
HETATM    2  C   LIG     1      13.395  30.957  16.133  1.00  0.00     0.004 C 
HETATM    3  C   LIG     1      13.871  31.826  17.305  1.00  0.00     0.000 C 
HETATM    4  C   LIG     1      14.705  33.014  16.808  1.00  0.00     0.000 C 
HETATM    5  C   LIG     1      15.891  32.542  15.957  1.00  0.00     0.000 C 
HETATM    6  C   LIG     1      15.417  31.674  14.783  1.00  0.00     0.004 C 
ENDROOT
BRANCH   1   7
HETATM    7  C   LIG     1      14.180  29.508  14.158  1.00  0.00     0.000 C 
HETATM    8  C   LIG     1      15.234  28.464  13.774  1.00  0.00     0.005 C 
ENDBRANCH   1   7
TORSDOF 1
ENDMDL
MODEL 11
REMARK VINA RESULT:      -4.9      1.781      3.102
REMARK  1 active torsions:
REMARK  status: ('A' for Active; 'I' for Inactive)
REMARK    1  A    between atoms: C_2  and  C_3 
ROOT
HETATM    1  C   LIG     1      17.339  36.161  22.374  1.00  0.00    -0.015 C 
HETATM    2  C   LIG     1      16.846  35.204  23.480  1.00  0.00     0.004 C 
HETATM    3  C   LIG     1      17.507  35.544  24.823  1.00  0.00     0.000 C 
HETATM    4  C   LIG     1      17.248  37.005  25.211  1.00  0.00     0.000 C 
HETATM    5  C   LIG     1      17.719  37.964  24.109  1.00  0.00     0.000 C 
HETATM    6  C   LIG     1      17.058  37.626  22.765  1.00  0.00     0.004 C 
ENDROOT
BRANCH   1   7
HETATM    7  C   LIG     1      16.782  35.798  20.978  1.00  0.00     0.000 C 
HETATM    8  C   LIG     1      16.086  34.436  20.890  1.00  0.00     0.005 C 
ENDBRANCH   1   7
TORSDOF 1
ENDMDL
MODEL 12
REMARK VINA RESULT:      -4.8     10.294     11.577
REMARK  1 active torsions:
REMARK  status: ('A' for Active; 'I' for Inactive)
REMARK    1  A    between atoms: C_2  and  C_3 
ROOT
HETATM    1  C   LIG     1      15.952  31.741  15.276  1.00  0.00    -0.015 C 
HETATM    2  C   LIG     1      15.374  31.061  14.017  1.00  0.00     0.004 C 
HETATM    3  C   LIG     1      14.453  29.898  14.407  1.00  0.00     0.000 C 
HETATM    4  C   LIG     1      13.328  30.373  15.336  1.00  0.00     0.000 C 
HETATM    5  C   LIG     1      13.894  31.066  16.583  1.00  0.00     0.000 C 
HETATM    6  C   LIG     1      14.815  32.231  16.196  1.00  0.00     0.004 C 
ENDROOT
BRANCH   1   7
HETATM    7  C   LIG     1      16.970  32.856  14.939  1.00  0.00     0.000 C 
HETATM    8  C   LIG     1      17.213  33.083  13.444  1.00  0.00     0.005 C 
ENDBRANCH   1   7
TORSDOF 1
ENDMDL
MODEL 13
REMARK VINA RESULT:      -4.8      1.333      3.860
REMARK  1 active torsions:
REMARK  status: ('A' for Active; 'I' for Inactive)
REMARK    1  A    between atoms: C_2  and  C_3 
ROOT
HETATM    1  C   LIG     1      17.785  37.233  23.935  1.00  0.00    -0.015 C 
HETATM    2  C   LIG     1      18.099  38.731  23.737  1.00  0.00     0.004 C 
HETATM    3  C   LIG     1      18.680  38.981  22.339  1.00  0.00     0.000 C 
HETATM    4  C   LIG     1      17.729  38.473  21.248  1.00  0.00     0.000 C 
HETATM    5  C   LIG     1      17.397  36.988  21.447  1.00  0.00     0.000 C 
HETATM    6  C   LIG     1      16.815  36.736  22.845  1.00  0.00     0.004 C 
ENDROOT
BRANCH   1   7
HETATM    7  C   LIG     1      17.292  36.911  25.366  1.00  0.00     0.000 C 
HETATM    8  C   LIG     1      18.400  36.658  26.393  1.00  0.00     0.005 C 
ENDBRANCH   1   7
TORSDOF 1
ENDMDL
MODEL 14
REMARK VINA RESULT:      -4.5      9.887     11.573
REMARK  1 active torsions:
REMARK  status: ('A' for Active; 'I' for Inactive)
REMARK    1  A    between atoms: C_2  and  C_3 
ROOT
HETATM    1  C   LIG     1      14.179  31.603  16.020  1.00  0.00    -0.015 C 
HETATM    2  C   LIG     1      13.777  30.146  15.708  1.00  0.00     0.004 C 
HETATM    3  C   LIG     1      13.892  29.864  14.204  1.00  0.00     0.000 C 
HETATM    4  C   LIG     1      15.308  30.161  13.694  1.00  0.00     0.000 C 
HETATM    5  C   LIG     1      15.723  31.603  14.015  1.00  0.00     0.000 C 
HETATM    6  C   LIG     1      15.610  31.887  15.519  1.00  0.00     0.004 C 
ENDROOT
BRANCH   1   7
HETATM    7  C   LIG     1      13.983  31.971  17.509  1.00  0.00     0.000 C 
HETATM    8  C   LIG     1      15.121  32.785  18.133  1.00  0.00     0.005 C 
ENDBRANCH   1   7
TORSDOF 1
ENDMDL
MODEL 15
REMARK VINA RESULT:      -4.5      3.268      4.115
REMARK  1 active torsions:
REMARK  status: ('A' for Active; 'I' for Inactive)
REMARK    1  A    between atoms: C_2  and  C_3 
ROOT
HETATM    1  C   LIG     1      16.834  37.234  21.770  1.00  0.00    -0.015 C 
HETATM    2  C   LIG     1      15.403  37.099  22.333  1.00  0.00     0.004 C 
HETATM    3  C   LIG     1      14.598  36.074  21.523  1.00  0.00     0.000 C 
HETATM    4  C   LIG     1      15.306  34.713  21.498  1.00  0.00     0.000 C 
HETATM    5  C   LIG     1      16.736  34.840  20.956  1.00  0.00     0.000 C 
HETATM    6  C   LIG     1      17.543  35.865  21.766  1.00  0.00     0.004 C 
ENDROOT
BRANCH   1   7
HETATM    7  C   LIG     1      17.656  38.331  22.486  1.00  0.00     0.000 C 
HETATM    8  C   LIG     1      18.486  39.228  21.563  1.00  0.00     0.005 C 
ENDBRANCH   1   7
TORSDOF 1
ENDMDL
MODEL 16
REMARK VINA RESULT:      -4.3      3.182      4.982
REMARK  1 active torsions:
REMARK  status: ('A' for Active; 'I' for Inactive)
REMARK    1  A    between atoms: C_2  and  C_3 
ROOT
HETATM    1  C   LIG     1      16.289  34.876  21.245  1.00  0.00    -0.015 C 
HETATM    2  C   LIG     1      15.886  35.867  22.358  1.00  0.00     0.004 C 
HETATM    3  C   LIG     1      17.070  36.766  22.736  1.00  0.00     0.000 C 
HETATM    4  C   LIG     1      17.610  37.513  21.509  1.00  0.00     0.000 C 
HETATM    5  C   LIG     1      17.997  36.536  20.390  1.00  0.00     0.000 C 
HETATM    6  C   LIG     1      16.813  35.636  20.010  1.00  0.00     0.004 C 
ENDROOT
BRANCH   1   7
HETATM    7  C   LIG     1      15.161  33.877  20.898  1.00  0.00     0.000 C 
HETATM    8  C   LIG     1      15.569  32.737  19.960  1.00  0.00     0.005 C 
ENDBRANCH   1   7
TORSDOF 1
ENDMDL
MODEL 17
REMARK VINA RESULT:      -4.3     12.631     13.870
REMARK  1 active torsions:
REMARK  status: ('A' for Active; 'I' for Inactive)
REMARK    1  A    between atoms: C_2  and  C_3 
ROOT
HETATM    1  C   LIG     1      21.292  34.092  12.240  1.00  0.00    -0.015 C 
HETATM    2  C   LIG     1      21.422  35.143  11.117  1.00  0.00     0.004 C 
HETATM    3  C   LIG     1      20.400  34.874  10.005  1.00  0.00     0.000 C 
HETATM    4  C   LIG     1      18.971  34.846  10.563  1.00  0.00     0.000 C 
HETATM    5  C   LIG     1      18.837  33.816  11.693  1.00  0.00     0.000 C 
HETATM    6  C   LIG     1      19.858  34.084  12.807  1.00  0.00     0.004 C 
ENDROOT
BRANCH   1   7
HETATM    7  C   LIG     1      22.368  34.255  13.339  1.00  0.00     0.000 C 
HETATM    8  C   LIG     1      23.088  35.608  13.348  1.00  0.00     0.005 C 
ENDBRANCH   1   7
TORSDOF 1
ENDMDL
MODEL 18
REMARK VINA RESULT:      -4.1     10.546     11.994
REMARK  1 active torsions:
REMARK  status: ('A' for Active; 'I' for Inactive)
REMARK    1  A    between atoms: C_2  and  C_3 
ROOT
HETATM    1  C   LIG     1      13.791  30.411  14.933  1.00  0.00    -0.015 C 
HETATM    2  C   LIG     1      15.271  30.848  14.968  1.00  0.00     0.004 C 
HETATM    3  C   LIG     1      15.399  32.282  15.500  1.00  0.00     0.000 C 
HETATM    4  C   LIG     1      14.757  32.415  16.887  1.00  0.00     0.000 C 
HETATM    5  C   LIG     1      13.290  31.966  16.865  1.00  0.00     0.000 C 
HETATM    6  C   LIG     1      13.160  30.532  16.334  1.00  0.00     0.004 C 
ENDROOT
BRANCH   1   7
HETATM    7  C   LIG     1      13.597  29.010  14.307  1.00  0.00     0.000 C 
HETATM    8  C   LIG     1      12.196  28.735  13.752  1.00  0.00     0.005 C 
ENDBRANCH   1   7
TORSDOF 1
ENDMDL
MODEL 19
REMARK VINA RESULT:      -4.1     10.064     11.878
REMARK  1 active torsions:
REMARK  status: ('A' for Active; 'I' for Inactive)
REMARK    1  A    between atoms: C_2  and  C_3 
ROOT
HETATM    1  C   LIG     1      15.380  30.927  14.637  1.00  0.00    -0.015 C 
HETATM    2  C   LIG     1      15.324  31.982  15.762  1.00  0.00     0.004 C 
HETATM    3  C   LIG     1      16.638  32.771  15.830  1.00  0.00     0.000 C 
HETATM    4  C   LIG     1      16.957  33.428  14.481  1.00  0.00     0.000 C 
HETATM    5  C   LIG     1      16.998  32.388  13.353  1.00  0.00     0.000 C 
HETATM    6  C   LIG     1      15.684  31.599  13.283  1.00  0.00     0.004 C 
ENDROOT
BRANCH   1   7
HETATM    7  C   LIG     1      14.118  30.034  14.592  1.00  0.00     0.000 C 
HETATM    8  C   LIG     1      13.004  30.434  15.564  1.00  0.00     0.005 C 
ENDBRANCH   1   7
TORSDOF 1
ENDMDL
MODEL 20
REMARK VINA RESULT:      -4.0      5.592      7.145
REMARK  1 active torsions:
REMARK  status: ('A' for Active; 'I' for Inactive)
REMARK    1  A    between atoms: C_2  and  C_3 
ROOT
HETATM    1  C   LIG     1      15.736  33.992  19.833  1.00  0.00    -0.015 C 
HETATM    2  C   LIG     1      15.191  34.288  18.420  1.00  0.00     0.004 C 
HETATM    3  C   LIG     1      15.205  33.019  17.558  1.00  0.00     0.000 C 
HETATM    4  C   LIG     1      14.407  31.891  18.225  1.00  0.00     0.000 C 
HETATM    5  C   LIG     1      14.931  31.601  19.638  1.00  0.00     0.000 C 
HETATM    6  C   LIG     1      14.918  32.869  20.502  1.00  0.00     0.004 C 
ENDROOT
BRANCH   1   7
HETATM    7  C   LIG     1      15.841  35.260  20.711  1.00  0.00     0.000 C 
HETATM    8  C   LIG     1      16.841  35.169  21.868  1.00  0.00     0.005 C 
ENDBRANCH   1   7
TORSDOF 1
ENDMDL
