REMARK  1 active torsions:
REMARK  status: ('A' for Active; 'I' for Inactive)
REMARK    1  A    between atoms: C_2  and  C_3 
ROOT
HETATM    1  C   LIG     1      -0.470   0.370  -0.542  1.00  0.00    -0.015 C 
HETATM    2  C   LIG     1       0.101  -1.054  -0.710  1.00  0.00     0.004 C 
HETATM    3  C   LIG     1       1.629  -1.011  -0.845  1.00  0.00     0.000 C 
HETATM    4  C   LIG     1       2.269  -0.304   0.357  1.00  0.00     0.000 C 
HETATM    5  C   LIG     1       1.694   1.107   0.542  1.00  0.00     0.000 C 
HETATM    6  C   LIG     1       0.166   1.066   0.678  1.00  0.00     0.004 C 
ENDROOT
BRANCH   1   7
HETATM    7  C   LIG     1      -2.016   0.393  -0.505  1.00  0.00     0.000 C 
HETATM    8  C   LIG     1      -2.649  -0.357   0.671  1.00  0.00     0.005 C 
ENDBRANCH   1   7
TORSDOF 1
