REMARK  1 active torsions:
REMARK  status: ('A' for Active; 'I' for Inactive)
REMARK    1  A    between atoms: S_2  and  C_3 
ROOT
HETATM    1  C   LIG     1      -1.388  -0.494   0.764  1.00  0.00     0.189 A 
HETATM    2  N   LIG     1      -1.065   0.635   1.451  1.00  0.00    -0.233 NA
HETATM    3  C   LIG     1       0.181   1.174   1.373  1.00  0.00     0.155 A 
HETATM    4  C   LIG     1       1.146   0.560   0.577  1.00  0.00     0.121 A 
HETATM    5  N   LIG     1       2.404   1.061   0.466  1.00  0.00    -0.254 NA
HETATM    6  C   LIG     1       3.331   0.445  -0.316  1.00  0.00     0.136 A 
HETATM    7  C   LIG     1       2.985  -0.718  -1.014  1.00  0.00     0.138 A 
HETATM    8  N   LIG     1       1.725  -1.219  -0.903  1.00  0.00    -0.238 NA
HETATM    9  C   LIG     1       0.797  -0.606  -0.123  1.00  0.00     0.182 A 
HETATM   10  N   LIG     1      -0.459  -1.110  -0.016  1.00  0.00    -0.201 NA
ENDROOT
BRANCH   1  11
HETATM   11  S   LIG     1      -3.037  -1.175   0.891  1.00  0.00    -0.095 SA
HETATM   12  C   LIG     1      -3.667  -0.212  -0.518  1.00  0.00     0.099 C 
ENDBRANCH   1  11
TORSDOF 1
