REMARK  0 active torsions:
REMARK  status: ('A' for Active; 'I' for Inactive)
ROOT
HETATM    1  S   LIG     1       4.001  -0.689   0.115  1.00  0.00    -0.039 SA
HETATM    2  C   LIG     1       2.458  -0.153   0.026  1.00  0.00     0.199 A 
HETATM    3  N   LIG     1       2.220   1.169  -0.190  1.00  0.00    -0.231 NA
HETATM    4  C   LIG     1       0.953   1.653  -0.270  1.00  0.00     0.155 A 
HETATM    5  C   LIG     1      -0.126   0.783  -0.128  1.00  0.00     0.119 A 
HETATM    6  C   LIG     1       0.133  -0.579   0.095  1.00  0.00     0.160 A 
HETATM    7  N   LIG     1       1.417  -1.024   0.168  1.00  0.00    -0.314 N 
HETATM    8  N   LIG     1      -0.911  -1.439   0.235  1.00  0.00    -0.239 NA
HETATM    9  C   LIG     1      -2.196  -0.999   0.162  1.00  0.00     0.138 A 
HETATM   10  C   LIG     1      -2.450   0.359  -0.060  1.00  0.00     0.136 A 
HETATM   11  N   LIG     1      -1.409   1.223  -0.201  1.00  0.00    -0.254 NA
HETATM   12  H   LIG     1       1.601  -2.039   0.334  1.00  0.00     0.170 HD
ENDROOT
TORSDOF 0
