MODEL 1
REMARK VINA RESULT:      -5.7      0.000      0.000
REMARK  1 active torsions:
REMARK  status: ('A' for Active; 'I' for Inactive)
REMARK    1  A    between atoms: S_2  and  C_3 
ROOT
HETATM    1  C   LIG     1      16.429  35.980  21.992  1.00  0.00     0.189 A 
HETATM    2  N   LIG     1      16.450  37.326  22.189  1.00  0.00    -0.233 NA
HETATM    3  C   LIG     1      16.857  37.858  23.373  1.00  0.00     0.155 A 
HETATM    4  C   LIG     1      17.258  37.011  24.404  1.00  0.00     0.121 A 
HETATM    5  N   LIG     1      17.674  37.495  25.604  1.00  0.00    -0.254 NA
HETATM    6  C   LIG     1      18.061  36.650  26.597  1.00  0.00     0.136 A 
HETATM    7  C   LIG     1      18.031  35.268  26.381  1.00  0.00     0.138 A 
HETATM    8  N   LIG     1      17.615  34.784  25.179  1.00  0.00    -0.238 NA
HETATM    9  C   LIG     1      17.228  35.625  24.185  1.00  0.00     0.182 A 
HETATM   10  N   LIG     1      16.814  35.137  22.988  1.00  0.00    -0.201 NA
ENDROOT
BRANCH   1  11
HETATM   11  S   LIG     1      15.887  35.316  20.422  1.00  0.00    -0.095 SA
HETATM   12  C   LIG     1      14.934  33.970  21.190  1.00  0.00     0.099 C 
ENDBRANCH   1  11
TORSDOF 1
ENDMDL
MODEL 2
REMARK VINA RESULT:      -5.5      3.036      5.253
REMARK  1 active torsions:
REMARK  status: ('A' for Active; 'I' for Inactive)
REMARK    1  A    between atoms: S_2  and  C_3 
ROOT
HETATM    1  C   LIG     1      17.449  37.681  23.563  1.00  0.00     0.189 A 
HETATM    2  N   LIG     1      16.990  36.470  23.146  1.00  0.00    -0.233 NA
HETATM    3  C   LIG     1      17.163  36.055  21.863  1.00  0.00     0.155 A 
HETATM    4  C   LIG     1      17.820  36.885  20.956  1.00  0.00     0.121 A 
HETATM    5  N   LIG     1      18.018  36.515  19.664  1.00  0.00    -0.254 NA
HETATM    6  C   LIG     1      18.661  37.341  18.795  1.00  0.00     0.136 A 
HETATM    7  C   LIG     1      19.124  38.586  19.238  1.00  0.00     0.138 A 
HETATM    8  N   LIG     1      18.926  38.955  20.532  1.00  0.00    -0.238 NA
HETATM    9  C   LIG     1      18.284  38.133  21.402  1.00  0.00     0.182 A 
HETATM   10  N   LIG     1      18.090  38.506  22.692  1.00  0.00    -0.201 NA
ENDROOT
BRANCH   1  11
HETATM   11  S   LIG     1      17.203  38.193  25.259  1.00  0.00    -0.095 SA
HETATM   12  C   LIG     1      18.193  36.824  25.936  1.00  0.00     0.099 C 
ENDBRANCH   1  11
TORSDOF 1
ENDMDL
MODEL 3
REMARK VINA RESULT:      -5.4      2.919      4.205
REMARK  1 active torsions:
REMARK  status: ('A' for Active; 'I' for Inactive)
REMARK    1  A    between atoms: S_2  and  C_3 
ROOT
HETATM    1  C   LIG     1      16.134  35.796  21.366  1.00  0.00     0.189 A 
HETATM    2  N   LIG     1      16.035  36.818  22.259  1.00  0.00    -0.233 NA
HETATM    3  C   LIG     1      16.902  37.865  22.228  1.00  0.00     0.155 A 
HETATM    4  C   LIG     1      17.911  37.893  21.266  1.00  0.00     0.121 A 
HETATM    5  N   LIG     1      18.800  38.918  21.195  1.00  0.00    -0.254 NA
HETATM    6  C   LIG     1      19.777  38.925  20.249  1.00  0.00     0.136 A 
HETATM    7  C   LIG     1      19.868  37.865  19.339  1.00  0.00     0.138 A 
HETATM    8  N   LIG     1      18.977  36.839  19.411  1.00  0.00    -0.238 NA
HETATM    9  C   LIG     1      18.000  36.829  20.355  1.00  0.00     0.182 A 
HETATM   10  N   LIG     1      17.113  35.803  20.422  1.00  0.00    -0.201 NA
ENDROOT
BRANCH   1  11
HETATM   11  S   LIG     1      14.976  34.434  21.437  1.00  0.00    -0.095 SA
HETATM   12  C   LIG     1      15.679  33.610  19.976  1.00  0.00     0.099 C 
ENDBRANCH   1  11
TORSDOF 1
ENDMDL
MODEL 4
REMARK VINA RESULT:      -5.3      8.118     10.039
REMARK  1 active torsions:
REMARK  status: ('A' for Active; 'I' for Inactive)
REMARK    1  A    between atoms: S_2  and  C_3 
ROOT
HETATM    1  C   LIG     1      17.399  33.058  14.005  1.00  0.00     0.189 A 
HETATM    2  N   LIG     1      16.744  32.134  13.252  1.00  0.00    -0.233 NA
HETATM    3  C   LIG     1      15.692  31.433  13.755  1.00  0.00     0.155 A 
HETATM    4  C   LIG     1      15.278  31.663  15.065  1.00  0.00     0.121 A 
HETATM    5  N   LIG     1      14.233  30.989  15.612  1.00  0.00    -0.254 NA
HETATM    6  C   LIG     1      13.846  31.228  16.894  1.00  0.00     0.136 A 
HETATM    7  C   LIG     1      14.532  32.179  17.658  1.00  0.00     0.138 A 
HETATM    8  N   LIG     1      15.579  32.854  17.110  1.00  0.00    -0.238 NA
HETATM    9  C   LIG     1      15.967  32.618  15.830  1.00  0.00     0.182 A 
HETATM   10  N   LIG     1      17.012  33.294  15.288  1.00  0.00    -0.201 NA
ENDROOT
BRANCH   1  11
HETATM   11  S   LIG     1      18.778  33.960  13.310  1.00  0.00    -0.095 SA
HETATM   12  C   LIG     1      18.838  32.938  11.807  1.00  0.00     0.099 C 
ENDBRANCH   1  11
TORSDOF 1
ENDMDL
MODEL 5
REMARK VINA RESULT:      -5.0      8.976     10.635
REMARK  1 active torsions:
REMARK  status: ('A' for Active; 'I' for Inactive)
REMARK    1  A    between atoms: S_2  and  C_3 
ROOT
HETATM    1  C   LIG     1      17.314  33.107  14.143  1.00  0.00     0.189 A 
HETATM    2  N   LIG     1      16.874  33.649  15.311  1.00  0.00    -0.233 NA
HETATM    3  C   LIG     1      15.820  33.113  15.983  1.00  0.00     0.155 A 
HETATM    4  C   LIG     1      15.178  31.989  15.468  1.00  0.00     0.121 A 
HETATM    5  N   LIG     1      14.122  31.417  16.103  1.00  0.00    -0.254 NA
HETATM    6  C   LIG     1      13.508  30.320  15.582  1.00  0.00     0.136 A 
HETATM    7  C   LIG     1      13.970  29.776  14.378  1.00  0.00     0.138 A 
HETATM    8  N   LIG     1      15.027  30.349  13.742  1.00  0.00    -0.238 NA
HETATM    9  C   LIG     1      15.642  31.444  14.260  1.00  0.00     0.182 A 
HETATM   10  N   LIG     1      16.697  32.012  13.622  1.00  0.00    -0.201 NA
ENDROOT
BRANCH   1  11
HETATM   11  S   LIG     1      18.702  33.840  13.287  1.00  0.00    -0.095 SA
HETATM   12  C   LIG     1      17.650  34.683  12.065  1.00  0.00     0.099 C 
ENDBRANCH   1  11
TORSDOF 1
ENDMDL
MODEL 6
REMARK VINA RESULT:      -5.0      1.941      2.911
REMARK  1 active torsions:
REMARK  status: ('A' for Active; 'I' for Inactive)
REMARK    1  A    between atoms: S_2  and  C_3 
ROOT
HETATM    1  C   LIG     1      17.688  37.943  22.464  1.00  0.00     0.189 A 
HETATM    2  N   LIG     1      17.108  36.803  22.002  1.00  0.00    -0.233 NA
HETATM    3  C   LIG     1      16.894  35.740  22.823  1.00  0.00     0.155 A 
HETATM    4  C   LIG     1      17.276  35.818  24.161  1.00  0.00     0.121 A 
HETATM    5  N   LIG     1      17.082  34.784  25.020  1.00  0.00    -0.254 NA
HETATM    6  C   LIG     1      17.463  34.881  26.322  1.00  0.00     0.136 A 
HETATM    7  C   LIG     1      18.062  36.060  26.782  1.00  0.00     0.138 A 
HETATM    8  N   LIG     1      18.256  37.096  25.921  1.00  0.00    -0.238 NA
HETATM    9  C   LIG     1      17.876  37.002  24.620  1.00  0.00     0.182 A 
HETATM   10  N   LIG     1      18.071  38.038  23.766  1.00  0.00    -0.201 NA
ENDROOT
BRANCH   1  11
HETATM   11  S   LIG     1      17.955  39.321  21.355  1.00  0.00    -0.095 SA
HETATM   12  C   LIG     1      18.929  38.333  20.178  1.00  0.00     0.099 C 
ENDBRANCH   1  11
TORSDOF 1
ENDMDL
MODEL 7
REMARK VINA RESULT:      -4.9      6.376      9.508
REMARK  1 active torsions:
REMARK  status: ('A' for Active; 'I' for Inactive)
REMARK    1  A    between atoms: S_2  and  C_3 
ROOT
HETATM    1  C   LIG     1      15.034  32.459  18.303  1.00  0.00     0.189 A 
HETATM    2  N   LIG     1      14.108  31.488  18.079  1.00  0.00    -0.233 NA
HETATM    3  C   LIG     1      13.942  30.945  16.843  1.00  0.00     0.155 A 
HETATM    4  C   LIG     1      14.733  31.390  15.786  1.00  0.00     0.121 A 
HETATM    5  N   LIG     1      14.605  30.878  14.534  1.00  0.00    -0.254 NA
HETATM    6  C   LIG     1      15.387  31.328  13.516  1.00  0.00     0.136 A 
HETATM    7  C   LIG     1      16.333  32.330  13.761  1.00  0.00     0.138 A 
HETATM    8  N   LIG     1      16.461  32.843  15.015  1.00  0.00    -0.238 NA
HETATM    9  C   LIG     1      15.682  32.395  16.033  1.00  0.00     0.182 A 
HETATM   10  N   LIG     1      15.814  32.909  17.283  1.00  0.00    -0.201 NA
ENDROOT
BRANCH   1  11
HETATM   11  S   LIG     1      15.224  33.150  19.941  1.00  0.00    -0.095 SA
HETATM   12  C   LIG     1      15.611  34.815  19.318  1.00  0.00     0.099 C 
ENDBRANCH   1  11
TORSDOF 1
ENDMDL
MODEL 8
REMARK VINA RESULT:      -4.9      8.896     10.459
REMARK  1 active torsions:
REMARK  status: ('A' for Active; 'I' for Inactive)
REMARK    1  A    between atoms: S_2  and  C_3 
ROOT
HETATM    1  C   LIG     1      18.228  33.398  12.803  1.00  0.00     0.189 A 
HETATM    2  N   LIG     1      18.317  34.478  13.626  1.00  0.00    -0.233 NA
HETATM    3  C   LIG     1      17.540  34.581  14.738  1.00  0.00     0.155 A 
HETATM    4  C   LIG     1      16.635  33.565  15.040  1.00  0.00     0.121 A 
HETATM    5  N   LIG     1      15.838  33.623  16.139  1.00  0.00    -0.254 NA
HETATM    6  C   LIG     1      14.961  32.620  16.415  1.00  0.00     0.136 A 
HETATM    7  C   LIG     1      14.878  31.518  15.556  1.00  0.00     0.138 A 
HETATM    8  N   LIG     1      15.677  31.460  14.456  1.00  0.00    -0.238 NA
HETATM    9  C   LIG     1      16.554  32.460  14.178  1.00  0.00     0.182 A 
HETATM   10  N   LIG     1      17.348  32.397  13.079  1.00  0.00    -0.201 NA
ENDROOT
BRANCH   1  11
HETATM   11  S   LIG     1      19.265  33.296  11.350  1.00  0.00    -0.095 SA
HETATM   12  C   LIG     1      18.768  34.935  10.739  1.00  0.00     0.099 C 
ENDBRANCH   1  11
TORSDOF 1
ENDMDL
MODEL 9
REMARK VINA RESULT:      -4.9      2.738      3.848
REMARK  1 active torsions:
REMARK  status: ('A' for Active; 'I' for Inactive)
REMARK    1  A    between atoms: S_2  and  C_3 
ROOT
HETATM    1  C   LIG     1      18.323  37.756  20.117  1.00  0.00     0.189 A 
HETATM    2  N   LIG     1      17.887  36.467  20.102  1.00  0.00    -0.233 NA
HETATM    3  C   LIG     1      17.413  35.871  21.228  1.00  0.00     0.155 A 
HETATM    4  C   LIG     1      17.374  36.590  22.421  1.00  0.00     0.121 A 
HETATM    5  N   LIG     1      16.908  36.039  23.572  1.00  0.00    -0.254 NA
HETATM    6  C   LIG     1      16.879  36.759  24.726  1.00  0.00     0.136 A 
HETATM    7  C   LIG     1      17.334  38.082  24.727  1.00  0.00     0.138 A 
HETATM    8  N   LIG     1      17.800  38.634  23.574  1.00  0.00    -0.238 NA
HETATM    9  C   LIG     1      17.830  37.918  22.420  1.00  0.00     0.182 A 
HETATM   10  N   LIG     1      18.296  38.474  21.273  1.00  0.00    -0.201 NA
ENDROOT
BRANCH   1  11
HETATM   11  S   LIG     1      18.941  38.507  18.616  1.00  0.00    -0.095 SA
HETATM   12  C   LIG     1      20.579  38.853  19.328  1.00  0.00     0.099 C 
ENDBRANCH   1  11
TORSDOF 1
ENDMDL
MODEL 10
REMARK VINA RESULT:      -4.8      3.240      5.226
REMARK  1 active torsions:
REMARK  status: ('A' for Active; 'I' for Inactive)
REMARK    1  A    between atoms: S_2  and  C_3 
ROOT
HETATM    1  C   LIG     1      17.498  37.442  23.006  1.00  0.00     0.189 A 
HETATM    2  N   LIG     1      17.789  38.767  23.113  1.00  0.00    -0.233 NA
HETATM    3  C   LIG     1      18.260  39.472  22.050  1.00  0.00     0.155 A 
HETATM    4  C   LIG     1      18.451  38.829  20.829  1.00  0.00     0.121 A 
HETATM    5  N   LIG     1      18.919  39.490  19.739  1.00  0.00    -0.254 NA
HETATM    6  C   LIG     1      19.099  38.842  18.557  1.00  0.00     0.136 A 
HETATM    7  C   LIG     1      18.798  37.478  18.462  1.00  0.00     0.138 A 
HETATM    8  N   LIG     1      18.330  36.816  19.554  1.00  0.00    -0.238 NA
HETATM    9  C   LIG     1      18.149  37.461  20.736  1.00  0.00     0.182 A 
HETATM   10  N   LIG     1      17.680  36.795  21.823  1.00  0.00    -0.201 NA
ENDROOT
BRANCH   1  11
HETATM   11  S   LIG     1      16.880  36.546  24.425  1.00  0.00    -0.095 SA
HETATM   12  C   LIG     1      17.413  37.822  25.607  1.00  0.00     0.099 C 
ENDBRANCH   1  11
TORSDOF 1
ENDMDL
MODEL 11
REMARK VINA RESULT:      -4.8      7.993     10.262
REMARK  1 active torsions:
REMARK  status: ('A' for Active; 'I' for Inactive)
REMARK    1  A    between atoms: S_2  and  C_3 
ROOT
HETATM    1  C   LIG     1      14.628  31.557  15.984  1.00  0.00     0.189 A 
HETATM    2  N   LIG     1      14.639  30.759  14.882  1.00  0.00    -0.233 NA
HETATM    3  C   LIG     1      15.470  31.015  13.837  1.00  0.00     0.155 A 
HETATM    4  C   LIG     1      16.326  32.113  13.892  1.00  0.00     0.121 A 
HETATM    5  N   LIG     1      17.175  32.408  12.874  1.00  0.00    -0.254 NA
HETATM    6  C   LIG     1      18.002  33.486  12.948  1.00  0.00     0.136 A 
HETATM    7  C   LIG     1      17.977  34.300  14.087  1.00  0.00     0.138 A 
HETATM    8  N   LIG     1      17.127  34.003  15.107  1.00  0.00    -0.238 NA
HETATM    9  C   LIG     1      16.300  32.928  15.035  1.00  0.00     0.182 A 
HETATM   10  N   LIG     1      15.454  32.636  16.056  1.00  0.00    -0.201 NA
ENDROOT
BRANCH   1  11
HETATM   11  S   LIG     1      13.521  31.192  17.340  1.00  0.00    -0.095 SA
HETATM   12  C   LIG     1      14.621  31.928  18.588  1.00  0.00     0.099 C 
ENDBRANCH   1  11
TORSDOF 1
ENDMDL
MODEL 12
REMARK VINA RESULT:      -4.8      3.340      4.705
REMARK  1 active torsions:
REMARK  status: ('A' for Active; 'I' for Inactive)
REMARK    1  A    between atoms: S_2  and  C_3 
ROOT
HETATM    1  C   LIG     1      18.862  38.109  20.285  1.00  0.00     0.189 A 
HETATM    2  N   LIG     1      18.400  38.641  21.449  1.00  0.00    -0.233 NA
HETATM    3  C   LIG     1      17.387  38.051  22.138  1.00  0.00     0.155 A 
HETATM    4  C   LIG     1      16.809  36.883  21.645  1.00  0.00     0.121 A 
HETATM    5  N   LIG     1      15.795  36.257  22.298  1.00  0.00    -0.254 NA
HETATM    6  C   LIG     1      15.245  35.118  21.798  1.00  0.00     0.136 A 
HETATM    7  C   LIG     1      15.729  34.585  20.597  1.00  0.00     0.138 A 
HETATM    8  N   LIG     1      16.744  35.212  19.944  1.00  0.00    -0.238 NA
HETATM    9  C   LIG     1      17.296  36.350  20.441  1.00  0.00     0.182 A 
HETATM   10  N   LIG     1      18.309  36.971  19.785  1.00  0.00    -0.201 NA
ENDROOT
BRANCH   1  11
HETATM   11  S   LIG     1      20.196  38.912  19.405  1.00  0.00    -0.095 SA
HETATM   12  C   LIG     1      19.160  39.309  17.964  1.00  0.00     0.099 C 
ENDBRANCH   1  11
TORSDOF 1
ENDMDL
MODEL 13
REMARK VINA RESULT:      -4.8      1.168      2.272
REMARK  1 active torsions:
REMARK  status: ('A' for Active; 'I' for Inactive)
REMARK    1  A    between atoms: S_2  and  C_3 
ROOT
HETATM    1  C   LIG     1      16.390  35.691  21.645  1.00  0.00     0.189 A 
HETATM    2  N   LIG     1      16.761  34.688  22.486  1.00  0.00    -0.233 NA
HETATM    3  C   LIG     1      17.153  34.948  23.762  1.00  0.00     0.155 A 
HETATM    4  C   LIG     1      17.176  36.264  24.218  1.00  0.00     0.121 A 
HETATM    5  N   LIG     1      17.558  36.575  25.485  1.00  0.00    -0.254 NA
HETATM    6  C   LIG     1      17.575  37.867  25.909  1.00  0.00     0.136 A 
HETATM    7  C   LIG     1      17.194  38.888  25.031  1.00  0.00     0.138 A 
HETATM    8  N   LIG     1      16.810  38.577  23.763  1.00  0.00    -0.238 NA
HETATM    9  C   LIG     1      16.793  37.288  23.337  1.00  0.00     0.182 A 
HETATM   10  N   LIG     1      16.409  36.983  22.071  1.00  0.00    -0.201 NA
ENDROOT
BRANCH   1  11
HETATM   11  S   LIG     1      15.881  35.311  19.973  1.00  0.00    -0.095 SA
HETATM   12  C   LIG     1      15.553  33.562  20.348  1.00  0.00     0.099 C 
ENDBRANCH   1  11
TORSDOF 1
ENDMDL
MODEL 14
REMARK VINA RESULT:      -4.5      7.075     10.004
REMARK  1 active torsions:
REMARK  status: ('A' for Active; 'I' for Inactive)
REMARK    1  A    between atoms: S_2  and  C_3 
ROOT
HETATM    1  C   LIG     1      15.423  33.390  16.884  1.00  0.00     0.189 A 
HETATM    2  N   LIG     1      16.363  33.751  15.969  1.00  0.00    -0.233 NA
HETATM    3  C   LIG     1      16.580  33.007  14.852  1.00  0.00     0.155 A 
HETATM    4  C   LIG     1      15.829  31.853  14.639  1.00  0.00     0.121 A 
HETATM    5  N   LIG     1      16.008  31.077  13.539  1.00  0.00    -0.254 NA
HETATM    6  C   LIG     1      15.265  29.954  13.351  1.00  0.00     0.136 A 
HETATM    7  C   LIG     1      14.304  29.593  14.303  1.00  0.00     0.138 A 
HETATM    8  N   LIG     1      14.124  30.370  15.405  1.00  0.00    -0.238 NA
HETATM    9  C   LIG     1      14.865  31.492  15.595  1.00  0.00     0.182 A 
HETATM   10  N   LIG     1      14.682  32.265  16.696  1.00  0.00    -0.201 NA
ENDROOT
BRANCH   1  11
HETATM   11  S   LIG     1      15.165  34.393  18.343  1.00  0.00    -0.095 SA
HETATM   12  C   LIG     1      15.324  32.983  19.481  1.00  0.00     0.099 C 
ENDBRANCH   1  11
TORSDOF 1
ENDMDL
MODEL 15
REMARK VINA RESULT:      -4.5      9.394     11.188
REMARK  1 active torsions:
REMARK  status: ('A' for Active; 'I' for Inactive)
REMARK    1  A    between atoms: S_2  and  C_3 
ROOT
HETATM    1  C   LIG     1      16.143  32.326  14.601  1.00  0.00     0.189 A 
HETATM    2  N   LIG     1      16.526  33.456  15.255  1.00  0.00    -0.233 NA
HETATM    3  C   LIG     1      17.539  34.232  14.786  1.00  0.00     0.155 A 
HETATM    4  C   LIG     1      18.200  33.865  13.615  1.00  0.00     0.121 A 
HETATM    5  N   LIG     1      19.217  34.608  13.106  1.00  0.00    -0.254 NA
HETATM    6  C   LIG     1      19.849  34.230  11.963  1.00  0.00     0.136 A 
HETATM    7  C   LIG     1      19.447  33.063  11.303  1.00  0.00     0.138 A 
HETATM    8  N   LIG     1      18.428  32.320  11.813  1.00  0.00    -0.238 NA
HETATM    9  C   LIG     1      17.794  32.694  12.954  1.00  0.00     0.182 A 
HETATM   10  N   LIG     1      16.778  31.949  13.458  1.00  0.00    -0.201 NA
ENDROOT
BRANCH   1  11
HETATM   11  S   LIG     1      14.806  31.330  15.248  1.00  0.00    -0.095 SA
HETATM   12  C   LIG     1      15.059  29.998  14.035  1.00  0.00     0.099 C 
ENDBRANCH   1  11
TORSDOF 1
ENDMDL
MODEL 16
REMARK VINA RESULT:      -4.4      2.738      3.567
REMARK  1 active torsions:
REMARK  status: ('A' for Active; 'I' for Inactive)
REMARK    1  A    between atoms: S_2  and  C_3 
ROOT
HETATM    1  C   LIG     1      18.371  38.450  20.517  1.00  0.00     0.189 A 
HETATM    2  N   LIG     1      18.363  39.378  21.512  1.00  0.00    -0.233 NA
HETATM    3  C   LIG     1      17.998  39.047  22.779  1.00  0.00     0.155 A 
HETATM    4  C   LIG     1      17.624  37.736  23.066  1.00  0.00     0.121 A 
HETATM    5  N   LIG     1      17.252  37.357  24.317  1.00  0.00    -0.254 NA
HETATM    6  C   LIG     1      16.890  36.071  24.574  1.00  0.00     0.136 A 
HETATM    7  C   LIG     1      16.899  35.129  23.539  1.00  0.00     0.138 A 
HETATM    8  N   LIG     1      17.272  35.509  22.287  1.00  0.00    -0.238 NA
HETATM    9  C   LIG     1      17.635  36.792  22.027  1.00  0.00     0.182 A 
HETATM   10  N   LIG     1      18.006  37.165  20.776  1.00  0.00    -0.201 NA
ENDROOT
BRANCH   1  11
HETATM   11  S   LIG     1      18.856  38.922  18.861  1.00  0.00    -0.095 SA
HETATM   12  C   LIG     1      20.634  38.825  19.231  1.00  0.00     0.099 C 
ENDBRANCH   1  11
TORSDOF 1
ENDMDL
MODEL 17
REMARK VINA RESULT:      -4.3      4.154      6.133
REMARK  1 active torsions:
REMARK  status: ('A' for Active; 'I' for Inactive)
REMARK    1  A    between atoms: S_2  and  C_3 
ROOT
HETATM    1  C   LIG     1      14.729  32.153  17.763  1.00  0.00     0.189 A 
HETATM    2  N   LIG     1      14.379  31.451  18.875  1.00  0.00    -0.233 NA
HETATM    3  C   LIG     1      14.592  31.953  20.120  1.00  0.00     0.155 A 
HETATM    4  C   LIG     1      15.181  33.208  20.263  1.00  0.00     0.121 A 
HETATM    5  N   LIG     1      15.413  33.753  21.486  1.00  0.00    -0.254 NA
HETATM    6  C   LIG     1      15.990  34.980  21.602  1.00  0.00     0.136 A 
HETATM    7  C   LIG     1      16.348  35.688  20.449  1.00  0.00     0.138 A 
HETATM    8  N   LIG     1      16.115  35.142  19.225  1.00  0.00    -0.238 NA
HETATM    9  C   LIG     1      15.539  33.918  19.105  1.00  0.00     0.182 A 
HETATM   10  N   LIG     1      15.308  33.378  17.881  1.00  0.00    -0.201 NA
ENDROOT
BRANCH   1  11
HETATM   11  S   LIG     1      14.434  31.460  16.141  1.00  0.00    -0.095 SA
HETATM   12  C   LIG     1      15.880  32.280  15.402  1.00  0.00     0.099 C 
ENDBRANCH   1  11
TORSDOF 1
ENDMDL
MODEL 18
REMARK VINA RESULT:      -4.2      8.174      9.956
REMARK  1 active torsions:
REMARK  status: ('A' for Active; 'I' for Inactive)
REMARK    1  A    between atoms: S_2  and  C_3 
ROOT
HETATM    1  C   LIG     1      14.951  32.204  16.194  1.00  0.00     0.189 A 
HETATM    2  N   LIG     1      15.293  33.390  16.765  1.00  0.00    -0.233 NA
HETATM    3  C   LIG     1      16.205  34.214  16.183  1.00  0.00     0.155 A 
HETATM    4  C   LIG     1      16.802  33.838  14.981  1.00  0.00     0.121 A 
HETATM    5  N   LIG     1      17.717  34.627  14.361  1.00  0.00    -0.254 NA
HETATM    6  C   LIG     1      18.289  34.240  13.189  1.00  0.00     0.136 A 
HETATM    7  C   LIG     1      17.929  33.015  12.615  1.00  0.00     0.138 A 
HETATM    8  N   LIG     1      17.012  32.225  13.236  1.00  0.00    -0.238 NA
HETATM    9  C   LIG     1      16.440  32.609  14.407  1.00  0.00     0.182 A 
HETATM   10  N   LIG     1      15.525  31.817  15.023  1.00  0.00    -0.201 NA
ENDROOT
BRANCH   1  11
HETATM   11  S   LIG     1      13.748  31.145  16.988  1.00  0.00    -0.095 SA
HETATM   12  C   LIG     1      13.206  30.394  15.423  1.00  0.00     0.099 C 
ENDBRANCH   1  11
TORSDOF 1
ENDMDL
MODEL 19
REMARK VINA RESULT:      -4.1     10.722     12.270
REMARK  1 active torsions:
REMARK  status: ('A' for Active; 'I' for Inactive)
REMARK    1  A    between atoms: S_2  and  C_3 
ROOT
HETATM    1  C   LIG     1      17.756  33.477  13.675  1.00  0.00     0.189 A 
HETATM    2  N   LIG     1      17.005  34.311  12.905  1.00  0.00    -0.233 NA
HETATM    3  C   LIG     1      17.524  34.900  11.795  1.00  0.00     0.155 A 
HETATM    4  C   LIG     1      18.847  34.648  11.438  1.00  0.00     0.121 A 
HETATM    5  N   LIG     1      19.410  35.212  10.338  1.00  0.00    -0.254 NA
HETATM    6  C   LIG     1      20.704  34.953  10.008  1.00  0.00     0.136 A 
HETATM    7  C   LIG     1      21.464  34.096  10.812  1.00  0.00     0.138 A 
HETATM    8  N   LIG     1      20.900  33.531  11.914  1.00  0.00    -0.238 NA
HETATM    9  C   LIG     1      19.608  33.787  12.245  1.00  0.00     0.182 A 
HETATM   10  N   LIG     1      19.050  33.221  13.346  1.00  0.00    -0.201 NA
ENDROOT
BRANCH   1  11
HETATM   11  S   LIG     1      17.040  32.720  15.129  1.00  0.00    -0.095 SA
HETATM   12  C   LIG     1      15.835  31.751  14.172  1.00  0.00     0.099 C 
ENDBRANCH   1  11
TORSDOF 1
ENDMDL
MODEL 20
REMARK VINA RESULT:      -4.0      9.945     11.814
REMARK  1 active torsions:
REMARK  status: ('A' for Active; 'I' for Inactive)
REMARK    1  A    between atoms: S_2  and  C_3 
ROOT
HETATM    1  C   LIG     1      15.909  31.772  14.936  1.00  0.00     0.189 A 
HETATM    2  N   LIG     1      14.698  31.908  15.539  1.00  0.00    -0.233 NA
HETATM    3  C   LIG     1      13.748  30.940  15.437  1.00  0.00     0.155 A 
HETATM    4  C   LIG     1      14.018  29.788  14.701  1.00  0.00     0.121 A 
HETATM    5  N   LIG     1      13.103  28.793  14.571  1.00  0.00    -0.254 NA
HETATM    6  C   LIG     1      13.387  27.677  13.847  1.00  0.00     0.136 A 
HETATM    7  C   LIG     1      14.637  27.553  13.229  1.00  0.00     0.138 A 
HETATM    8  N   LIG     1      15.554  28.549  13.360  1.00  0.00    -0.238 NA
HETATM    9  C   LIG     1      15.273  29.665  14.083  1.00  0.00     0.182 A 
HETATM   10  N   LIG     1      16.191  30.656  14.211  1.00  0.00    -0.201 NA
ENDROOT
BRANCH   1  11
HETATM   11  S   LIG     1      17.134  33.066  15.092  1.00  0.00    -0.095 SA
HETATM   12  C   LIG     1      17.419  33.170  13.298  1.00  0.00     0.099 C 
ENDBRANCH   1  11
TORSDOF 1
ENDMDL
