MODEL 1
REMARK VINA RESULT:      -5.6      0.000      0.000
REMARK  0 active torsions:
REMARK  status: ('A' for Active; 'I' for Inactive)
ROOT
HETATM    1  S   LIG     1      15.945  35.221  20.504  1.00  0.00    -0.039 SA
HETATM    2  C   LIG     1      16.435  35.863  21.926  1.00  0.00     0.199 A 
HETATM    3  N   LIG     1      16.486  37.215  22.069  1.00  0.00    -0.231 NA
HETATM    4  C   LIG     1      16.888  37.786  23.234  1.00  0.00     0.155 A 
HETATM    5  C   LIG     1      17.257  36.975  24.306  1.00  0.00     0.119 A 
HETATM    6  C   LIG     1      17.200  35.582  24.146  1.00  0.00     0.160 A 
HETATM    7  N   LIG     1      16.791  35.049  22.962  1.00  0.00    -0.314 N 
HETATM    8  N   LIG     1      17.557  34.779  25.184  1.00  0.00    -0.239 NA
HETATM    9  C   LIG     1      17.966  35.307  26.369  1.00  0.00     0.138 A 
HETATM   10  C   LIG     1      18.021  36.696  26.525  1.00  0.00     0.136 A 
HETATM   11  N   LIG     1      17.665  37.503  25.489  1.00  0.00    -0.254 NA
HETATM   12  H   LIG     1      16.752  34.011  22.852  1.00  0.00     0.170 HD
ENDROOT
TORSDOF 0
ENDMDL
MODEL 2
REMARK VINA RESULT:      -5.5      2.928      4.326
REMARK  0 active torsions:
REMARK  status: ('A' for Active; 'I' for Inactive)
ROOT
HETATM    1  S   LIG     1      15.287  34.396  21.257  1.00  0.00    -0.039 SA
HETATM    2  C   LIG     1      16.263  35.709  21.270  1.00  0.00     0.199 A 
HETATM    3  N   LIG     1      16.077  36.672  22.213  1.00  0.00    -0.231 NA
HETATM    4  C   LIG     1      16.866  37.777  22.257  1.00  0.00     0.155 A 
HETATM    5  C   LIG     1      17.885  37.932  21.320  1.00  0.00     0.119 A 
HETATM    6  C   LIG     1      18.067  36.932  20.352  1.00  0.00     0.160 A 
HETATM    7  N   LIG     1      17.255  35.840  20.342  1.00  0.00    -0.314 N 
HETATM    8  N   LIG     1      19.058  37.071  19.432  1.00  0.00    -0.239 NA
HETATM    9  C   LIG     1      19.872  38.161  19.438  1.00  0.00     0.138 A 
HETATM   10  C   LIG     1      19.688  39.156  20.404  1.00  0.00     0.136 A 
HETATM   11  N   LIG     1      18.698  39.021  21.327  1.00  0.00    -0.254 NA
HETATM   12  H   LIG     1      17.397  35.100  19.618  1.00  0.00     0.170 HD
ENDROOT
TORSDOF 0
ENDMDL
MODEL 3
REMARK VINA RESULT:      -5.4      8.255      9.900
REMARK  0 active torsions:
REMARK  status: ('A' for Active; 'I' for Inactive)
ROOT
HETATM    1  S   LIG     1      18.579  33.820  13.317  1.00  0.00    -0.039 SA
HETATM    2  C   LIG     1      17.338  33.013  14.014  1.00  0.00     0.199 A 
HETATM    3  N   LIG     1      16.672  32.065  13.301  1.00  0.00    -0.231 NA
HETATM    4  C   LIG     1      15.636  31.373  13.844  1.00  0.00     0.155 A 
HETATM    5  C   LIG     1      15.244  31.637  15.154  1.00  0.00     0.119 A 
HETATM    6  C   LIG     1      15.939  32.619  15.879  1.00  0.00     0.160 A 
HETATM    7  N   LIG     1      16.972  33.289  15.299  1.00  0.00    -0.314 N 
HETATM    8  N   LIG     1      15.567  32.887  17.160  1.00  0.00    -0.239 NA
HETATM    9  C   LIG     1      14.536  32.219  17.744  1.00  0.00     0.138 A 
HETATM   10  C   LIG     1      13.846  31.242  17.018  1.00  0.00     0.136 A 
HETATM   11  N   LIG     1      14.215  30.970  15.737  1.00  0.00    -0.254 NA
HETATM   12  H   LIG     1      17.484  34.018  15.845  1.00  0.00     0.170 HD
ENDROOT
TORSDOF 0
ENDMDL
MODEL 4
REMARK VINA RESULT:      -5.2      3.113      5.091
REMARK  0 active torsions:
REMARK  status: ('A' for Active; 'I' for Inactive)
ROOT
HETATM    1  S   LIG     1      17.161  38.151  25.105  1.00  0.00    -0.039 SA
HETATM    2  C   LIG     1      17.410  37.693  23.554  1.00  0.00     0.199 A 
HETATM    3  N   LIG     1      16.957  36.481  23.133  1.00  0.00    -0.231 NA
HETATM    4  C   LIG     1      17.145  36.065  21.854  1.00  0.00     0.155 A 
HETATM    5  C   LIG     1      17.813  36.890  20.952  1.00  0.00     0.119 A 
HETATM    6  C   LIG     1      18.276  38.138  21.399  1.00  0.00     0.160 A 
HETATM    7  N   LIG     1      18.068  38.519  22.689  1.00  0.00    -0.314 N 
HETATM    8  N   LIG     1      18.930  38.954  20.530  1.00  0.00    -0.239 NA
HETATM    9  C   LIG     1      19.140  38.578  19.239  1.00  0.00     0.138 A 
HETATM   10  C   LIG     1      18.678  37.334  18.798  1.00  0.00     0.136 A 
HETATM   11  N   LIG     1      18.023  36.514  19.664  1.00  0.00    -0.254 NA
HETATM   12  H   LIG     1      18.415  39.449  23.013  1.00  0.00     0.170 HD
ENDROOT
TORSDOF 0
ENDMDL
MODEL 5
REMARK VINA RESULT:      -5.0      7.572      9.959
REMARK  0 active torsions:
REMARK  status: ('A' for Active; 'I' for Inactive)
ROOT
HETATM    1  S   LIG     1      15.232  33.212  19.641  1.00  0.00    -0.039 SA
HETATM    2  C   LIG     1      15.040  32.516  18.172  1.00  0.00     0.199 A 
HETATM    3  N   LIG     1      14.112  31.534  18.013  1.00  0.00    -0.231 NA
HETATM    4  C   LIG     1      13.923  30.932  16.810  1.00  0.00     0.155 A 
HETATM    5  C   LIG     1      14.693  31.323  15.716  1.00  0.00     0.119 A 
HETATM    6  C   LIG     1      15.648  32.337  15.894  1.00  0.00     0.160 A 
HETATM    7  N   LIG     1      15.806  32.916  17.116  1.00  0.00    -0.314 N 
HETATM    8  N   LIG     1      16.406  32.729  14.835  1.00  0.00    -0.239 NA
HETATM    9  C   LIG     1      16.251  32.154  13.612  1.00  0.00     0.138 A 
HETATM   10  C   LIG     1      15.299  31.143  13.439  1.00  0.00     0.136 A 
HETATM   11  N   LIG     1      14.538  30.748  14.495  1.00  0.00    -0.254 NA
HETATM   12  H   LIG     1      16.518  33.670  17.240  1.00  0.00     0.170 HD
ENDROOT
TORSDOF 0
ENDMDL
MODEL 6
REMARK VINA RESULT:      -5.0      3.521      4.404
REMARK  0 active torsions:
REMARK  status: ('A' for Active; 'I' for Inactive)
ROOT
HETATM    1  S   LIG     1      20.384  38.789  19.377  1.00  0.00    -0.039 SA
HETATM    2  C   LIG     1      19.117  38.136  20.179  1.00  0.00     0.199 A 
HETATM    3  N   LIG     1      18.683  38.716  21.331  1.00  0.00    -0.231 NA
HETATM    4  C   LIG     1      17.635  38.204  22.027  1.00  0.00     0.155 A 
HETATM    5  C   LIG     1      16.988  37.063  21.556  1.00  0.00     0.119 A 
HETATM    6  C   LIG     1      17.445  36.474  20.366  1.00  0.00     0.160 A 
HETATM    7  N   LIG     1      18.499  37.018  19.699  1.00  0.00    -0.314 N 
HETATM    8  N   LIG     1      16.823  35.360  19.895  1.00  0.00    -0.239 NA
HETATM    9  C   LIG     1      15.769  34.813  20.558  1.00  0.00     0.138 A 
HETATM   10  C   LIG     1      15.317  35.403  21.743  1.00  0.00     0.136 A 
HETATM   11  N   LIG     1      15.936  36.517  22.218  1.00  0.00    -0.254 NA
HETATM   12  H   LIG     1      18.833  36.573  18.814  1.00  0.00     0.170 HD
ENDROOT
TORSDOF 0
ENDMDL
MODEL 7
REMARK VINA RESULT:      -4.9      9.519     10.632
REMARK  0 active torsions:
REMARK  status: ('A' for Active; 'I' for Inactive)
ROOT
HETATM    1  S   LIG     1      13.065  30.646  16.698  1.00  0.00    -0.039 SA
HETATM    2  C   LIG     1      14.233  31.160  15.674  1.00  0.00     0.199 A 
HETATM    3  N   LIG     1      14.456  30.479  14.517  1.00  0.00    -0.231 NA
HETATM    4  C   LIG     1      15.417  30.873  13.641  1.00  0.00     0.155 A 
HETATM    5  C   LIG     1      16.192  31.995  13.929  1.00  0.00     0.119 A 
HETATM    6  C   LIG     1      15.953  32.688  15.127  1.00  0.00     0.160 A 
HETATM    7  N   LIG     1      14.980  32.261  15.977  1.00  0.00    -0.314 N 
HETATM    8  N   LIG     1      16.702  33.785  15.420  1.00  0.00    -0.239 NA
HETATM    9  C   LIG     1      17.674  34.216  14.572  1.00  0.00     0.138 A 
HETATM   10  C   LIG     1      17.910  33.522  13.380  1.00  0.00     0.136 A 
HETATM   11  N   LIG     1      17.163  32.425  13.082  1.00  0.00    -0.254 NA
HETATM   12  H   LIG     1      14.808  32.783  16.866  1.00  0.00     0.170 HD
ENDROOT
TORSDOF 0
ENDMDL
MODEL 8
REMARK VINA RESULT:      -4.9      1.822      2.345
REMARK  0 active torsions:
REMARK  status: ('A' for Active; 'I' for Inactive)
ROOT
HETATM    1  S   LIG     1      15.685  33.682  20.391  1.00  0.00    -0.039 SA
HETATM    2  C   LIG     1      16.376  35.022  21.024  1.00  0.00     0.199 A 
HETATM    3  N   LIG     1      17.075  35.862  20.213  1.00  0.00    -0.231 NA
HETATM    4  C   LIG     1      17.664  36.984  20.701  1.00  0.00     0.155 A 
HETATM    5  C   LIG     1      17.554  37.286  22.057  1.00  0.00     0.119 A 
HETATM    6  C   LIG     1      16.830  36.411  22.883  1.00  0.00     0.160 A 
HETATM    7  N   LIG     1      16.254  35.297  22.355  1.00  0.00    -0.314 N 
HETATM    8  N   LIG     1      16.714  36.693  24.208  1.00  0.00    -0.239 NA
HETATM    9  C   LIG     1      17.287  37.806  24.741  1.00  0.00     0.138 A 
HETATM   10  C   LIG     1      18.007  38.675  23.914  1.00  0.00     0.136 A 
HETATM   11  N   LIG     1      18.126  38.397  22.588  1.00  0.00    -0.254 NA
HETATM   12  H   LIG     1      15.717  34.651  22.977  1.00  0.00     0.170 HD
ENDROOT
TORSDOF 0
ENDMDL
MODEL 9
REMARK VINA RESULT:      -4.5      8.695     10.152
REMARK  0 active torsions:
REMARK  status: ('A' for Active; 'I' for Inactive)
ROOT
HETATM    1  S   LIG     1      14.968  28.311  13.500  1.00  0.00    -0.039 SA
HETATM    2  C   LIG     1      15.195  29.810  14.114  1.00  0.00     0.199 A 
HETATM    3  N   LIG     1      15.968  30.701  13.436  1.00  0.00    -0.231 NA
HETATM    4  C   LIG     1      16.180  31.955  13.912  1.00  0.00     0.155 A 
HETATM    5  C   LIG     1      15.600  32.340  15.119  1.00  0.00     0.119 A 
HETATM    6  C   LIG     1      14.805  31.411  15.810  1.00  0.00     0.160 A 
HETATM    7  N   LIG     1      14.616  30.165  15.298  1.00  0.00    -0.314 N 
HETATM    8  N   LIG     1      14.232  31.774  16.988  1.00  0.00    -0.239 NA
HETATM    9  C   LIG     1      14.417  33.019  17.503  1.00  0.00     0.138 A 
HETATM   10  C   LIG     1      15.210  33.942  16.812  1.00  0.00     0.136 A 
HETATM   11  N   LIG     1      15.785  33.584  15.633  1.00  0.00    -0.254 NA
HETATM   12  H   LIG     1      14.023  29.479  15.818  1.00  0.00     0.170 HD
ENDROOT
TORSDOF 0
ENDMDL
MODEL 10
REMARK VINA RESULT:      -4.5      8.722     10.905
REMARK  0 active torsions:
REMARK  status: ('A' for Active; 'I' for Inactive)
ROOT
HETATM    1  S   LIG     1      15.155  34.193  17.383  1.00  0.00    -0.039 SA
HETATM    2  C   LIG     1      14.654  32.825  16.638  1.00  0.00     0.199 A 
HETATM    3  N   LIG     1      13.446  32.290  16.962  1.00  0.00    -0.231 NA
HETATM    4  C   LIG     1      12.995  31.156  16.366  1.00  0.00     0.155 A 
HETATM    5  C   LIG     1      13.781  30.523  15.406  1.00  0.00     0.119 A 
HETATM    6  C   LIG     1      15.027  31.085  15.081  1.00  0.00     0.160 A 
HETATM    7  N   LIG     1      15.442  32.223  15.700  1.00  0.00    -0.314 N 
HETATM    8  N   LIG     1      15.805  30.478  14.145  1.00  0.00    -0.239 NA
HETATM    9  C   LIG     1      15.393  29.341  13.522  1.00  0.00     0.138 A 
HETATM   10  C   LIG     1      14.152  28.784  13.849  1.00  0.00     0.136 A 
HETATM   11  N   LIG     1      13.370  29.387  14.785  1.00  0.00    -0.254 NA
HETATM   12  H   LIG     1      16.370  32.635  15.452  1.00  0.00     0.170 HD
ENDROOT
TORSDOF 0
ENDMDL
MODEL 11
REMARK VINA RESULT:      -4.5      3.258      5.006
REMARK  0 active torsions:
REMARK  status: ('A' for Active; 'I' for Inactive)
ROOT
HETATM    1  S   LIG     1      16.877  36.439  24.316  1.00  0.00    -0.039 SA
HETATM    2  C   LIG     1      17.462  37.288  23.045  1.00  0.00     0.199 A 
HETATM    3  N   LIG     1      17.771  38.603  23.204  1.00  0.00    -0.231 NA
HETATM    4  C   LIG     1      18.259  39.342  22.174  1.00  0.00     0.155 A 
HETATM    5  C   LIG     1      18.446  38.746  20.928  1.00  0.00     0.119 A 
HETATM    6  C   LIG     1      18.123  37.388  20.777  1.00  0.00     0.160 A 
HETATM    7  N   LIG     1      17.637  36.683  21.835  1.00  0.00    -0.314 N 
HETATM    8  N   LIG     1      18.301  36.794  19.567  1.00  0.00    -0.239 NA
HETATM    9  C   LIG     1      18.787  37.494  18.507  1.00  0.00     0.138 A 
HETATM   10  C   LIG     1      19.108  38.848  18.662  1.00  0.00     0.136 A 
HETATM   11  N   LIG     1      18.931  39.446  19.870  1.00  0.00    -0.254 NA
HETATM   12  H   LIG     1      17.399  35.672  21.714  1.00  0.00     0.170 HD
ENDROOT
TORSDOF 0
ENDMDL
MODEL 12
REMARK VINA RESULT:      -4.5      2.541      3.167
REMARK  0 active torsions:
REMARK  status: ('A' for Active; 'I' for Inactive)
ROOT
HETATM    1  S   LIG     1      19.076  38.533  18.568  1.00  0.00    -0.039 SA
HETATM    2  C   LIG     1      18.595  38.519  20.131  1.00  0.00     0.199 A 
HETATM    3  N   LIG     1      18.705  39.653  20.875  1.00  0.00    -0.231 NA
HETATM    4  C   LIG     1      18.317  39.682  22.176  1.00  0.00     0.155 A 
HETATM    5  C   LIG     1      17.795  38.532  22.765  1.00  0.00     0.119 A 
HETATM    6  C   LIG     1      17.687  37.368  21.986  1.00  0.00     0.160 A 
HETATM    7  N   LIG     1      18.087  37.381  20.686  1.00  0.00    -0.314 N 
HETATM    8  N   LIG     1      17.180  36.239  22.548  1.00  0.00    -0.239 NA
HETATM    9  C   LIG     1      16.778  36.222  23.848  1.00  0.00     0.138 A 
HETATM   10  C   LIG     1      16.888  37.383  24.620  1.00  0.00     0.136 A 
HETATM   11  N   LIG     1      17.394  38.516  24.062  1.00  0.00    -0.254 NA
HETATM   12  H   LIG     1      18.003  36.510  20.113  1.00  0.00     0.170 HD
ENDROOT
TORSDOF 0
ENDMDL
MODEL 13
REMARK VINA RESULT:      -4.4      5.112      6.631
REMARK  0 active torsions:
REMARK  status: ('A' for Active; 'I' for Inactive)
ROOT
HETATM    1  S   LIG     1      13.414  30.680  16.390  1.00  0.00    -0.039 SA
HETATM    2  C   LIG     1      14.148  31.952  17.111  1.00  0.00     0.199 A 
HETATM    3  N   LIG     1      14.597  32.986  16.349  1.00  0.00    -0.231 NA
HETATM    4  C   LIG     1      15.211  34.060  16.910  1.00  0.00     0.155 A 
HETATM    5  C   LIG     1      15.387  34.107  18.291  1.00  0.00     0.119 A 
HETATM    6  C   LIG     1      14.920  33.034  19.066  1.00  0.00     0.160 A 
HETATM    7  N   LIG     1      14.309  31.977  18.466  1.00  0.00    -0.314 N 
HETATM    8  N   LIG     1      15.085  33.068  20.416  1.00  0.00    -0.239 NA
HETATM    9  C   LIG     1      15.694  34.123  21.021  1.00  0.00     0.138 A 
HETATM   10  C   LIG     1      16.159  35.191  20.245  1.00  0.00     0.136 A 
HETATM   11  N   LIG     1      15.996  35.161  18.895  1.00  0.00    -0.254 NA
HETATM   12  H   LIG     1      13.964  31.182  19.050  1.00  0.00     0.170 HD
ENDROOT
TORSDOF 0
ENDMDL
MODEL 14
REMARK VINA RESULT:      -4.4      4.908      7.415
REMARK  0 active torsions:
REMARK  status: ('A' for Active; 'I' for Inactive)
ROOT
HETATM    1  S   LIG     1      16.503  36.006  21.089  1.00  0.00    -0.039 SA
HETATM    2  C   LIG     1      15.879  34.737  20.267  1.00  0.00     0.199 A 
HETATM    3  N   LIG     1      15.404  33.663  20.955  1.00  0.00    -0.231 NA
HETATM    4  C   LIG     1      14.878  32.590  20.309  1.00  0.00     0.155 A 
HETATM    5  C   LIG     1      14.822  32.584  18.916  1.00  0.00     0.119 A 
HETATM    6  C   LIG     1      15.316  33.698  18.219  1.00  0.00     0.160 A 
HETATM    7  N   LIG     1      15.835  34.754  18.903  1.00  0.00    -0.314 N 
HETATM    8  N   LIG     1      15.268  33.705  16.860  1.00  0.00    -0.239 NA
HETATM    9  C   LIG     1      14.750  32.653  16.172  1.00  0.00     0.138 A 
HETATM   10  C   LIG     1      14.259  31.544  16.870  1.00  0.00     0.136 A 
HETATM   11  N   LIG     1      14.305  31.532  18.229  1.00  0.00    -0.254 NA
HETATM   12  H   LIG     1      16.200  35.579  18.377  1.00  0.00     0.170 HD
ENDROOT
TORSDOF 0
ENDMDL
MODEL 15
REMARK VINA RESULT:      -4.3      2.361      3.883
REMARK  0 active torsions:
REMARK  status: ('A' for Active; 'I' for Inactive)
ROOT
HETATM    1  S   LIG     1      17.119  34.716  26.244  1.00  0.00    -0.039 SA
HETATM    2  C   LIG     1      17.317  35.966  25.208  1.00  0.00     0.199 A 
HETATM    3  N   LIG     1      17.461  37.227  25.700  1.00  0.00    -0.231 NA
HETATM    4  C   LIG     1      17.627  38.291  24.872  1.00  0.00     0.155 A 
HETATM    5  C   LIG     1      17.651  38.093  23.493  1.00  0.00     0.119 A 
HETATM    6  C   LIG     1      17.501  36.788  22.999  1.00  0.00     0.160 A 
HETATM    7  N   LIG     1      17.337  35.748  23.861  1.00  0.00    -0.314 N 
HETATM    8  N   LIG     1      17.523  36.581  21.655  1.00  0.00    -0.239 NA
HETATM    9  C   LIG     1      17.688  37.616  20.789  1.00  0.00     0.138 A 
HETATM   10  C   LIG     1      17.836  38.916  21.286  1.00  0.00     0.136 A 
HETATM   11  N   LIG     1      17.815  39.128  22.629  1.00  0.00    -0.254 NA
HETATM   12  H   LIG     1      17.227  34.780  23.485  1.00  0.00     0.170 HD
ENDROOT
TORSDOF 0
ENDMDL
MODEL 16
REMARK VINA RESULT:      -4.3      2.288      3.963
REMARK  0 active torsions:
REMARK  status: ('A' for Active; 'I' for Inactive)
ROOT
HETATM    1  S   LIG     1      18.278  36.218  26.743  1.00  0.00    -0.039 SA
HETATM    2  C   LIG     1      17.550  36.389  25.288  1.00  0.00     0.199 A 
HETATM    3  N   LIG     1      16.985  37.582  24.958  1.00  0.00    -0.231 NA
HETATM    4  C   LIG     1      16.371  37.763  23.759  1.00  0.00     0.155 A 
HETATM    5  C   LIG     1      16.316  36.710  22.848  1.00  0.00     0.119 A 
HETATM    6  C   LIG     1      16.903  35.484  23.201  1.00  0.00     0.160 A 
HETATM    7  N   LIG     1      17.509  35.343  24.412  1.00  0.00    -0.314 N 
HETATM    8  N   LIG     1      16.857  34.448  22.321  1.00  0.00    -0.239 NA
HETATM    9  C   LIG     1      16.253  34.584  21.110  1.00  0.00     0.138 A 
HETATM   10  C   LIG     1      15.670  35.808  20.762  1.00  0.00     0.136 A 
HETATM   11  N   LIG     1      15.713  36.847  21.639  1.00  0.00    -0.254 NA
HETATM   12  H   LIG     1      17.943  34.428  24.666  1.00  0.00     0.170 HD
ENDROOT
TORSDOF 0
ENDMDL
MODEL 17
REMARK VINA RESULT:      -4.3      5.706      7.990
REMARK  0 active torsions:
REMARK  status: ('A' for Active; 'I' for Inactive)
ROOT
HETATM    1  S   LIG     1      15.560  34.618  21.308  1.00  0.00    -0.039 SA
HETATM    2  C   LIG     1      15.353  34.072  19.780  1.00  0.00     0.199 A 
HETATM    3  N   LIG     1      15.779  34.831  18.735  1.00  0.00    -0.231 NA
HETATM    4  C   LIG     1      15.625  34.413  17.451  1.00  0.00     0.155 A 
HETATM    5  C   LIG     1      15.019  33.185  17.196  1.00  0.00     0.119 A 
HETATM    6  C   LIG     1      14.583  32.411  18.283  1.00  0.00     0.160 A 
HETATM    7  N   LIG     1      14.757  32.865  19.554  1.00  0.00    -0.314 N 
HETATM    8  N   LIG     1      13.990  31.210  18.048  1.00  0.00    -0.239 NA
HETATM    9  C   LIG     1      13.815  30.751  16.780  1.00  0.00     0.138 A 
HETATM   10  C   LIG     1      14.251  31.525  15.699  1.00  0.00     0.136 A 
HETATM   11  N   LIG     1      14.845  32.727  15.929  1.00  0.00    -0.254 NA
HETATM   12  H   LIG     1      14.429  32.283  20.358  1.00  0.00     0.170 HD
ENDROOT
TORSDOF 0
ENDMDL
MODEL 18
REMARK VINA RESULT:      -4.2     11.130     12.737
REMARK  0 active torsions:
REMARK  status: ('A' for Active; 'I' for Inactive)
ROOT
HETATM    1  S   LIG     1      11.764  26.351  12.933  1.00  0.00    -0.039 SA
HETATM    2  C   LIG     1      12.951  27.393  13.361  1.00  0.00     0.199 A 
HETATM    3  N   LIG     1      14.236  27.127  13.003  1.00  0.00    -0.231 NA
HETATM    4  C   LIG     1      15.250  27.966  13.340  1.00  0.00     0.155 A 
HETATM    5  C   LIG     1      14.973  29.123  14.066  1.00  0.00     0.119 A 
HETATM    6  C   LIG     1      13.642  29.386  14.430  1.00  0.00     0.160 A 
HETATM    7  N   LIG     1      12.655  28.519  14.073  1.00  0.00    -0.314 N 
HETATM    8  N   LIG     1      13.358  30.511  15.139  1.00  0.00    -0.239 NA
HETATM    9  C   LIG     1      14.340  31.380  15.497  1.00  0.00     0.138 A 
HETATM   10  C   LIG     1      15.665  31.114  15.133  1.00  0.00     0.136 A 
HETATM   11  N   LIG     1      15.954  29.990  14.424  1.00  0.00    -0.254 NA
HETATM   12  H   LIG     1      11.668  28.722  14.347  1.00  0.00     0.170 HD
ENDROOT
TORSDOF 0
ENDMDL
MODEL 19
REMARK VINA RESULT:      -3.7      8.919     10.916
REMARK  0 active torsions:
REMARK  status: ('A' for Active; 'I' for Inactive)
ROOT
HETATM    1  S   LIG     1      15.260  34.016  17.100  1.00  0.00    -0.039 SA
HETATM    2  C   LIG     1      16.019  33.568  15.722  1.00  0.00     0.199 A 
HETATM    3  N   LIG     1      15.557  32.497  15.022  1.00  0.00    -0.231 NA
HETATM    4  C   LIG     1      16.160  32.093  13.873  1.00  0.00     0.155 A 
HETATM    5  C   LIG     1      17.272  32.786  13.399  1.00  0.00     0.119 A 
HETATM    6  C   LIG     1      17.739  33.889  14.132  1.00  0.00     0.160 A 
HETATM    7  N   LIG     1      17.107  34.262  15.278  1.00  0.00    -0.314 N 
HETATM    8  N   LIG     1      18.824  34.574  13.681  1.00  0.00    -0.239 NA
HETATM    9  C   LIG     1      19.458  34.206  12.535  1.00  0.00     0.138 A 
HETATM   10  C   LIG     1      18.990  33.106  11.809  1.00  0.00     0.136 A 
HETATM   11  N   LIG     1      17.905  32.418  12.255  1.00  0.00    -0.254 NA
HETATM   12  H   LIG     1      17.460  35.084  15.816  1.00  0.00     0.170 HD
ENDROOT
TORSDOF 0
ENDMDL
MODEL 20
REMARK VINA RESULT:      -3.7     10.952     12.591
REMARK  0 active torsions:
REMARK  status: ('A' for Active; 'I' for Inactive)
ROOT
HETATM    1  S   LIG     1      16.978  33.015  14.873  1.00  0.00    -0.039 SA
HETATM    2  C   LIG     1      17.709  33.672  13.565  1.00  0.00     0.199 A 
HETATM    3  N   LIG     1      16.998  34.487  12.740  1.00  0.00    -0.231 NA
HETATM    4  C   LIG     1      17.569  35.052  11.644  1.00  0.00     0.155 A 
HETATM    5  C   LIG     1      18.907  34.793  11.355  1.00  0.00     0.119 A 
HETATM    6  C   LIG     1      19.630  33.949  12.215  1.00  0.00     0.160 A 
HETATM    7  N   LIG     1      19.021  33.404  13.303  1.00  0.00    -0.314 N 
HETATM    8  N   LIG     1      20.937  33.689  11.945  1.00  0.00    -0.239 NA
HETATM    9  C   LIG     1      21.550  34.232  10.859  1.00  0.00     0.138 A 
HETATM   10  C   LIG     1      20.827  35.072  10.005  1.00  0.00     0.136 A 
HETATM   11  N   LIG     1      19.519  35.336  10.271  1.00  0.00    -0.254 NA
HETATM   12  H   LIG     1      19.566  32.778  13.937  1.00  0.00     0.170 HD
ENDROOT
TORSDOF 0
ENDMDL
