MODEL 1
REMARK VINA RESULT:      -6.6      0.000      0.000
REMARK  1 active torsions:
REMARK  status: ('A' for Active; 'I' for Inactive)
REMARK    1  A    between atoms: O_1  and  C_2 
ROOT
HETATM    1  C   LIG     1      17.676  36.725  20.449  1.00  0.00     0.098 A 
HETATM    2  C   LIG     1      16.791  36.062  21.325  1.00  0.00     0.042 A 
HETATM    3  I   LIG     1      15.693  34.342  20.752  1.00  0.00    -0.042 I 
HETATM    4  C   LIG     1      16.614  36.541  22.629  1.00  0.00     0.043 A 
HETATM    5  C   LIG     1      17.311  37.672  23.069  1.00  0.00     0.047 A 
HETATM    6  C   LIG     1      17.125  38.158  24.411  1.00  0.00     0.099 C 
HETATM    7  N   LIG     1      16.974  38.549  25.489  1.00  0.00    -0.191 NA
HETATM    8  C   LIG     1      18.188  38.330  22.200  1.00  0.00     0.043 A 
HETATM    9  C   LIG     1      18.371  37.860  20.896  1.00  0.00     0.042 A 
HETATM   10  I   LIG     1      19.708  38.885  19.617  1.00  0.00    -0.042 I 
ENDROOT
BRANCH   1  11
HETATM   11  O   LIG     1      17.880  36.280  19.142  1.00  0.00    -0.358 OA
HETATM   12  H   LIG     1      18.783  36.292  18.689  1.00  0.00     0.217 HD
ENDBRANCH   1  11
TORSDOF 1
ENDMDL
MODEL 2
REMARK VINA RESULT:      -6.5      0.070      3.010
REMARK  1 active torsions:
REMARK  status: ('A' for Active; 'I' for Inactive)
REMARK    1  A    between atoms: O_1  and  C_2 
ROOT
HETATM    1  C   LIG     1      17.625  36.720  20.496  1.00  0.00     0.098 A 
HETATM    2  C   LIG     1      18.334  37.860  20.931  1.00  0.00     0.042 A 
HETATM    3  I   LIG     1      19.670  38.920  19.672  1.00  0.00    -0.042 I 
HETATM    4  C   LIG     1      18.165  38.328  22.240  1.00  0.00     0.043 A 
HETATM    5  C   LIG     1      17.296  37.672  23.119  1.00  0.00     0.047 A 
HETATM    6  C   LIG     1      17.127  38.159  24.463  1.00  0.00     0.099 C 
HETATM    7  N   LIG     1      16.992  38.551  25.544  1.00  0.00    -0.191 NA
HETATM    8  C   LIG     1      16.594  36.542  22.690  1.00  0.00     0.043 A 
HETATM    9  C   LIG     1      16.756  36.067  21.385  1.00  0.00     0.042 A 
HETATM   10  I   LIG     1      15.673  34.355  20.777  1.00  0.00    -0.042 I 
ENDROOT
BRANCH   1  11
HETATM   11  O   LIG     1      17.765  36.223  19.200  1.00  0.00    -0.358 OA
HETATM   12  H   LIG     1      18.614  35.787  18.866  1.00  0.00     0.217 HD
ENDBRANCH   1  11
TORSDOF 1
ENDMDL
MODEL 3
REMARK VINA RESULT:      -6.0      3.158      3.783
REMARK  1 active torsions:
REMARK  status: ('A' for Active; 'I' for Inactive)
REMARK    1  A    between atoms: O_1  and  C_2 
ROOT
HETATM    1  C   LIG     1      18.262  38.133  21.998  1.00  0.00     0.098 A 
HETATM    2  C   LIG     1      17.508  37.362  22.908  1.00  0.00     0.042 A 
HETATM    3  I   LIG     1      17.311  37.881  24.953  1.00  0.00    -0.042 I 
HETATM    4  C   LIG     1      16.855  36.205  22.465  1.00  0.00     0.043 A 
HETATM    5  C   LIG     1      16.946  35.809  21.125  1.00  0.00     0.047 A 
HETATM    6  C   LIG     1      16.271  34.619  20.678  1.00  0.00     0.099 C 
HETATM    7  N   LIG     1      15.730  33.661  20.319  1.00  0.00    -0.191 NA
HETATM    8  C   LIG     1      17.694  36.573  20.223  1.00  0.00     0.043 A 
HETATM    9  C   LIG     1      18.349  37.729  20.656  1.00  0.00     0.042 A 
HETATM   10  I   LIG     1      19.469  38.855  19.257  1.00  0.00    -0.042 I 
ENDROOT
BRANCH   1  11
HETATM   11  O   LIG     1      18.927  39.292  22.399  1.00  0.00    -0.358 OA
HETATM   12  H   LIG     1      19.045  39.554  23.368  1.00  0.00     0.217 HD
ENDBRANCH   1  11
TORSDOF 1
ENDMDL
MODEL 4
REMARK VINA RESULT:      -6.0      3.159      4.323
REMARK  1 active torsions:
REMARK  status: ('A' for Active; 'I' for Inactive)
REMARK    1  A    between atoms: O_1  and  C_2 
ROOT
HETATM    1  C   LIG     1      18.224  38.071  22.053  1.00  0.00     0.098 A 
HETATM    2  C   LIG     1      18.285  37.660  20.705  1.00  0.00     0.042 A 
HETATM    3  I   LIG     1      19.389  38.720  19.239  1.00  0.00    -0.042 I 
HETATM    4  C   LIG     1      17.600  36.509  20.296  1.00  0.00     0.043 A 
HETATM    5  C   LIG     1      16.854  35.765  21.218  1.00  0.00     0.047 A 
HETATM    6  C   LIG     1      16.152  34.583  20.790  1.00  0.00     0.099 C 
HETATM    7  N   LIG     1      15.587  33.634  20.446  1.00  0.00    -0.191 NA
HETATM    8  C   LIG     1      16.791  36.173  22.554  1.00  0.00     0.043 A 
HETATM    9  C   LIG     1      17.472  37.321  22.971  1.00  0.00     0.042 A 
HETATM   10  I   LIG     1      17.351  37.901  25.002  1.00  0.00    -0.042 I 
ENDROOT
BRANCH   1  11
HETATM   11  O   LIG     1      18.892  39.212  22.500  1.00  0.00    -0.358 OA
HETATM   12  H   LIG     1      18.414  40.054  22.790  1.00  0.00     0.217 HD
ENDBRANCH   1  11
TORSDOF 1
ENDMDL
MODEL 5
REMARK VINA RESULT:      -5.2      3.126      3.705
REMARK  1 active torsions:
REMARK  status: ('A' for Active; 'I' for Inactive)
REMARK    1  A    between atoms: O_1  and  C_2 
ROOT
HETATM    1  C   LIG     1      16.886  36.202  22.946  1.00  0.00     0.098 A 
HETATM    2  C   LIG     1      16.811  36.013  21.550  1.00  0.00     0.042 A 
HETATM    3  I   LIG     1      15.807  34.366  20.674  1.00  0.00    -0.042 I 
HETATM    4  C   LIG     1      17.417  36.938  20.690  1.00  0.00     0.043 A 
HETATM    5  C   LIG     1      18.095  38.048  21.207  1.00  0.00     0.047 A 
HETATM    6  C   LIG     1      18.715  38.994  20.316  1.00  0.00     0.099 C 
HETATM    7  N   LIG     1      19.213  39.754  19.600  1.00  0.00    -0.191 NA
HETATM    8  C   LIG     1      18.170  38.235  22.591  1.00  0.00     0.043 A 
HETATM    9  C   LIG     1      17.568  37.317  23.458  1.00  0.00     0.042 A 
HETATM   10  I   LIG     1      17.705  37.640  25.544  1.00  0.00    -0.042 I 
ENDROOT
BRANCH   1  11
HETATM   11  O   LIG     1      16.296  35.304  23.837  1.00  0.00    -0.358 OA
HETATM   12  H   LIG     1      15.830  35.595  24.685  1.00  0.00     0.217 HD
ENDBRANCH   1  11
TORSDOF 1
ENDMDL
MODEL 6
REMARK VINA RESULT:      -5.2      3.121      4.228
REMARK  1 active torsions:
REMARK  status: ('A' for Active; 'I' for Inactive)
REMARK    1  A    between atoms: O_1  and  C_2 
ROOT
HETATM    1  C   LIG     1      16.861  36.258  22.786  1.00  0.00     0.098 A 
HETATM    2  C   LIG     1      17.545  37.378  23.305  1.00  0.00     0.042 A 
HETATM    3  I   LIG     1      17.619  37.808  25.379  1.00  0.00    -0.042 I 
HETATM    4  C   LIG     1      18.209  38.252  22.436  1.00  0.00     0.043 A 
HETATM    5  C   LIG     1      18.198  38.022  21.055  1.00  0.00     0.047 A 
HETATM    6  C   LIG     1      18.883  38.925  20.168  1.00  0.00     0.099 C 
HETATM    7  N   LIG     1      19.433  39.652  19.455  1.00  0.00    -0.191 NA
HETATM    8  C   LIG     1      17.519  36.913  20.540  1.00  0.00     0.043 A 
HETATM    9  C   LIG     1      16.853  36.035  21.400  1.00  0.00     0.042 A 
HETATM   10  I   LIG     1      15.840  34.369  20.578  1.00  0.00    -0.042 I 
ENDROOT
BRANCH   1  11
HETATM   11  O   LIG     1      16.187  35.363  23.619  1.00  0.00    -0.358 OA
HETATM   12  H   LIG     1      15.276  35.555  24.012  1.00  0.00     0.217 HD
ENDBRANCH   1  11
TORSDOF 1
ENDMDL
MODEL 7
REMARK VINA RESULT:      -4.6      1.185      3.233
REMARK  1 active torsions:
REMARK  status: ('A' for Active; 'I' for Inactive)
REMARK    1  A    between atoms: O_1  and  C_2 
ROOT
HETATM    1  C   LIG     1      17.211  36.132  20.573  1.00  0.00     0.098 A 
HETATM    2  C   LIG     1      17.889  37.191  21.214  1.00  0.00     0.042 A 
HETATM    3  I   LIG     1      18.938  38.688  20.142  1.00  0.00    -0.042 I 
HETATM    4  C   LIG     1      17.883  37.276  22.612  1.00  0.00     0.043 A 
HETATM    5  C   LIG     1      17.207  36.318  23.377  1.00  0.00     0.047 A 
HETATM    6  C   LIG     1      17.205  36.412  24.813  1.00  0.00     0.099 C 
HETATM    7  N   LIG     1      17.203  36.488  25.968  1.00  0.00    -0.191 NA
HETATM    8  C   LIG     1      16.536  35.268  22.742  1.00  0.00     0.043 A 
HETATM    9  C   LIG     1      16.537  35.174  21.347  1.00  0.00     0.042 A 
HETATM   10  I   LIG     1      15.508  33.570  20.428  1.00  0.00    -0.042 I 
ENDROOT
BRANCH   1  11
HETATM   11  O   LIG     1      17.194  36.012  19.183  1.00  0.00    -0.358 OA
HETATM   12  H   LIG     1      16.439  36.360  18.608  1.00  0.00     0.217 HD
ENDBRANCH   1  11
TORSDOF 1
ENDMDL
MODEL 8
REMARK VINA RESULT:      -4.5      8.493      9.673
REMARK  1 active torsions:
REMARK  status: ('A' for Active; 'I' for Inactive)
REMARK    1  A    between atoms: O_1  and  C_2 
ROOT
HETATM    1  C   LIG     1      16.212  32.953  15.498  1.00  0.00     0.098 A 
HETATM    2  C   LIG     1      15.342  32.282  16.385  1.00  0.00     0.042 A 
HETATM    3  I   LIG     1      15.030  32.926  18.380  1.00  0.00    -0.042 I 
HETATM    4  C   LIG     1      14.648  31.145  15.953  1.00  0.00     0.043 A 
HETATM    5  C   LIG     1      14.812  30.670  14.646  1.00  0.00     0.047 A 
HETATM    6  C   LIG     1      14.095  29.501  14.209  1.00  0.00     0.099 C 
HETATM    7  N   LIG     1      13.519  28.561  13.858  1.00  0.00    -0.191 NA
HETATM    8  C   LIG     1      15.674  31.334  13.767  1.00  0.00     0.043 A 
HETATM    9  C   LIG     1      16.371  32.470  14.190  1.00  0.00     0.042 A 
HETATM   10  I   LIG     1      17.664  33.442  12.827  1.00  0.00    -0.042 I 
ENDROOT
BRANCH   1  11
HETATM   11  O   LIG     1      16.921  34.088  15.891  1.00  0.00    -0.358 OA
HETATM   12  H   LIG     1      16.892  34.961  15.381  1.00  0.00     0.217 HD
ENDBRANCH   1  11
TORSDOF 1
ENDMDL
MODEL 9
REMARK VINA RESULT:      -4.4      8.290      9.662
REMARK  1 active torsions:
REMARK  status: ('A' for Active; 'I' for Inactive)
REMARK    1  A    between atoms: O_1  and  C_2 
ROOT
HETATM    1  C   LIG     1      16.544  33.591  15.208  1.00  0.00     0.098 A 
HETATM    2  C   LIG     1      16.914  32.943  14.010  1.00  0.00     0.042 A 
HETATM    3  I   LIG     1      18.318  33.769  12.655  1.00  0.00    -0.042 I 
HETATM    4  C   LIG     1      16.345  31.706  13.683  1.00  0.00     0.043 A 
HETATM    5  C   LIG     1      15.412  31.108  14.538  1.00  0.00     0.047 A 
HETATM    6  C   LIG     1      14.832  29.836  14.195  1.00  0.00     0.099 C 
HETATM    7  N   LIG     1      14.365  28.814  13.919  1.00  0.00    -0.191 NA
HETATM    8  C   LIG     1      15.044  31.750  15.725  1.00  0.00     0.043 A 
HETATM    9  C   LIG     1      15.607  32.985  16.060  1.00  0.00     0.042 A 
HETATM   10  I   LIG     1      15.022  33.920  17.866  1.00  0.00    -0.042 I 
ENDROOT
BRANCH   1  11
HETATM   11  O   LIG     1      17.088  34.824  15.570  1.00  0.00    -0.358 OA
HETATM   12  H   LIG     1      16.601  35.492  16.151  1.00  0.00     0.217 HD
ENDBRANCH   1  11
TORSDOF 1
ENDMDL
MODEL 10
REMARK VINA RESULT:      -4.4      7.427      8.368
REMARK  1 active torsions:
REMARK  status: ('A' for Active; 'I' for Inactive)
REMARK    1  A    between atoms: O_1  and  C_2 
ROOT
HETATM    1  C   LIG     1      15.745  31.634  14.093  1.00  0.00     0.098 A 
HETATM    2  C   LIG     1      14.825  31.002  14.957  1.00  0.00     0.042 A 
HETATM    3  I   LIG     1      13.603  29.386  14.337  1.00  0.00    -0.042 I 
HETATM    4  C   LIG     1      14.698  31.443  16.280  1.00  0.00     0.043 A 
HETATM    5  C   LIG     1      15.478  32.506  16.751  1.00  0.00     0.047 A 
HETATM    6  C   LIG     1      15.341  32.953  18.112  1.00  0.00     0.099 C 
HETATM    7  N   LIG     1      15.231  33.313  19.206  1.00  0.00    -0.191 NA
HETATM    8  C   LIG     1      16.388  33.133  15.894  1.00  0.00     0.043 A 
HETATM    9  C   LIG     1      16.522  32.701  14.572  1.00  0.00     0.042 A 
HETATM   10  I   LIG     1      17.913  33.677  13.312  1.00  0.00    -0.042 I 
ENDROOT
BRANCH   1  11
HETATM   11  O   LIG     1      15.901  31.225  12.768  1.00  0.00    -0.358 OA
HETATM   12  H   LIG     1      16.803  31.041  12.350  1.00  0.00     0.217 HD
ENDBRANCH   1  11
TORSDOF 1
ENDMDL
MODEL 11
REMARK VINA RESULT:      -4.4      7.449      8.914
REMARK  1 active torsions:
REMARK  status: ('A' for Active; 'I' for Inactive)
REMARK    1  A    between atoms: O_1  and  C_2 
ROOT
HETATM    1  C   LIG     1      15.716  31.568  14.103  1.00  0.00     0.098 A 
HETATM    2  C   LIG     1      16.508  32.647  14.549  1.00  0.00     0.042 A 
HETATM    3  I   LIG     1      17.916  33.621  13.300  1.00  0.00    -0.042 I 
HETATM    4  C   LIG     1      16.376  33.110  15.864  1.00  0.00     0.043 A 
HETATM    5  C   LIG     1      15.463  32.508  16.738  1.00  0.00     0.047 A 
HETATM    6  C   LIG     1      15.333  32.990  18.089  1.00  0.00     0.099 C 
HETATM    7  N   LIG     1      15.230  33.377  19.174  1.00  0.00    -0.191 NA
HETATM    8  C   LIG     1      14.678  31.438  16.297  1.00  0.00     0.043 A 
HETATM    9  C   LIG     1      14.803  30.969  14.986  1.00  0.00     0.042 A 
HETATM   10  I   LIG     1      13.595  29.349  14.360  1.00  0.00    -0.042 I 
ENDROOT
BRANCH   1  11
HETATM   11  O   LIG     1      15.817  31.077  12.800  1.00  0.00    -0.358 OA
HETATM   12  H   LIG     1      16.613  30.549  12.470  1.00  0.00     0.217 HD
ENDBRANCH   1  11
TORSDOF 1
ENDMDL
MODEL 12
REMARK VINA RESULT:      -4.3      8.389      9.671
REMARK  1 active torsions:
REMARK  status: ('A' for Active; 'I' for Inactive)
REMARK    1  A    between atoms: O_1  and  C_2 
ROOT
HETATM    1  C   LIG     1      14.334  31.019  16.202  1.00  0.00     0.098 A 
HETATM    2  C   LIG     1      14.425  30.536  14.879  1.00  0.00     0.042 A 
HETATM    3  I   LIG     1      13.197  28.972  14.148  1.00  0.00    -0.042 I 
HETATM    4  C   LIG     1      15.356  31.098  13.997  1.00  0.00     0.043 A 
HETATM    5  C   LIG     1      16.196  32.136  14.419  1.00  0.00     0.047 A 
HETATM    6  C   LIG     1      17.150  32.708  13.506  1.00  0.00     0.099 C 
HETATM    7  N   LIG     1      17.917  33.168  12.772  1.00  0.00    -0.191 NA
HETATM    8  C   LIG     1      16.106  32.613  15.731  1.00  0.00     0.043 A 
HETATM    9  C   LIG     1      15.180  32.058  16.619  1.00  0.00     0.042 A 
HETATM   10  I   LIG     1      15.078  32.812  18.593  1.00  0.00    -0.042 I 
ENDROOT
BRANCH   1  11
HETATM   11  O   LIG     1      13.420  30.486  17.112  1.00  0.00    -0.358 OA
HETATM   12  H   LIG     1      12.716  29.808  16.854  1.00  0.00     0.217 HD
ENDBRANCH   1  11
TORSDOF 1
ENDMDL
MODEL 13
REMARK VINA RESULT:      -4.3      8.428      9.951
REMARK  1 active torsions:
REMARK  status: ('A' for Active; 'I' for Inactive)
REMARK    1  A    between atoms: O_1  and  C_2 
ROOT
HETATM    1  C   LIG     1      14.302  30.996  16.146  1.00  0.00     0.098 A 
HETATM    2  C   LIG     1      15.146  32.039  16.585  1.00  0.00     0.042 A 
HETATM    3  I   LIG     1      15.063  32.821  18.553  1.00  0.00    -0.042 I 
HETATM    4  C   LIG     1      16.081  32.594  15.704  1.00  0.00     0.043 A 
HETATM    5  C   LIG     1      16.185  32.121  14.390  1.00  0.00     0.047 A 
HETATM    6  C   LIG     1      17.150  32.697  13.490  1.00  0.00     0.099 C 
HETATM    7  N   LIG     1      17.925  33.160  12.767  1.00  0.00    -0.191 NA
HETATM    8  C   LIG     1      15.349  31.088  13.955  1.00  0.00     0.043 A 
HETATM    9  C   LIG     1      14.412  30.527  14.828  1.00  0.00     0.042 A 
HETATM   10  I   LIG     1      13.168  28.966  14.127  1.00  0.00    -0.042 I 
ENDROOT
BRANCH   1  11
HETATM   11  O   LIG     1      13.357  30.416  16.993  1.00  0.00    -0.358 OA
HETATM   12  H   LIG     1      12.464  30.071  16.669  1.00  0.00     0.217 HD
ENDBRANCH   1  11
TORSDOF 1
ENDMDL
