MODEL 1
REMARK VINA RESULT:      -6.7      0.000      0.000
REMARK  1 active torsions:
REMARK  status: ('A' for Active; 'I' for Inactive)
REMARK    1  A    between atoms: C_10  and  O_11 
ROOT
HETATM    1 BR   LIG     1      16.052  34.426  20.862  1.00  0.00    -0.048 Br
HETATM    2  C   LIG     1      16.932  36.045  21.388  1.00  0.00     0.046 A 
HETATM    3  C   LIG     1      16.730  36.515  22.692  1.00  0.00     0.044 A 
HETATM    4  C   LIG     1      17.350  37.692  23.124  1.00  0.00     0.047 A 
HETATM    5  C   LIG     1      17.139  38.168  24.466  1.00  0.00     0.099 C 
HETATM    6  N   LIG     1      16.969  38.552  25.544  1.00  0.00    -0.191 NA
HETATM    7  C   LIG     1      18.177  38.405  22.249  1.00  0.00     0.044 A 
HETATM    8  C   LIG     1      18.385  37.944  20.945  1.00  0.00     0.046 A 
HETATM    9 BR   LIG     1      19.521  38.942  19.773  1.00  0.00    -0.048 Br
HETATM   10  C   LIG     1      17.765  36.763  20.506  1.00  0.00     0.100 A 
ENDROOT
BRANCH  10  11
HETATM   11  O   LIG     1      17.990  36.326  19.198  1.00  0.00    -0.358 OA
HETATM   12  H   LIG     1      18.423  35.438  18.981  1.00  0.00     0.217 HD
ENDBRANCH  10  11
TORSDOF 1
ENDMDL
MODEL 2
REMARK VINA RESULT:      -6.7      0.049      2.873
REMARK  1 active torsions:
REMARK  status: ('A' for Active; 'I' for Inactive)
REMARK    1  A    between atoms: C_10  and  O_11 
ROOT
HETATM    1 BR   LIG     1      19.489  38.980  19.807  1.00  0.00    -0.048 Br
HETATM    2  C   LIG     1      18.352  37.953  20.959  1.00  0.00     0.046 A 
HETATM    3  C   LIG     1      18.154  38.407  22.269  1.00  0.00     0.044 A 
HETATM    4  C   LIG     1      17.334  37.692  23.148  1.00  0.00     0.047 A 
HETATM    5  C   LIG     1      17.134  38.164  24.493  1.00  0.00     0.099 C 
HETATM    6  N   LIG     1      16.973  38.543  25.574  1.00  0.00    -0.191 NA
HETATM    7  C   LIG     1      16.707  36.518  22.717  1.00  0.00     0.044 A 
HETATM    8  C   LIG     1      16.898  36.058  21.410  1.00  0.00     0.046 A 
HETATM    9 BR   LIG     1      16.026  34.448  20.851  1.00  0.00    -0.048 Br
HETATM   10  C   LIG     1      17.721  36.770  20.523  1.00  0.00     0.100 A 
ENDROOT
BRANCH  10  11
HETATM   11  O   LIG     1      17.895  36.287  19.224  1.00  0.00    -0.358 OA
HETATM   12  H   LIG     1      17.789  35.310  18.982  1.00  0.00     0.217 HD
ENDBRANCH  10  11
TORSDOF 1
ENDMDL
MODEL 3
REMARK VINA RESULT:      -6.3      3.628      4.258
REMARK  1 active torsions:
REMARK  status: ('A' for Active; 'I' for Inactive)
REMARK    1  A    between atoms: C_10  and  O_11 
ROOT
HETATM    1 BR   LIG     1      17.661  35.067  26.137  1.00  0.00    -0.048 Br
HETATM    2  C   LIG     1      17.341  35.801  24.396  1.00  0.00     0.046 A 
HETATM    3  C   LIG     1      16.912  34.936  23.381  1.00  0.00     0.044 A 
HETATM    4  C   LIG     1      16.665  35.423  22.094  1.00  0.00     0.047 A 
HETATM    5  C   LIG     1      16.224  34.528  21.056  1.00  0.00     0.099 C 
HETATM    6  N   LIG     1      15.870  33.809  20.221  1.00  0.00    -0.191 NA
HETATM    7  C   LIG     1      16.847  36.782  21.816  1.00  0.00     0.044 A 
HETATM    8  C   LIG     1      17.274  37.654  22.823  1.00  0.00     0.046 A 
HETATM    9 BR   LIG     1      17.513  39.508  22.412  1.00  0.00    -0.048 Br
HETATM   10  C   LIG     1      17.524  37.171  24.117  1.00  0.00     0.100 A 
ENDROOT
BRANCH  10  11
HETATM   11  O   LIG     1      17.950  38.065  25.103  1.00  0.00    -0.358 OA
HETATM   12  H   LIG     1      17.919  39.069  24.986  1.00  0.00     0.217 HD
ENDBRANCH  10  11
TORSDOF 1
ENDMDL
MODEL 4
REMARK VINA RESULT:      -6.2      3.550      4.833
REMARK  1 active torsions:
REMARK  status: ('A' for Active; 'I' for Inactive)
REMARK    1  A    between atoms: C_10  and  O_11 
ROOT
HETATM    1 BR   LIG     1      17.900  39.436  22.072  1.00  0.00    -0.048 Br
HETATM    2  C   LIG     1      17.501  37.640  22.610  1.00  0.00     0.046 A 
HETATM    3  C   LIG     1      17.011  36.753  21.643  1.00  0.00     0.044 A 
HETATM    4  C   LIG     1      16.705  35.432  21.986  1.00  0.00     0.047 A 
HETATM    5  C   LIG     1      16.203  34.525  20.987  1.00  0.00     0.099 C 
HETATM    6  N   LIG     1      15.799  33.796  20.185  1.00  0.00    -0.191 NA
HETATM    7  C   LIG     1      16.888  34.993  23.302  1.00  0.00     0.044 A 
HETATM    8  C   LIG     1      17.377  35.872  24.274  1.00  0.00     0.046 A 
HETATM    9 BR   LIG     1      17.616  35.241  26.065  1.00  0.00    -0.048 Br
HETATM   10  C   LIG     1      17.686  37.199  23.936  1.00  0.00     0.100 A 
ENDROOT
BRANCH  10  11
HETATM   11  O   LIG     1      18.171  38.055  24.928  1.00  0.00    -0.358 OA
HETATM   12  H   LIG     1      18.996  37.849  25.476  1.00  0.00     0.217 HD
ENDBRANCH  10  11
TORSDOF 1
ENDMDL
MODEL 5
REMARK VINA RESULT:      -6.2      3.097      3.728
REMARK  1 active torsions:
REMARK  status: ('A' for Active; 'I' for Inactive)
REMARK    1  A    between atoms: C_10  and  O_11 
ROOT
HETATM    1 BR   LIG     1      17.192  38.122  24.651  1.00  0.00    -0.048 Br
HETATM    2  C   LIG     1      17.466  37.556  22.841  1.00  0.00     0.046 A 
HETATM    3  C   LIG     1      16.828  36.386  22.410  1.00  0.00     0.044 A 
HETATM    4  C   LIG     1      16.996  35.930  21.098  1.00  0.00     0.047 A 
HETATM    5  C   LIG     1      16.337  34.728  20.662  1.00  0.00     0.099 C 
HETATM    6  N   LIG     1      15.807  33.761  20.310  1.00  0.00    -0.191 NA
HETATM    7  C   LIG     1      17.807  36.647  20.210  1.00  0.00     0.044 A 
HETATM    8  C   LIG     1      18.448  37.816  20.631  1.00  0.00     0.046 A 
HETATM    9 BR   LIG     1      19.550  38.773  19.393  1.00  0.00    -0.048 Br
HETATM   10  C   LIG     1      18.283  38.278  21.947  1.00  0.00     0.100 A 
ENDROOT
BRANCH  10  11
HETATM   11  O   LIG     1      18.936  39.449  22.340  1.00  0.00    -0.358 OA
HETATM   12  H   LIG     1      19.942  39.549  22.325  1.00  0.00     0.217 HD
ENDBRANCH  10  11
TORSDOF 1
ENDMDL
MODEL 6
REMARK VINA RESULT:      -6.1      3.109      4.247
REMARK  1 active torsions:
REMARK  status: ('A' for Active; 'I' for Inactive)
REMARK    1  A    between atoms: C_10  and  O_11 
ROOT
HETATM    1 BR   LIG     1      19.644  38.731  19.348  1.00  0.00    -0.048 Br
HETATM    2  C   LIG     1      18.499  37.832  20.595  1.00  0.00     0.046 A 
HETATM    3  C   LIG     1      17.846  36.667  20.173  1.00  0.00     0.044 A 
HETATM    4  C   LIG     1      17.000  35.974  21.046  1.00  0.00     0.047 A 
HETATM    5  C   LIG     1      16.333  34.777  20.606  1.00  0.00     0.099 C 
HETATM    6  N   LIG     1      15.796  33.815  20.252  1.00  0.00    -0.191 NA
HETATM    7  C   LIG     1      16.804  36.447  22.348  1.00  0.00     0.044 A 
HETATM    8  C   LIG     1      17.452  37.609  22.778  1.00  0.00     0.046 A 
HETATM    9 BR   LIG     1      17.163  38.231  24.566  1.00  0.00    -0.048 Br
HETATM   10  C   LIG     1      18.303  38.309  21.907  1.00  0.00     0.100 A 
ENDROOT
BRANCH  10  11
HETATM   11  O   LIG     1      18.936  39.467  22.364  1.00  0.00    -0.358 OA
HETATM   12  H   LIG     1      18.974  40.322  21.826  1.00  0.00     0.217 HD
ENDBRANCH  10  11
TORSDOF 1
ENDMDL
MODEL 7
REMARK VINA RESULT:      -5.6      3.108      4.199
REMARK  1 active torsions:
REMARK  status: ('A' for Active; 'I' for Inactive)
REMARK    1  A    between atoms: C_10  and  O_11 
ROOT
HETATM    1 BR   LIG     1      17.419  38.123  25.221  1.00  0.00    -0.048 Br
HETATM    2  C   LIG     1      17.466  37.594  23.380  1.00  0.00     0.046 A 
HETATM    3  C   LIG     1      18.098  38.444  22.463  1.00  0.00     0.044 A 
HETATM    4  C   LIG     1      18.158  38.102  21.108  1.00  0.00     0.047 A 
HETATM    5  C   LIG     1      18.810  38.980  20.171  1.00  0.00     0.099 C 
HETATM    6  N   LIG     1      19.333  39.685  19.418  1.00  0.00    -0.191 NA
HETATM    7  C   LIG     1      17.584  36.906  20.664  1.00  0.00     0.044 A 
HETATM    8  C   LIG     1      16.951  36.051  21.572  1.00  0.00     0.046 A 
HETATM    9 BR   LIG     1      16.177  34.421  20.934  1.00  0.00    -0.048 Br
HETATM   10  C   LIG     1      16.887  36.387  22.934  1.00  0.00     0.100 A 
ENDROOT
BRANCH  10  11
HETATM   11  O   LIG     1      16.249  35.515  23.818  1.00  0.00    -0.358 OA
HETATM   12  H   LIG     1      16.453  34.525  23.857  1.00  0.00     0.217 HD
ENDBRANCH  10  11
TORSDOF 1
ENDMDL
MODEL 8
REMARK VINA RESULT:      -5.2      8.448      9.721
REMARK  1 active torsions:
REMARK  status: ('A' for Active; 'I' for Inactive)
REMARK    1  A    between atoms: C_10  and  O_11 
ROOT
HETATM    1 BR   LIG     1      13.316  29.131  14.280  1.00  0.00    -0.048 Br
HETATM    2  C   LIG     1      14.414  30.581  14.886  1.00  0.00     0.046 A 
HETATM    3  C   LIG     1      15.367  31.103  14.003  1.00  0.00     0.044 A 
HETATM    4  C   LIG     1      16.193  32.161  14.398  1.00  0.00     0.047 A 
HETATM    5  C   LIG     1      17.170  32.693  13.485  1.00  0.00     0.099 C 
HETATM    6  N   LIG     1      17.957  33.121  12.752  1.00  0.00    -0.191 NA
HETATM    7  C   LIG     1      16.066  32.702  15.682  1.00  0.00     0.044 A 
HETATM    8  C   LIG     1      15.116  32.187  16.571  1.00  0.00     0.046 A 
HETATM    9 BR   LIG     1      14.967  32.949  18.320  1.00  0.00    -0.048 Br
HETATM   10  C   LIG     1      14.284  31.125  16.180  1.00  0.00     0.100 A 
ENDROOT
BRANCH  10  11
HETATM   11  O   LIG     1      13.345  30.631  17.089  1.00  0.00    -0.358 OA
HETATM   12  H   LIG     1      12.363  30.867  17.047  1.00  0.00     0.217 HD
ENDBRANCH  10  11
TORSDOF 1
ENDMDL
MODEL 9
REMARK VINA RESULT:      -5.2      8.506     10.008
REMARK  1 active torsions:
REMARK  status: ('A' for Active; 'I' for Inactive)
REMARK    1  A    between atoms: C_10  and  O_11 
ROOT
HETATM    1 BR   LIG     1      14.946  32.928  18.270  1.00  0.00    -0.048 Br
HETATM    2  C   LIG     1      15.083  32.152  16.523  1.00  0.00     0.046 A 
HETATM    3  C   LIG     1      16.037  32.673  15.640  1.00  0.00     0.044 A 
HETATM    4  C   LIG     1      16.176  32.141  14.354  1.00  0.00     0.047 A 
HETATM    5  C   LIG     1      17.160  32.681  13.452  1.00  0.00     0.099 C 
HETATM    6  N   LIG     1      17.950  33.115  12.727  1.00  0.00    -0.191 NA
HETATM    7  C   LIG     1      15.358  31.082  13.946  1.00  0.00     0.044 A 
HETATM    8  C   LIG     1      14.402  30.555  14.820  1.00  0.00     0.046 A 
HETATM    9 BR   LIG     1      13.298  29.106  14.232  1.00  0.00    -0.048 Br
HETATM   10  C   LIG     1      14.258  31.084  16.113  1.00  0.00     0.100 A 
ENDROOT
BRANCH  10  11
HETATM   11  O   LIG     1      13.295  30.538  16.964  1.00  0.00    -0.358 OA
HETATM   12  H   LIG     1      12.504  30.004  16.630  1.00  0.00     0.217 HD
ENDBRANCH  10  11
TORSDOF 1
ENDMDL
MODEL 10
REMARK VINA RESULT:      -4.8      7.509      8.496
REMARK  1 active torsions:
REMARK  status: ('A' for Active; 'I' for Inactive)
REMARK    1  A    between atoms: C_10  and  O_11 
ROOT
HETATM    1 BR   LIG     1      13.210  29.485  14.509  1.00  0.00    -0.048 Br
HETATM    2  C   LIG     1      14.409  30.822  15.177  1.00  0.00     0.046 A 
HETATM    3  C   LIG     1      14.327  31.167  16.532  1.00  0.00     0.044 A 
HETATM    4  C   LIG     1      15.180  32.138  17.067  1.00  0.00     0.047 A 
HETATM    5  C   LIG     1      15.091  32.487  18.461  1.00  0.00     0.099 C 
HETATM    6  N   LIG     1      15.019  32.769  19.581  1.00  0.00    -0.191 NA
HETATM    7  C   LIG     1      16.121  32.768  16.246  1.00  0.00     0.044 A 
HETATM    8  C   LIG     1      16.211  32.430  14.892  1.00  0.00     0.046 A 
HETATM    9 BR   LIG     1      17.509  33.309  13.795  1.00  0.00    -0.048 Br
HETATM   10  C   LIG     1      15.358  31.456  14.348  1.00  0.00     0.100 A 
ENDROOT
BRANCH  10  11
HETATM   11  O   LIG     1      15.469  31.139  12.993  1.00  0.00    -0.358 OA
HETATM   12  H   LIG     1      15.501  30.187  12.651  1.00  0.00     0.217 HD
ENDBRANCH  10  11
TORSDOF 1
ENDMDL
