REMARK  1 active torsions:
REMARK  status: ('A' for Active; 'I' for Inactive)
REMARK    1  A    between atoms: O_1  and  C_2 
ROOT
HETATM    1  C   LIG     1      -1.388   0.078  -0.047  1.00  0.00     0.098 A 
HETATM    2  C   LIG     1      -0.568   1.218   0.094  1.00  0.00     0.042 A 
HETATM    3  I   LIG     1      -1.358   3.178   0.251  1.00  0.00    -0.042 I 
HETATM    4  C   LIG     1       0.824   1.073   0.135  1.00  0.00     0.043 A 
HETATM    5  C   LIG     1       1.407  -0.196   0.037  1.00  0.00     0.047 A 
HETATM    6  C   LIG     1       2.839  -0.337   0.080  1.00  0.00     0.099 C 
HETATM    7  N   LIG     1       3.990  -0.450   0.114  1.00  0.00    -0.191 NA
HETATM    8  C   LIG     1       0.595  -1.326  -0.104  1.00  0.00     0.043 A 
HETATM    9  C   LIG     1      -0.796  -1.191  -0.146  1.00  0.00     0.042 A 
HETATM   10  I   LIG     1      -1.986  -2.927  -0.359  1.00  0.00    -0.042 I 
ENDROOT
BRANCH   1  11
HETATM   11  O   LIG     1      -2.779   0.180  -0.092  1.00  0.00    -0.358 OA
HETATM   12  H   LIG     1      -3.270   1.061  -0.027  1.00  0.00     0.217 HD
ENDBRANCH   1  11
TORSDOF 1
