REMARK  1 active torsions:
REMARK  status: ('A' for Active; 'I' for Inactive)
REMARK    1  A    between atoms: C_10  and  O_11 
ROOT
HETATM    1 BR   LIG     1      -0.967   3.055   0.644  1.00  0.00    -0.048 Br
HETATM    2  C   LIG     1      -0.439   1.253   0.260  1.00  0.00     0.046 A 
HETATM    3  C   LIG     1       0.924   0.936   0.319  1.00  0.00     0.044 A 
HETATM    4  C   LIG     1       1.360  -0.365   0.047  1.00  0.00     0.047 A 
HETATM    5  C   LIG     1       2.762  -0.684   0.110  1.00  0.00     0.099 C 
HETATM    6  N   LIG     1       3.889  -0.941   0.160  1.00  0.00    -0.191 NA
HETATM    7  C   LIG     1       0.430  -1.356  -0.286  1.00  0.00     0.044 A 
HETATM    8  C   LIG     1      -0.933  -1.049  -0.347  1.00  0.00     0.046 A 
HETATM    9 BR   LIG     1      -2.180  -2.427  -0.805  1.00  0.00    -0.048 Br
HETATM   10  C   LIG     1      -1.377   0.255  -0.075  1.00  0.00     0.100 A 
ENDROOT
BRANCH  10  11
HETATM   11  O   LIG     1      -2.744   0.533  -0.144  1.00  0.00    -0.358 OA
HETATM   12  H   LIG     1      -3.129   1.450   0.040  1.00  0.00     0.217 HD
ENDBRANCH  10  11
TORSDOF 1
