MODEL 1
REMARK VINA RESULT:      -7.0      0.000      0.000
REMARK  2 active torsions:
REMARK  status: ('A' for Active; 'I' for Inactive)
REMARK    1  A    between atoms: C_5  and  N_6 
REMARK    2  A    between atoms: N_9  and  C_10 
ROOT
HETATM    1  O   LIG     1      18.398  37.020  21.757  1.00  0.00    -0.264 OA
HETATM    2  C   LIG     1      17.415  36.251  21.571  1.00  0.00     0.292 A 
HETATM    3  C   LIG     1      17.012  35.947  20.262  1.00  0.00     0.131 A 
HETATM    4 CL   LIG     1      17.863  36.675  18.899  1.00  0.00    -0.076 Cl
HETATM    5  C   LIG     1      15.946  35.056  20.065  1.00  0.00     0.072 A 
HETATM    6  C   LIG     1      15.324  34.501  21.184  1.00  0.00     0.170 A 
HETATM    7  N   LIG     1      15.747  34.836  22.428  1.00  0.00    -0.174 NA
HETATM    8  N   LIG     1      16.752  35.691  22.635  1.00  0.00    -0.197 N 
ENDROOT
BRANCH   8   9
HETATM    9  C   LIG     1      17.123  35.984  23.995  1.00  0.00     0.062 A 
HETATM   10  C   LIG     1      17.515  34.956  24.875  1.00  0.00     0.032 A 
HETATM   11  C   LIG     1      17.894  35.256  26.186  1.00  0.00     0.002 A 
HETATM   12  C   LIG     1      17.897  36.582  26.630  1.00  0.00     0.000 A 
HETATM   13  C   LIG     1      17.526  37.610  25.759  1.00  0.00     0.002 A 
HETATM   14  C   LIG     1      17.146  37.315  24.447  1.00  0.00     0.032 A 
ENDBRANCH   8   9
BRANCH   5  15
HETATM   15  N   LIG     1      15.490  34.704  18.753  1.00  0.00    -0.396 N 
HETATM   16  H   LIG     1      16.148  34.404  18.001  1.00  0.00     0.156 HD
HETATM   17  H   LIG     1      14.473  34.741  18.518  1.00  0.00     0.156 HD
ENDBRANCH   5  15
TORSDOF 2
ENDMDL
MODEL 2
REMARK VINA RESULT:      -6.6      7.356     10.371
REMARK  2 active torsions:
REMARK  status: ('A' for Active; 'I' for Inactive)
REMARK    1  A    between atoms: C_5  and  N_6 
REMARK    2  A    between atoms: N_9  and  C_10 
ROOT
HETATM    1  O   LIG     1      16.406  31.588  13.852  1.00  0.00    -0.264 OA
HETATM    2  C   LIG     1      15.727  31.845  14.884  1.00  0.00     0.292 A 
HETATM    3  C   LIG     1      15.963  33.034  15.589  1.00  0.00     0.131 A 
HETATM    4 CL   LIG     1      17.232  34.131  15.043  1.00  0.00    -0.076 Cl
HETATM    5  C   LIG     1      15.174  33.331  16.710  1.00  0.00     0.072 A 
HETATM    6  C   LIG     1      14.175  32.431  17.082  1.00  0.00     0.170 A 
HETATM    7  N   LIG     1      13.995  31.291  16.370  1.00  0.00    -0.174 NA
HETATM    8  N   LIG     1      14.745  30.985  15.308  1.00  0.00    -0.197 N 
ENDROOT
BRANCH   8   9
HETATM    9  C   LIG     1      14.474  29.747  14.623  1.00  0.00     0.062 A 
HETATM   10  C   LIG     1      15.525  28.916  14.190  1.00  0.00     0.032 A 
HETATM   11  C   LIG     1      15.248  27.706  13.546  1.00  0.00     0.002 A 
HETATM   12  C   LIG     1      13.924  27.309  13.339  1.00  0.00     0.000 A 
HETATM   13  C   LIG     1      12.875  28.120  13.780  1.00  0.00     0.002 A 
HETATM   14  C   LIG     1      13.147  29.330  14.424  1.00  0.00     0.032 A 
ENDBRANCH   8   9
BRANCH   5  15
HETATM   15  N   LIG     1      15.364  34.531  17.470  1.00  0.00    -0.396 N 
HETATM   16  H   LIG     1      14.939  35.440  17.184  1.00  0.00     0.156 HD
HETATM   17  H   LIG     1      15.943  34.522  18.339  1.00  0.00     0.156 HD
ENDBRANCH   5  15
TORSDOF 2
ENDMDL
MODEL 3
REMARK VINA RESULT:      -6.6      5.670      7.594
REMARK  2 active torsions:
REMARK  status: ('A' for Active; 'I' for Inactive)
REMARK    1  A    between atoms: C_5  and  N_6 
REMARK    2  A    between atoms: N_9  and  C_10 
ROOT
HETATM    1  O   LIG     1      16.253  32.126  15.612  1.00  0.00    -0.264 OA
HETATM    2  C   LIG     1      15.122  31.595  15.786  1.00  0.00     0.292 A 
HETATM    3  C   LIG     1      14.601  30.738  14.806  1.00  0.00     0.131 A 
HETATM    4 CL   LIG     1      15.519  30.449  13.327  1.00  0.00    -0.076 Cl
HETATM    5  C   LIG     1      13.362  30.119  15.029  1.00  0.00     0.072 A 
HETATM    6  C   LIG     1      12.692  30.376  16.225  1.00  0.00     0.170 A 
HETATM    7  N   LIG     1      13.237  31.220  17.136  1.00  0.00    -0.174 NA
HETATM    8  N   LIG     1      14.409  31.828  16.936  1.00  0.00    -0.197 N 
ENDROOT
BRANCH   8   9
HETATM    9  C   LIG     1      14.899  32.709  17.965  1.00  0.00     0.062 A 
HETATM   10  C   LIG     1      15.079  34.083  17.716  1.00  0.00     0.032 A 
HETATM   11  C   LIG     1      15.533  34.930  18.730  1.00  0.00     0.002 A 
HETATM   12  C   LIG     1      15.800  34.420  20.004  1.00  0.00     0.000 A 
HETATM   13  C   LIG     1      15.609  33.060  20.265  1.00  0.00     0.002 A 
HETATM   14  C   LIG     1      15.155  32.209  19.253  1.00  0.00     0.032 A 
ENDBRANCH   8   9
BRANCH   5  15
HETATM   15  N   LIG     1      12.778  29.231  14.066  1.00  0.00    -0.396 N 
HETATM   16  H   LIG     1      11.972  28.612  14.304  1.00  0.00     0.156 HD
HETATM   17  H   LIG     1      13.153  29.183  13.094  1.00  0.00     0.156 HD
ENDBRANCH   5  15
TORSDOF 2
ENDMDL
MODEL 4
REMARK VINA RESULT:      -6.5      2.747      5.238
REMARK  2 active torsions:
REMARK  status: ('A' for Active; 'I' for Inactive)
REMARK    1  A    between atoms: C_5  and  N_6 
REMARK    2  A    between atoms: N_9  and  C_10 
ROOT
HETATM    1  O   LIG     1      18.044  36.265  19.701  1.00  0.00    -0.264 OA
HETATM    2  C   LIG     1      17.234  36.558  20.623  1.00  0.00     0.292 A 
HETATM    3  C   LIG     1      17.494  37.662  21.447  1.00  0.00     0.131 A 
HETATM    4 CL   LIG     1      18.969  38.599  21.207  1.00  0.00    -0.076 Cl
HETATM    5  C   LIG     1      16.565  38.005  22.442  1.00  0.00     0.072 A 
HETATM    6  C   LIG     1      15.410  37.234  22.571  1.00  0.00     0.170 A 
HETATM    7  N   LIG     1      15.212  36.171  21.753  1.00  0.00    -0.174 NA
HETATM    8  N   LIG     1      16.091  35.822  20.810  1.00  0.00    -0.197 N 
ENDROOT
BRANCH   8   9
HETATM    9  C   LIG     1      15.788  34.673  19.995  1.00  0.00     0.062 A 
HETATM   10  C   LIG     1      15.766  33.379  20.549  1.00  0.00     0.032 A 
HETATM   11  C   LIG     1      15.448  32.276  19.752  1.00  0.00     0.002 A 
HETATM   12  C   LIG     1      15.137  32.453  18.401  1.00  0.00     0.000 A 
HETATM   13  C   LIG     1      15.140  33.735  17.846  1.00  0.00     0.002 A 
HETATM   14  C   LIG     1      15.457  34.842  18.639  1.00  0.00     0.032 A 
ENDBRANCH   8   9
BRANCH   5  15
HETATM   15  N   LIG     1      16.772  39.124  23.314  1.00  0.00    -0.396 N 
HETATM   16  H   LIG     1      16.074  39.393  24.042  1.00  0.00     0.156 HD
HETATM   17  H   LIG     1      17.638  39.702  23.237  1.00  0.00     0.156 HD
ENDBRANCH   5  15
TORSDOF 2
ENDMDL
MODEL 5
REMARK VINA RESULT:      -6.4      5.520      7.257
REMARK  2 active torsions:
REMARK  status: ('A' for Active; 'I' for Inactive)
REMARK    1  A    between atoms: C_5  and  N_6 
REMARK    2  A    between atoms: N_9  and  C_10 
ROOT
HETATM    1  O   LIG     1      13.227  31.372  17.389  1.00  0.00    -0.264 OA
HETATM    2  C   LIG     1      14.200  31.539  16.603  1.00  0.00     0.292 A 
HETATM    3  C   LIG     1      14.201  30.893  15.358  1.00  0.00     0.131 A 
HETATM    4 CL   LIG     1      12.862  29.827  14.929  1.00  0.00    -0.076 Cl
HETATM    5  C   LIG     1      15.267  31.118  14.473  1.00  0.00     0.072 A 
HETATM    6  C   LIG     1      16.288  31.984  14.865  1.00  0.00     0.170 A 
HETATM    7  N   LIG     1      16.242  32.576  16.084  1.00  0.00    -0.174 NA
HETATM    8  N   LIG     1      15.242  32.363  16.944  1.00  0.00    -0.197 N 
ENDROOT
BRANCH   8   9
HETATM    9  C   LIG     1      15.289  33.038  18.215  1.00  0.00     0.062 A 
HETATM   10  C   LIG     1      15.213  32.316  19.421  1.00  0.00     0.032 A 
HETATM   11  C   LIG     1      15.283  32.981  20.648  1.00  0.00     0.002 A 
HETATM   12  C   LIG     1      15.440  34.370  20.685  1.00  0.00     0.000 A 
HETATM   13  C   LIG     1      15.533  35.094  19.494  1.00  0.00     0.002 A 
HETATM   14  C   LIG     1      15.464  34.433  18.264  1.00  0.00     0.032 A 
ENDBRANCH   8   9
BRANCH   5  15
HETATM   15  N   LIG     1      15.325  30.490  13.186  1.00  0.00    -0.396 N 
HETATM   16  H   LIG     1      14.464  30.272  12.638  1.00  0.00     0.156 HD
HETATM   17  H   LIG     1      16.244  30.231  12.764  1.00  0.00     0.156 HD
ENDBRANCH   5  15
TORSDOF 2
ENDMDL
MODEL 6
REMARK VINA RESULT:      -6.3      7.652     10.108
REMARK  2 active torsions:
REMARK  status: ('A' for Active; 'I' for Inactive)
REMARK    1  A    between atoms: C_5  and  N_6 
REMARK    2  A    between atoms: N_9  and  C_10 
ROOT
HETATM    1  O   LIG     1      16.479  31.461  13.366  1.00  0.00    -0.264 OA
HETATM    2  C   LIG     1      16.292  32.289  14.300  1.00  0.00     0.292 A 
HETATM    3  C   LIG     1      15.344  32.008  15.294  1.00  0.00     0.131 A 
HETATM    4 CL   LIG     1      14.400  30.521  15.200  1.00  0.00    -0.076 Cl
HETATM    5  C   LIG     1      15.175  32.915  16.351  1.00  0.00     0.072 A 
HETATM    6  C   LIG     1      15.962  34.066  16.377  1.00  0.00     0.170 A 
HETATM    7  N   LIG     1      16.859  34.293  15.385  1.00  0.00    -0.174 NA
HETATM    8  N   LIG     1      17.025  33.448  14.364  1.00  0.00    -0.197 N 
ENDROOT
BRANCH   8   9
HETATM    9  C   LIG     1      18.001  33.784  13.360  1.00  0.00     0.062 A 
HETATM   10  C   LIG     1      17.623  34.446  12.177  1.00  0.00     0.032 A 
HETATM   11  C   LIG     1      18.584  34.786  11.221  1.00  0.00     0.002 A 
HETATM   12  C   LIG     1      19.931  34.482  11.440  1.00  0.00     0.000 A 
HETATM   13  C   LIG     1      20.317  33.840  12.620  1.00  0.00     0.002 A 
HETATM   14  C   LIG     1      19.360  33.497  13.579  1.00  0.00     0.032 A 
ENDBRANCH   8   9
BRANCH   5  15
HETATM   15  N   LIG     1      14.224  32.683  17.399  1.00  0.00    -0.396 N 
HETATM   16  H   LIG     1      13.282  33.133  17.399  1.00  0.00     0.156 HD
HETATM   17  H   LIG     1      14.458  32.052  18.197  1.00  0.00     0.156 HD
ENDBRANCH   5  15
TORSDOF 2
ENDMDL
MODEL 7
REMARK VINA RESULT:      -6.3      7.873     10.555
REMARK  2 active torsions:
REMARK  status: ('A' for Active; 'I' for Inactive)
REMARK    1  A    between atoms: C_5  and  N_6 
REMARK    2  A    between atoms: N_9  and  C_10 
ROOT
HETATM    1  O   LIG     1      14.153  31.276  16.671  1.00  0.00    -0.264 OA
HETATM    2  C   LIG     1      14.984  31.770  15.860  1.00  0.00     0.292 A 
HETATM    3  C   LIG     1      15.586  33.002  16.152  1.00  0.00     0.131 A 
HETATM    4 CL   LIG     1      15.144  33.858  17.630  1.00  0.00    -0.076 Cl
HETATM    5  C   LIG     1      16.541  33.523  15.266  1.00  0.00     0.072 A 
HETATM    6  C   LIG     1      16.859  32.790  14.122  1.00  0.00     0.170 A 
HETATM    7  N   LIG     1      16.240  31.608  13.882  1.00  0.00    -0.174 NA
HETATM    8  N   LIG     1      15.320  31.103  14.709  1.00  0.00    -0.197 N 
ENDROOT
BRANCH   8   9
HETATM    9  C   LIG     1      14.718  29.842  14.362  1.00  0.00     0.062 A 
HETATM   10  C   LIG     1      13.320  29.681  14.367  1.00  0.00     0.032 A 
HETATM   11  C   LIG     1      12.748  28.458  14.006  1.00  0.00     0.002 A 
HETATM   12  C   LIG     1      13.563  27.388  13.625  1.00  0.00     0.000 A 
HETATM   13  C   LIG     1      14.952  27.543  13.600  1.00  0.00     0.002 A 
HETATM   14  C   LIG     1      15.528  28.765  13.961  1.00  0.00     0.032 A 
ENDBRANCH   8   9
BRANCH   5  15
HETATM   15  N   LIG     1      17.194  34.775  15.509  1.00  0.00    -0.396 N 
HETATM   16  H   LIG     1      17.179  35.551  14.811  1.00  0.00     0.156 HD
HETATM   17  H   LIG     1      17.707  34.940  16.403  1.00  0.00     0.156 HD
ENDBRANCH   5  15
TORSDOF 2
ENDMDL
MODEL 8
REMARK VINA RESULT:      -6.2      3.222      5.854
REMARK  2 active torsions:
REMARK  status: ('A' for Active; 'I' for Inactive)
REMARK    1  A    between atoms: C_5  and  N_6 
REMARK    2  A    between atoms: N_9  and  C_10 
ROOT
HETATM    1  O   LIG     1      14.592  35.451  21.761  1.00  0.00    -0.264 OA
HETATM    2  C   LIG     1      15.678  35.930  21.332  1.00  0.00     0.292 A 
HETATM    3  C   LIG     1      16.273  37.006  22.005  1.00  0.00     0.131 A 
HETATM    4 CL   LIG     1      15.474  37.698  23.417  1.00  0.00    -0.076 Cl
HETATM    5  C   LIG     1      17.502  37.504  21.545  1.00  0.00     0.072 A 
HETATM    6  C   LIG     1      18.091  36.904  20.432  1.00  0.00     0.170 A 
HETATM    7  N   LIG     1      17.468  35.871  19.813  1.00  0.00    -0.174 NA
HETATM    8  N   LIG     1      16.292  35.393  20.228  1.00  0.00    -0.197 N 
ENDROOT
BRANCH   8   9
HETATM    9  C   LIG     1      15.713  34.295  19.499  1.00  0.00     0.062 A 
HETATM   10  C   LIG     1      15.359  34.433  18.143  1.00  0.00     0.032 A 
HETATM   11  C   LIG     1      14.819  33.353  17.440  1.00  0.00     0.002 A 
HETATM   12  C   LIG     1      14.637  32.122  18.077  1.00  0.00     0.000 A 
HETATM   13  C   LIG     1      15.000  31.970  19.418  1.00  0.00     0.002 A 
HETATM   14  C   LIG     1      15.540  33.048  20.125  1.00  0.00     0.032 A 
ENDBRANCH   8   9
BRANCH   5  15
HETATM   15  N   LIG     1      18.162  38.600  22.192  1.00  0.00    -0.396 N 
HETATM   16  H   LIG     1      19.086  38.959  21.864  1.00  0.00     0.156 HD
HETATM   17  H   LIG     1      17.727  39.068  23.017  1.00  0.00     0.156 HD
ENDBRANCH   5  15
TORSDOF 2
ENDMDL
MODEL 9
REMARK VINA RESULT:      -6.1      7.993     10.045
REMARK  2 active torsions:
REMARK  status: ('A' for Active; 'I' for Inactive)
REMARK    1  A    between atoms: C_5  and  N_6 
REMARK    2  A    between atoms: N_9  and  C_10 
ROOT
HETATM    1  O   LIG     1      17.238  34.850  15.369  1.00  0.00    -0.264 OA
HETATM    2  C   LIG     1      16.767  33.723  15.051  1.00  0.00     0.292 A 
HETATM    3  C   LIG     1      15.767  33.143  15.844  1.00  0.00     0.131 A 
HETATM    4 CL   LIG     1      15.211  33.979  17.294  1.00  0.00    -0.076 Cl
HETATM    5  C   LIG     1      15.219  31.910  15.458  1.00  0.00     0.072 A 
HETATM    6  C   LIG     1      15.690  31.306  14.292  1.00  0.00     0.170 A 
HETATM    7  N   LIG     1      16.666  31.906  13.567  1.00  0.00    -0.174 NA
HETATM    8  N   LIG     1      17.208  33.073  13.926  1.00  0.00    -0.197 N 
ENDROOT
BRANCH   8   9
HETATM    9  C   LIG     1      18.241  33.625  13.088  1.00  0.00     0.062 A 
HETATM   10  C   LIG     1      19.600  33.469  13.418  1.00  0.00     0.032 A 
HETATM   11  C   LIG     1      20.594  33.990  12.584  1.00  0.00     0.002 A 
HETATM   12  C   LIG     1      20.243  34.661  11.409  1.00  0.00     0.000 A 
HETATM   13  C   LIG     1      18.896  34.806  11.064  1.00  0.00     0.002 A 
HETATM   14  C   LIG     1      17.899  34.287  11.895  1.00  0.00     0.032 A 
ENDBRANCH   8   9
BRANCH   5  15
HETATM   15  N   LIG     1      14.192  31.267  16.224  1.00  0.00    -0.396 N 
HETATM   16  H   LIG     1      13.630  31.782  16.936  1.00  0.00     0.156 HD
HETATM   17  H   LIG     1      13.984  30.253  16.085  1.00  0.00     0.156 HD
ENDBRANCH   5  15
TORSDOF 2
ENDMDL
MODEL 10
REMARK VINA RESULT:      -6.0      3.216      4.072
REMARK  2 active torsions:
REMARK  status: ('A' for Active; 'I' for Inactive)
REMARK    1  A    between atoms: C_5  and  N_6 
REMARK    2  A    between atoms: N_9  and  C_10 
ROOT
HETATM    1  O   LIG     1      15.950  35.178  18.030  1.00  0.00    -0.264 OA
HETATM    2  C   LIG     1      15.497  34.192  18.674  1.00  0.00     0.292 A 
HETATM    3  C   LIG     1      15.036  33.065  17.980  1.00  0.00     0.131 A 
HETATM    4 CL   LIG     1      15.061  33.058  16.216  1.00  0.00    -0.076 Cl
HETATM    5  C   LIG     1      14.574  31.957  18.707  1.00  0.00     0.072 A 
HETATM    6  C   LIG     1      14.594  32.017  20.101  1.00  0.00     0.170 A 
HETATM    7  N   LIG     1      15.041  33.136  20.722  1.00  0.00    -0.174 NA
HETATM    8  N   LIG     1      15.473  34.205  20.047  1.00  0.00    -0.197 N 
ENDROOT
BRANCH   8   9
HETATM    9  C   LIG     1      15.925  35.345  20.801  1.00  0.00     0.062 A 
HETATM   10  C   LIG     1      17.257  35.791  20.710  1.00  0.00     0.032 A 
HETATM   11  C   LIG     1      17.677  36.913  21.430  1.00  0.00     0.002 A 
HETATM   12  C   LIG     1      16.772  37.607  22.238  1.00  0.00     0.000 A 
HETATM   13  C   LIG     1      15.443  37.182  22.322  1.00  0.00     0.002 A 
HETATM   14  C   LIG     1      15.019  36.060  21.604  1.00  0.00     0.032 A 
ENDBRANCH   8   9
BRANCH   5  15
HETATM   15  N   LIG     1      14.093  30.774  18.056  1.00  0.00    -0.396 N 
HETATM   16  H   LIG     1      13.790  30.777  17.058  1.00  0.00     0.156 HD
HETATM   17  H   LIG     1      14.034  29.870  18.576  1.00  0.00     0.156 HD
ENDBRANCH   5  15
TORSDOF 2
ENDMDL
MODEL 11
REMARK VINA RESULT:      -6.0      5.875      9.238
REMARK  2 active torsions:
REMARK  status: ('A' for Active; 'I' for Inactive)
REMARK    1  A    between atoms: C_5  and  N_6 
REMARK    2  A    between atoms: N_9  and  C_10 
ROOT
HETATM    1  O   LIG     1      14.196  30.734  18.426  1.00  0.00    -0.264 OA
HETATM    2  C   LIG     1      14.570  31.855  17.983  1.00  0.00     0.292 A 
HETATM    3  C   LIG     1      14.892  32.881  18.882  1.00  0.00     0.131 A 
HETATM    4 CL   LIG     1      14.731  32.602  20.616  1.00  0.00    -0.076 Cl
HETATM    5  C   LIG     1      15.348  34.110  18.380  1.00  0.00     0.072 A 
HETATM    6  C   LIG     1      15.468  34.264  16.999  1.00  0.00     0.170 A 
HETATM    7  N   LIG     1      15.135  33.241  16.173  1.00  0.00    -0.174 NA
HETATM    8  N   LIG     1      14.687  32.069  16.633  1.00  0.00    -0.197 N 
ENDROOT
BRANCH   8   9
HETATM    9  C   LIG     1      14.356  31.048  15.672  1.00  0.00     0.062 A 
HETATM   10  C   LIG     1      15.343  30.501  14.830  1.00  0.00     0.032 A 
HETATM   11  C   LIG     1      15.014  29.494  13.919  1.00  0.00     0.002 A 
HETATM   12  C   LIG     1      13.702  29.016  13.845  1.00  0.00     0.000 A 
HETATM   13  C   LIG     1      12.719  29.542  14.688  1.00  0.00     0.002 A 
HETATM   14  C   LIG     1      13.044  30.549  15.601  1.00  0.00     0.032 A 
ENDBRANCH   8   9
BRANCH   5  15
HETATM   15  N   LIG     1      15.696  35.197  19.247  1.00  0.00    -0.396 N 
HETATM   16  H   LIG     1      16.562  35.184  19.829  1.00  0.00     0.156 HD
HETATM   17  H   LIG     1      15.080  36.037  19.317  1.00  0.00     0.156 HD
ENDBRANCH   5  15
TORSDOF 2
ENDMDL
MODEL 12
REMARK VINA RESULT:      -5.9      3.120      4.209
REMARK  2 active torsions:
REMARK  status: ('A' for Active; 'I' for Inactive)
REMARK    1  A    between atoms: C_5  and  N_6 
REMARK    2  A    between atoms: N_9  and  C_10 
ROOT
HETATM    1  O   LIG     1      16.965  35.632  18.469  1.00  0.00    -0.264 OA
HETATM    2  C   LIG     1      16.562  35.425  19.647  1.00  0.00     0.292 A 
HETATM    3  C   LIG     1      15.587  34.444  19.880  1.00  0.00     0.131 A 
HETATM    4 CL   LIG     1      14.913  33.545  18.520  1.00  0.00    -0.076 Cl
HETATM    5  C   LIG     1      15.176  34.190  21.198  1.00  0.00     0.072 A 
HETATM    6  C   LIG     1      15.758  34.924  22.232  1.00  0.00     0.170 A 
HETATM    7  N   LIG     1      16.690  35.867  21.949  1.00  0.00    -0.174 NA
HETATM    8  N   LIG     1      17.084  36.131  20.701  1.00  0.00    -0.197 N 
ENDROOT
BRANCH   8   9
HETATM    9  C   LIG     1      18.078  37.155  20.507  1.00  0.00     0.062 A 
HETATM   10  C   LIG     1      19.160  36.956  19.628  1.00  0.00     0.032 A 
HETATM   11  C   LIG     1      20.105  37.967  19.432  1.00  0.00     0.002 A 
HETATM   12  C   LIG     1      19.975  39.188  20.100  1.00  0.00     0.000 A 
HETATM   13  C   LIG     1      18.896  39.400  20.963  1.00  0.00     0.002 A 
HETATM   14  C   LIG     1      17.948  38.392  21.162  1.00  0.00     0.032 A 
ENDBRANCH   8   9
BRANCH   5  15
HETATM   15  N   LIG     1      14.186  33.200  21.502  1.00  0.00    -0.396 N 
HETATM   16  H   LIG     1      13.732  33.142  22.440  1.00  0.00     0.156 HD
HETATM   17  H   LIG     1      13.895  32.503  20.782  1.00  0.00     0.156 HD
ENDBRANCH   5  15
TORSDOF 2
ENDMDL
MODEL 13
REMARK VINA RESULT:      -5.9      3.395      4.295
REMARK  2 active torsions:
REMARK  status: ('A' for Active; 'I' for Inactive)
REMARK    1  A    between atoms: C_5  and  N_6 
REMARK    2  A    between atoms: N_9  and  C_10 
ROOT
HETATM    1  O   LIG     1      15.473  33.224  21.352  1.00  0.00    -0.264 OA
HETATM    2  C   LIG     1      15.444  33.472  20.115  1.00  0.00     0.292 A 
HETATM    3  C   LIG     1      15.046  32.469  19.218  1.00  0.00     0.131 A 
HETATM    4 CL   LIG     1      14.632  30.868  19.832  1.00  0.00    -0.076 Cl
HETATM    5  C   LIG     1      14.975  32.767  17.849  1.00  0.00     0.072 A 
HETATM    6  C   LIG     1      15.300  34.057  17.428  1.00  0.00     0.170 A 
HETATM    7  N   LIG     1      15.688  34.986  18.336  1.00  0.00    -0.174 NA
HETATM    8  N   LIG     1      15.773  34.717  19.642  1.00  0.00    -0.197 N 
ENDROOT
BRANCH   8   9
HETATM    9  C   LIG     1      16.198  35.774  20.523  1.00  0.00     0.062 A 
HETATM   10  C   LIG     1      15.364  36.227  21.563  1.00  0.00     0.032 A 
HETATM   11  C   LIG     1      15.798  37.237  22.426  1.00  0.00     0.002 A 
HETATM   12  C   LIG     1      17.070  37.796  22.269  1.00  0.00     0.000 A 
HETATM   13  C   LIG     1      17.911  37.341  21.250  1.00  0.00     0.002 A 
HETATM   14  C   LIG     1      17.481  36.331  20.384  1.00  0.00     0.032 A 
ENDBRANCH   8   9
BRANCH   5  15
HETATM   15  N   LIG     1      14.573  31.787  16.883  1.00  0.00    -0.396 N 
HETATM   16  H   LIG     1      13.987  32.035  16.055  1.00  0.00     0.156 HD
HETATM   17  H   LIG     1      14.860  30.789  16.990  1.00  0.00     0.156 HD
ENDBRANCH   5  15
TORSDOF 2
ENDMDL
MODEL 14
REMARK VINA RESULT:      -5.8      2.663      5.369
REMARK  2 active torsions:
REMARK  status: ('A' for Active; 'I' for Inactive)
REMARK    1  A    between atoms: C_5  and  N_6 
REMARK    2  A    between atoms: N_9  and  C_10 
ROOT
HETATM    1  O   LIG     1      17.319  34.661  23.976  1.00  0.00    -0.264 OA
HETATM    2  C   LIG     1      17.048  35.889  23.865  1.00  0.00     0.292 A 
HETATM    3  C   LIG     1      17.353  36.762  24.919  1.00  0.00     0.131 A 
HETATM    4 CL   LIG     1      18.074  36.123  26.397  1.00  0.00    -0.076 Cl
HETATM    5  C   LIG     1      17.088  38.132  24.769  1.00  0.00     0.072 A 
HETATM    6  C   LIG     1      16.532  38.577  23.569  1.00  0.00     0.170 A 
HETATM    7  N   LIG     1      16.248  37.688  22.585  1.00  0.00    -0.174 NA
HETATM    8  N   LIG     1      16.482  36.379  22.715  1.00  0.00    -0.197 N 
ENDROOT
BRANCH   8   9
HETATM    9  C   LIG     1      16.141  35.519  21.612  1.00  0.00     0.062 A 
HETATM   10  C   LIG     1      15.342  34.376  21.806  1.00  0.00     0.032 A 
HETATM   11  C   LIG     1      14.999  33.562  20.722  1.00  0.00     0.002 A 
HETATM   12  C   LIG     1      15.440  33.885  19.435  1.00  0.00     0.000 A 
HETATM   13  C   LIG     1      16.220  35.026  19.231  1.00  0.00     0.002 A 
HETATM   14  C   LIG     1      16.565  35.843  20.311  1.00  0.00     0.032 A 
ENDBRANCH   8   9
BRANCH   5  15
HETATM   15  N   LIG     1      17.379  39.075  25.808  1.00  0.00    -0.396 N 
HETATM   16  H   LIG     1      18.275  39.611  25.832  1.00  0.00     0.156 HD
HETATM   17  H   LIG     1      16.693  39.247  26.575  1.00  0.00     0.156 HD
ENDBRANCH   5  15
TORSDOF 2
ENDMDL
MODEL 15
REMARK VINA RESULT:      -5.7      2.304      3.022
REMARK  2 active torsions:
REMARK  status: ('A' for Active; 'I' for Inactive)
REMARK    1  A    between atoms: C_5  and  N_6 
REMARK    2  A    between atoms: N_9  and  C_10 
ROOT
HETATM    1  O   LIG     1      17.703  35.612  21.543  1.00  0.00    -0.264 OA
HETATM    2  C   LIG     1      17.966  36.844  21.619  1.00  0.00     0.292 A 
HETATM    3  C   LIG     1      18.196  37.577  20.446  1.00  0.00     0.131 A 
HETATM    4 CL   LIG     1      18.150  36.756  18.885  1.00  0.00    -0.076 Cl
HETATM    5  C   LIG     1      18.445  38.954  20.539  1.00  0.00     0.072 A 
HETATM    6  C   LIG     1      18.453  39.548  21.802  1.00  0.00     0.170 A 
HETATM    7  N   LIG     1      18.234  38.791  22.906  1.00  0.00    -0.174 NA
HETATM    8  N   LIG     1      18.007  37.476  22.837  1.00  0.00    -0.197 N 
ENDROOT
BRANCH   8   9
HETATM    9  C   LIG     1      17.790  36.762  24.069  1.00  0.00     0.062 A 
HETATM   10  C   LIG     1      17.181  35.493  24.071  1.00  0.00     0.032 A 
HETATM   11  C   LIG     1      16.997  34.800  25.271  1.00  0.00     0.002 A 
HETATM   12  C   LIG     1      17.427  35.361  26.477  1.00  0.00     0.000 A 
HETATM   13  C   LIG     1      18.047  36.613  26.483  1.00  0.00     0.002 A 
HETATM   14  C   LIG     1      18.233  37.309  25.285  1.00  0.00     0.032 A 
ENDBRANCH   8   9
BRANCH   5  15
HETATM   15  N   LIG     1      18.684  39.759  19.377  1.00  0.00    -0.396 N 
HETATM   16  H   LIG     1      18.612  40.800  19.401  1.00  0.00     0.156 HD
HETATM   17  H   LIG     1      18.938  39.313  18.468  1.00  0.00     0.156 HD
ENDBRANCH   5  15
TORSDOF 2
ENDMDL
MODEL 16
REMARK VINA RESULT:      -5.5      3.019      5.718
REMARK  2 active torsions:
REMARK  status: ('A' for Active; 'I' for Inactive)
REMARK    1  A    between atoms: C_5  and  N_6 
REMARK    2  A    between atoms: N_9  and  C_10 
ROOT
HETATM    1  O   LIG     1      17.429  35.527  22.032  1.00  0.00    -0.264 OA
HETATM    2  C   LIG     1      17.570  36.486  22.840  1.00  0.00     0.292 A 
HETATM    3  C   LIG     1      17.318  36.283  24.204  1.00  0.00     0.131 A 
HETATM    4 CL   LIG     1      16.769  34.702  24.762  1.00  0.00    -0.076 Cl
HETATM    5  C   LIG     1      17.520  37.344  25.101  1.00  0.00     0.072 A 
HETATM    6  C   LIG     1      17.970  38.565  24.600  1.00  0.00     0.170 A 
HETATM    7  N   LIG     1      18.190  38.710  23.270  1.00  0.00    -0.174 NA
HETATM    8  N   LIG     1      17.991  37.716  22.400  1.00  0.00    -0.197 N 
ENDROOT
BRANCH   8   9
HETATM    9  C   LIG     1      18.252  37.973  21.007  1.00  0.00     0.062 A 
HETATM   10  C   LIG     1      18.487  39.282  20.545  1.00  0.00     0.032 A 
HETATM   11  C   LIG     1      18.761  39.516  19.195  1.00  0.00     0.002 A 
HETATM   12  C   LIG     1      18.815  38.447  18.295  1.00  0.00     0.000 A 
HETATM   13  C   LIG     1      18.599  37.143  18.748  1.00  0.00     0.002 A 
HETATM   14  C   LIG     1      18.325  36.904  20.097  1.00  0.00     0.032 A 
ENDBRANCH   8   9
BRANCH   5  15
HETATM   15  N   LIG     1      17.282  37.199  26.507  1.00  0.00    -0.396 N 
HETATM   16  H   LIG     1      17.346  36.274  26.986  1.00  0.00     0.156 HD
HETATM   17  H   LIG     1      17.035  38.029  27.091  1.00  0.00     0.156 HD
ENDBRANCH   5  15
TORSDOF 2
ENDMDL
MODEL 17
REMARK VINA RESULT:      -5.4      8.768     10.030
REMARK  2 active torsions:
REMARK  status: ('A' for Active; 'I' for Inactive)
REMARK    1  A    between atoms: C_5  and  N_6 
REMARK    2  A    between atoms: N_9  and  C_10 
ROOT
HETATM    1  O   LIG     1      15.635  30.295  13.276  1.00  0.00    -0.264 OA
HETATM    2  C   LIG     1      15.112  30.825  14.295  1.00  0.00     0.292 A 
HETATM    3  C   LIG     1      13.996  30.223  14.892  1.00  0.00     0.131 A 
HETATM    4 CL   LIG     1      13.317  28.756  14.186  1.00  0.00    -0.076 Cl
HETATM    5  C   LIG     1      13.448  30.796  16.050  1.00  0.00     0.072 A 
HETATM    6  C   LIG     1      14.041  31.948  16.569  1.00  0.00     0.170 A 
HETATM    7  N   LIG     1      15.114  32.495  15.947  1.00  0.00    -0.174 NA
HETATM    8  N   LIG     1      15.640  31.970  14.837  1.00  0.00    -0.197 N 
ENDROOT
BRANCH   8   9
HETATM    9  C   LIG     1      16.779  32.630  14.252  1.00  0.00     0.062 A 
HETATM   10  C   LIG     1      16.704  33.196  12.965  1.00  0.00     0.032 A 
HETATM   11  C   LIG     1      17.809  33.854  12.417  1.00  0.00     0.002 A 
HETATM   12  C   LIG     1      18.994  33.963  13.151  1.00  0.00     0.000 A 
HETATM   13  C   LIG     1      19.073  33.419  14.436  1.00  0.00     0.002 A 
HETATM   14  C   LIG     1      17.970  32.761  14.987  1.00  0.00     0.032 A 
ENDBRANCH   8   9
BRANCH   5  15
HETATM   15  N   LIG     1      12.310  30.227  16.709  1.00  0.00    -0.396 N 
HETATM   16  H   LIG     1      12.343  29.283  17.153  1.00  0.00     0.156 HD
HETATM   17  H   LIG     1      11.408  30.752  16.757  1.00  0.00     0.156 HD
ENDBRANCH   5  15
TORSDOF 2
ENDMDL
MODEL 18
REMARK VINA RESULT:      -5.2      8.664     10.698
REMARK  2 active torsions:
REMARK  status: ('A' for Active; 'I' for Inactive)
REMARK    1  A    between atoms: C_5  and  N_6 
REMARK    2  A    between atoms: N_9  and  C_10 
ROOT
HETATM    1  O   LIG     1      16.284  29.150  14.242  1.00  0.00    -0.264 OA
HETATM    2  C   LIG     1      15.069  28.873  14.045  1.00  0.00     0.292 A 
HETATM    3  C   LIG     1      14.731  27.772  13.245  1.00  0.00     0.131 A 
HETATM    4 CL   LIG     1      16.011  26.816  12.495  1.00  0.00    -0.076 Cl
HETATM    5  C   LIG     1      13.378  27.446  13.068  1.00  0.00     0.072 A 
HETATM    6  C   LIG     1      12.414  28.231  13.700  1.00  0.00     0.170 A 
HETATM    7  N   LIG     1      12.795  29.291  14.456  1.00  0.00    -0.174 NA
HETATM    8  N   LIG     1      14.077  29.623  14.625  1.00  0.00    -0.197 N 
ENDROOT
BRANCH   8   9
HETATM    9  C   LIG     1      14.376  30.769  15.445  1.00  0.00     0.062 A 
HETATM   10  C   LIG     1      13.744  30.952  16.690  1.00  0.00     0.032 A 
HETATM   11  C   LIG     1      14.061  32.056  17.487  1.00  0.00     0.002 A 
HETATM   12  C   LIG     1      15.017  32.981  17.056  1.00  0.00     0.000 A 
HETATM   13  C   LIG     1      15.661  32.799  15.829  1.00  0.00     0.002 A 
HETATM   14  C   LIG     1      15.348  31.696  15.029  1.00  0.00     0.032 A 
ENDBRANCH   8   9
BRANCH   5  15
HETATM   15  N   LIG     1      12.969  26.332  12.264  1.00  0.00    -0.396 N 
HETATM   16  H   LIG     1      12.504  25.494  12.677  1.00  0.00     0.156 HD
HETATM   17  H   LIG     1      13.132  26.334  11.233  1.00  0.00     0.156 HD
ENDBRANCH   5  15
TORSDOF 2
ENDMDL
MODEL 19
REMARK VINA RESULT:      -5.2      5.080      8.500
REMARK  2 active torsions:
REMARK  status: ('A' for Active; 'I' for Inactive)
REMARK    1  A    between atoms: C_5  and  N_6 
REMARK    2  A    between atoms: N_9  and  C_10 
ROOT
HETATM    1  O   LIG     1      15.231  33.931  16.696  1.00  0.00    -0.264 OA
HETATM    2  C   LIG     1      15.067  33.273  17.760  1.00  0.00     0.292 A 
HETATM    3  C   LIG     1      15.318  33.883  18.997  1.00  0.00     0.131 A 
HETATM    4 CL   LIG     1      15.897  35.548  19.044  1.00  0.00    -0.076 Cl
HETATM    5  C   LIG     1      15.091  33.156  20.175  1.00  0.00     0.072 A 
HETATM    6  C   LIG     1      14.618  31.848  20.072  1.00  0.00     0.170 A 
HETATM    7  N   LIG     1      14.400  31.302  18.850  1.00  0.00    -0.174 NA
HETATM    8  N   LIG     1      14.622  31.975  17.717  1.00  0.00    -0.197 N 
ENDROOT
BRANCH   8   9
HETATM    9  C   LIG     1      14.362  31.304  16.470  1.00  0.00     0.062 A 
HETATM   10  C   LIG     1      15.360  31.200  15.483  1.00  0.00     0.032 A 
HETATM   11  C   LIG     1      15.102  30.525  14.286  1.00  0.00     0.002 A 
HETATM   12  C   LIG     1      13.852  29.939  14.067  1.00  0.00     0.000 A 
HETATM   13  C   LIG     1      12.860  30.023  15.048  1.00  0.00     0.002 A 
HETATM   14  C   LIG     1      13.114  30.697  16.246  1.00  0.00     0.032 A 
ENDBRANCH   8   9
BRANCH   5  15
HETATM   15  N   LIG     1      15.326  33.724  21.470  1.00  0.00    -0.396 N 
HETATM   16  H   LIG     1      15.211  33.169  22.346  1.00  0.00     0.156 HD
HETATM   17  H   LIG     1      15.621  34.721  21.565  1.00  0.00     0.156 HD
ENDBRANCH   5  15
TORSDOF 2
ENDMDL
MODEL 20
REMARK VINA RESULT:      -5.0      1.701      2.123
REMARK  2 active torsions:
REMARK  status: ('A' for Active; 'I' for Inactive)
REMARK    1  A    between atoms: C_5  and  N_6 
REMARK    2  A    between atoms: N_9  and  C_10 
ROOT
HETATM    1  O   LIG     1      15.799  34.676  22.403  1.00  0.00    -0.264 OA
HETATM    2  C   LIG     1      16.614  35.449  21.828  1.00  0.00     0.292 A 
HETATM    3  C   LIG     1      16.650  35.500  20.428  1.00  0.00     0.131 A 
HETATM    4 CL   LIG     1      15.581  34.454  19.491  1.00  0.00    -0.076 Cl
HETATM    5  C   LIG     1      17.529  36.395  19.799  1.00  0.00     0.072 A 
HETATM    6  C   LIG     1      18.337  37.207  20.595  1.00  0.00     0.170 A 
HETATM    7  N   LIG     1      18.270  37.111  21.945  1.00  0.00    -0.174 NA
HETATM    8  N   LIG     1      17.448  36.257  22.561  1.00  0.00    -0.197 N 
ENDROOT
BRANCH   8   9
HETATM    9  C   LIG     1      17.454  36.230  24.001  1.00  0.00     0.062 A 
HETATM   10  C   LIG     1      17.454  35.009  24.702  1.00  0.00     0.032 A 
HETATM   11  C   LIG     1      17.484  34.998  26.099  1.00  0.00     0.002 A 
HETATM   12  C   LIG     1      17.526  36.201  26.810  1.00  0.00     0.000 A 
HETATM   13  C   LIG     1      17.543  37.417  26.122  1.00  0.00     0.002 A 
HETATM   14  C   LIG     1      17.514  37.434  24.725  1.00  0.00     0.032 A 
ENDBRANCH   8   9
BRANCH   5  15
HETATM   15  N   LIG     1      17.610  36.496  18.371  1.00  0.00    -0.396 N 
HETATM   16  H   LIG     1      16.774  36.367  17.760  1.00  0.00     0.156 HD
HETATM   17  H   LIG     1      18.522  36.702  17.906  1.00  0.00     0.156 HD
ENDBRANCH   5  15
TORSDOF 2
ENDMDL
