MODEL 1
REMARK VINA RESULT:      -8.3      0.000      0.000
REMARK  0 active torsions:
REMARK  status: ('A' for Active; 'I' for Inactive)
ROOT
HETATM    1  C   LIG     1      17.295  38.207  25.500  1.00  0.00     0.049 C 
HETATM    2  C   LIG     1      17.296  37.211  24.378  1.00  0.00    -0.055 A 
HETATM    3  C   LIG     1      17.697  37.584  23.086  1.00  0.00    -0.037 A 
HETATM    4  C   LIG     1      18.163  38.935  22.611  1.00  0.00     0.079 A 
HETATM    5  C   LIG     1      18.425  38.646  21.163  1.00  0.00    -0.043 A 
HETATM    6  C   LIG     1      18.886  39.529  20.186  1.00  0.00     0.008 A 
HETATM    7  C   LIG     1      19.067  39.051  18.877  1.00  0.00     0.001 A 
HETATM    8  C   LIG     1      18.787  37.705  18.565  1.00  0.00     0.001 A 
HETATM    9  C   LIG     1      18.324  36.828  19.558  1.00  0.00     0.013 A 
HETATM   10  C   LIG     1      18.153  37.328  20.851  1.00  0.00    -0.019 A 
HETATM   11  C   LIG     1      17.697  36.663  22.053  1.00  0.00    -0.018 A 
HETATM   12  C   LIG     1      17.305  35.340  22.246  1.00  0.00     0.013 A 
HETATM   13  C   LIG     1      16.901  34.948  23.531  1.00  0.00     0.001 A 
HETATM   14  C   LIG     1      16.896  35.876  24.591  1.00  0.00     0.007 A 
ENDROOT
TORSDOF 0
ENDMDL
MODEL 2
REMARK VINA RESULT:      -7.8      1.299      4.799
REMARK  0 active torsions:
REMARK  status: ('A' for Active; 'I' for Inactive)
ROOT
HETATM    1  C   LIG     1      18.313  39.432  20.979  1.00  0.00     0.049 C 
HETATM    2  C   LIG     1      17.882  38.020  21.246  1.00  0.00    -0.055 A 
HETATM    3  C   LIG     1      17.842  37.516  22.555  1.00  0.00    -0.037 A 
HETATM    4  C   LIG     1      18.192  38.227  23.835  1.00  0.00     0.079 A 
HETATM    5  C   LIG     1      17.936  37.139  24.836  1.00  0.00    -0.043 A 
HETATM    6  C   LIG     1      18.086  37.202  26.222  1.00  0.00     0.008 A 
HETATM    7  C   LIG     1      17.789  36.059  26.984  1.00  0.00     0.001 A 
HETATM    8  C   LIG     1      17.349  34.877  26.354  1.00  0.00     0.001 A 
HETATM    9  C   LIG     1      17.203  34.829  24.959  1.00  0.00     0.013 A 
HETATM   10  C   LIG     1      17.504  35.978  24.225  1.00  0.00    -0.019 A 
HETATM   11  C   LIG     1      17.445  36.212  22.798  1.00  0.00    -0.018 A 
HETATM   12  C   LIG     1      17.071  35.352  21.767  1.00  0.00     0.013 A 
HETATM   13  C   LIG     1      17.105  35.838  20.452  1.00  0.00     0.001 A 
HETATM   14  C   LIG     1      17.507  37.163  20.191  1.00  0.00     0.007 A 
ENDROOT
TORSDOF 0
ENDMDL
MODEL 3
REMARK VINA RESULT:      -7.6      0.678      2.454
REMARK  0 active torsions:
REMARK  status: ('A' for Active; 'I' for Inactive)
ROOT
HETATM    1  C   LIG     1      16.903  34.865  24.275  1.00  0.00     0.049 C 
HETATM    2  C   LIG     1      17.182  36.322  24.054  1.00  0.00    -0.055 A 
HETATM    3  C   LIG     1      17.577  36.795  22.793  1.00  0.00    -0.037 A 
HETATM    4  C   LIG     1      17.780  36.006  21.526  1.00  0.00     0.079 A 
HETATM    5  C   LIG     1      18.189  37.097  20.581  1.00  0.00    -0.043 A 
HETATM    6  C   LIG     1      18.516  36.978  19.230  1.00  0.00     0.008 A 
HETATM    7  C   LIG     1      18.874  38.136  18.519  1.00  0.00     0.001 A 
HETATM    8  C   LIG     1      18.901  39.389  19.165  1.00  0.00     0.001 A 
HETATM    9  C   LIG     1      18.570  39.493  20.525  1.00  0.00     0.013 A 
HETATM   10  C   LIG     1      18.217  38.328  21.208  1.00  0.00    -0.019 A 
HETATM   11  C   LIG     1      17.834  38.140  22.591  1.00  0.00    -0.018 A 
HETATM   12  C   LIG     1      17.715  39.075  23.619  1.00  0.00     0.013 A 
HETATM   13  C   LIG     1      17.322  38.620  24.886  1.00  0.00     0.001 A 
HETATM   14  C   LIG     1      17.057  37.255  25.104  1.00  0.00     0.007 A 
ENDROOT
TORSDOF 0
ENDMDL
MODEL 4
REMARK VINA RESULT:      -6.7      1.760      4.279
REMARK  0 active torsions:
REMARK  status: ('A' for Active; 'I' for Inactive)
ROOT
HETATM    1  C   LIG     1      19.542  39.166  20.082  1.00  0.00     0.049 C 
HETATM    2  C   LIG     1      18.697  38.591  21.179  1.00  0.00    -0.055 A 
HETATM    3  C   LIG     1      17.876  37.476  20.946  1.00  0.00    -0.037 A 
HETATM    4  C   LIG     1      17.697  36.707  19.665  1.00  0.00     0.079 A 
HETATM    5  C   LIG     1      16.705  35.668  20.100  1.00  0.00    -0.043 A 
HETATM    6  C   LIG     1      16.145  34.647  19.331  1.00  0.00     0.008 A 
HETATM    7  C   LIG     1      15.228  33.773  19.938  1.00  0.00     0.001 A 
HETATM    8  C   LIG     1      14.884  33.931  21.296  1.00  0.00     0.001 A 
HETATM    9  C   LIG     1      15.455  34.963  22.056  1.00  0.00     0.013 A 
HETATM   10  C   LIG     1      16.365  35.817  21.431  1.00  0.00    -0.019 A 
HETATM   11  C   LIG     1      17.096  36.948  21.961  1.00  0.00    -0.018 A 
HETATM   12  C   LIG     1      17.091  37.491  23.244  1.00  0.00     0.013 A 
HETATM   13  C   LIG     1      17.905  38.606  23.496  1.00  0.00     0.001 A 
HETATM   14  C   LIG     1      18.703  39.153  22.473  1.00  0.00     0.007 A 
ENDROOT
TORSDOF 0
ENDMDL
MODEL 5
REMARK VINA RESULT:      -6.6      2.498      3.214
REMARK  0 active torsions:
REMARK  status: ('A' for Active; 'I' for Inactive)
ROOT
HETATM    1  C   LIG     1      17.415  38.937  25.738  1.00  0.00     0.049 C 
HETATM    2  C   LIG     1      17.499  37.460  25.486  1.00  0.00    -0.055 A 
HETATM    3  C   LIG     1      17.080  36.915  24.262  1.00  0.00    -0.037 A 
HETATM    4  C   LIG     1      16.514  37.637  23.069  1.00  0.00     0.079 A 
HETATM    5  C   LIG     1      16.284  36.488  22.132  1.00  0.00    -0.043 A 
HETATM    6  C   LIG     1      15.763  36.533  20.838  1.00  0.00     0.008 A 
HETATM    7  C   LIG     1      15.629  35.330  20.124  1.00  0.00     0.001 A 
HETATM    8  C   LIG     1      16.015  34.107  20.709  1.00  0.00     0.001 A 
HETATM    9  C   LIG     1      16.538  34.078  22.012  1.00  0.00     0.013 A 
HETATM   10  C   LIG     1      16.661  35.286  22.700  1.00  0.00    -0.019 A 
HETATM   11  C   LIG     1      17.159  35.552  24.032  1.00  0.00    -0.018 A 
HETATM   12  C   LIG     1      17.653  34.671  24.992  1.00  0.00     0.013 A 
HETATM   13  C   LIG     1      18.076  35.197  26.221  1.00  0.00     0.001 A 
HETATM   14  C   LIG     1      18.001  36.582  26.468  1.00  0.00     0.007 A 
ENDROOT
TORSDOF 0
ENDMDL
MODEL 6
REMARK VINA RESULT:      -6.6      9.340     11.166
REMARK  0 active torsions:
REMARK  status: ('A' for Active; 'I' for Inactive)
ROOT
HETATM    1  C   LIG     1      16.362  33.225  15.841  1.00  0.00     0.049 C 
HETATM    2  C   LIG     1      15.100  32.420  15.948  1.00  0.00    -0.055 A 
HETATM    3  C   LIG     1      14.956  31.213  15.247  1.00  0.00    -0.037 A 
HETATM    4  C   LIG     1      15.948  30.546  14.331  1.00  0.00     0.079 A 
HETATM    5  C   LIG     1      15.178  29.324  13.928  1.00  0.00    -0.043 A 
HETATM    6  C   LIG     1      15.587  28.300  13.072  1.00  0.00     0.008 A 
HETATM    7  C   LIG     1      14.704  27.235  12.826  1.00  0.00     0.001 A 
HETATM    8  C   LIG     1      13.433  27.208  13.434  1.00  0.00     0.001 A 
HETATM    9  C   LIG     1      13.035  28.245  14.293  1.00  0.00     0.013 A 
HETATM   10  C   LIG     1      13.930  29.291  14.522  1.00  0.00    -0.019 A 
HETATM   11  C   LIG     1      13.791  30.473  15.347  1.00  0.00    -0.018 A 
HETATM   12  C   LIG     1      12.721  30.886  16.138  1.00  0.00     0.013 A 
HETATM   13  C   LIG     1      12.846  32.090  16.846  1.00  0.00     0.001 A 
HETATM   14  C   LIG     1      14.027  32.853  16.753  1.00  0.00     0.007 A 
ENDROOT
TORSDOF 0
ENDMDL
MODEL 7
REMARK VINA RESULT:      -6.6      1.708      3.749
REMARK  0 active torsions:
REMARK  status: ('A' for Active; 'I' for Inactive)
ROOT
HETATM    1  C   LIG     1      17.645  37.620  25.401  1.00  0.00     0.049 C 
HETATM    2  C   LIG     1      17.766  37.826  23.920  1.00  0.00    -0.055 A 
HETATM    3  C   LIG     1      17.216  36.901  23.018  1.00  0.00    -0.037 A 
HETATM    4  C   LIG     1      16.465  35.634  23.329  1.00  0.00     0.079 A 
HETATM    5  C   LIG     1      16.170  35.138  21.944  1.00  0.00    -0.043 A 
HETATM    6  C   LIG     1      15.483  33.979  21.580  1.00  0.00     0.008 A 
HETATM    7  C   LIG     1      15.314  33.698  20.214  1.00  0.00     0.001 A 
HETATM    8  C   LIG     1      15.832  34.571  19.237  1.00  0.00     0.001 A 
HETATM    9  C   LIG     1      16.522  35.733  19.618  1.00  0.00     0.013 A 
HETATM   10  C   LIG     1      16.675  35.991  20.981  1.00  0.00    -0.019 A 
HETATM   11  C   LIG     1      17.330  37.094  21.652  1.00  0.00    -0.018 A 
HETATM   12  C   LIG     1      17.986  38.201  21.116  1.00  0.00     0.013 A 
HETATM   13  C   LIG     1      18.541  39.135  22.002  1.00  0.00     0.001 A 
HETATM   14  C   LIG     1      18.433  38.951  23.394  1.00  0.00     0.007 A 
ENDROOT
TORSDOF 0
ENDMDL
MODEL 8
REMARK VINA RESULT:      -6.5      1.750      4.292
REMARK  0 active torsions:
REMARK  status: ('A' for Active; 'I' for Inactive)
ROOT
HETATM    1  C   LIG     1      18.676  39.580  22.736  1.00  0.00     0.049 C 
HETATM    2  C   LIG     1      18.650  38.742  21.492  1.00  0.00    -0.055 A 
HETATM    3  C   LIG     1      17.785  37.643  21.384  1.00  0.00    -0.037 A 
HETATM    4  C   LIG     1      16.799  37.132  22.401  1.00  0.00     0.079 A 
HETATM    5  C   LIG     1      16.218  35.962  21.664  1.00  0.00    -0.043 A 
HETATM    6  C   LIG     1      15.233  35.078  22.106  1.00  0.00     0.008 A 
HETATM    7  C   LIG     1      14.827  34.040  21.250  1.00  0.00     0.001 A 
HETATM    8  C   LIG     1      15.408  33.900  19.973  1.00  0.00     0.001 A 
HETATM    9  C   LIG     1      16.398  34.797  19.543  1.00  0.00     0.013 A 
HETATM   10  C   LIG     1      16.783  35.820  20.411  1.00  0.00    -0.019 A 
HETATM   11  C   LIG     1      17.763  36.871  20.235  1.00  0.00    -0.018 A 
HETATM   12  C   LIG     1      18.589  37.147  19.147  1.00  0.00     0.013 A 
HETATM   13  C   LIG     1      19.462  38.241  19.237  1.00  0.00     0.001 A 
HETATM   14  C   LIG     1      19.493  39.035  20.400  1.00  0.00     0.007 A 
ENDROOT
TORSDOF 0
ENDMDL
MODEL 9
REMARK VINA RESULT:      -6.4      7.855      9.434
REMARK  0 active torsions:
REMARK  status: ('A' for Active; 'I' for Inactive)
ROOT
HETATM    1  C   LIG     1      13.435  31.435  17.503  1.00  0.00     0.049 C 
HETATM    2  C   LIG     1      13.976  31.039  16.161  1.00  0.00    -0.055 A 
HETATM    3  C   LIG     1      14.994  31.785  15.547  1.00  0.00    -0.037 A 
HETATM    4  C   LIG     1      15.682  33.019  16.066  1.00  0.00     0.079 A 
HETATM    5  C   LIG     1      16.639  33.297  14.944  1.00  0.00    -0.043 A 
HETATM    6  C   LIG     1      17.565  34.337  14.849  1.00  0.00     0.008 A 
HETATM    7  C   LIG     1      18.373  34.415  13.702  1.00  0.00     0.001 A 
HETATM    8  C   LIG     1      18.247  33.460  12.673  1.00  0.00     0.001 A 
HETATM    9  C   LIG     1      17.311  32.420  12.783  1.00  0.00     0.013 A 
HETATM   10  C   LIG     1      16.520  32.363  13.932  1.00  0.00    -0.019 A 
HETATM   11  C   LIG     1      15.491  31.417  14.309  1.00  0.00    -0.018 A 
HETATM   12  C   LIG     1      15.010  30.303  13.623  1.00  0.00     0.013 A 
HETATM   13  C   LIG     1      13.993  29.545  14.220  1.00  0.00     0.001 A 
HETATM   14  C   LIG     1      13.478  29.908  15.480  1.00  0.00     0.007 A 
ENDROOT
TORSDOF 0
ENDMDL
MODEL 10
REMARK VINA RESULT:      -6.3      0.944      4.542
REMARK  0 active torsions:
REMARK  status: ('A' for Active; 'I' for Inactive)
ROOT
HETATM    1  C   LIG     1      19.748  39.586  19.122  1.00  0.00     0.049 C 
HETATM    2  C   LIG     1      18.967  38.380  19.553  1.00  0.00    -0.055 A 
HETATM    3  C   LIG     1      18.552  38.231  20.885  1.00  0.00    -0.037 A 
HETATM    4  C   LIG     1      18.786  39.166  22.042  1.00  0.00     0.079 A 
HETATM    5  C   LIG     1      18.096  38.422  23.146  1.00  0.00    -0.043 A 
HETATM    6  C   LIG     1      17.973  38.800  24.484  1.00  0.00     0.008 A 
HETATM    7  C   LIG     1      17.280  37.951  25.363  1.00  0.00     0.001 A 
HETATM    8  C   LIG     1      16.723  36.743  24.896  1.00  0.00     0.001 A 
HETATM    9  C   LIG     1      16.855  36.376  23.548  1.00  0.00     0.013 A 
HETATM   10  C   LIG     1      17.547  37.237  22.695  1.00  0.00    -0.019 A 
HETATM   11  C   LIG     1      17.832  37.117  21.281  1.00  0.00    -0.018 A 
HETATM   12  C   LIG     1      17.491  36.105  20.385  1.00  0.00     0.013 A 
HETATM   13  C   LIG     1      17.897  36.236  19.050  1.00  0.00     0.001 A 
HETATM   14  C   LIG     1      18.630  37.364  18.634  1.00  0.00     0.007 A 
ENDROOT
TORSDOF 0
ENDMDL
MODEL 11
REMARK VINA RESULT:      -5.9      7.674     10.412
REMARK  0 active torsions:
REMARK  status: ('A' for Active; 'I' for Inactive)
ROOT
HETATM    1  C   LIG     1      18.300  33.072  12.305  1.00  0.00     0.049 C 
HETATM    2  C   LIG     1      17.550  33.323  13.580  1.00  0.00    -0.055 A 
HETATM    3  C   LIG     1      16.520  32.463  13.990  1.00  0.00    -0.037 A 
HETATM    4  C   LIG     1      16.008  31.229  13.294  1.00  0.00     0.079 A 
HETATM    5  C   LIG     1      14.930  30.800  14.245  1.00  0.00    -0.043 A 
HETATM    6  C   LIG     1      14.085  29.695  14.136  1.00  0.00     0.008 A 
HETATM    7  C   LIG     1      13.136  29.471  15.147  1.00  0.00     0.001 A 
HETATM    8  C   LIG     1      13.044  30.349  16.246  1.00  0.00     0.001 A 
HETATM    9  C   LIG     1      13.900  31.457  16.342  1.00  0.00     0.013 A 
HETATM   10  C   LIG     1      14.836  31.657  15.325  1.00  0.00    -0.019 A 
HETATM   11  C   LIG     1      15.829  32.697  15.166  1.00  0.00    -0.018 A 
HETATM   12  C   LIG     1      16.122  33.784  15.988  1.00  0.00     0.013 A 
HETATM   13  C   LIG     1      17.149  34.655  15.595  1.00  0.00     0.001 A 
HETATM   14  C   LIG     1      17.859  34.428  14.400  1.00  0.00     0.007 A 
ENDROOT
TORSDOF 0
ENDMDL
MODEL 12
REMARK VINA RESULT:      -5.6      1.903      3.328
REMARK  0 active torsions:
REMARK  status: ('A' for Active; 'I' for Inactive)
ROOT
HETATM    1  C   LIG     1      15.623  33.808  20.120  1.00  0.00     0.049 C 
HETATM    2  C   LIG     1      15.710  35.086  20.900  1.00  0.00    -0.055 A 
HETATM    3  C   LIG     1      16.756  35.995  20.677  1.00  0.00    -0.037 A 
HETATM    4  C   LIG     1      17.895  35.879  19.698  1.00  0.00     0.079 A 
HETATM    5  C   LIG     1      18.627  37.159  19.970  1.00  0.00    -0.043 A 
HETATM    6  C   LIG     1      19.792  37.623  19.357  1.00  0.00     0.008 A 
HETATM    7  C   LIG     1      20.319  38.861  19.763  1.00  0.00     0.001 A 
HETATM    8  C   LIG     1      19.679  39.613  20.769  1.00  0.00     0.001 A 
HETATM    9  C   LIG     1      18.509  39.133  21.377  1.00  0.00     0.013 A 
HETATM   10  C   LIG     1      18.005  37.901  20.956  1.00  0.00    -0.019 A 
HETATM   11  C   LIG     1      16.834  37.174  21.398  1.00  0.00    -0.018 A 
HETATM   12  C   LIG     1      15.890  37.508  22.367  1.00  0.00     0.013 A 
HETATM   13  C   LIG     1      14.838  36.611  22.605  1.00  0.00     0.001 A 
HETATM   14  C   LIG     1      14.746  35.409  21.878  1.00  0.00     0.007 A 
ENDROOT
TORSDOF 0
ENDMDL
