REMARK  0 active torsions:
REMARK  status: ('A' for Active; 'I' for Inactive)
ROOT
HETATM    1  C   LIG     1      -2.861   1.886  -0.376  1.00  0.00     0.049 C 
HETATM    2  C   LIG     1      -2.237   0.552  -0.091  1.00  0.00    -0.055 A 
HETATM    3  C   LIG     1      -0.842   0.399  -0.076  1.00  0.00    -0.037 A 
HETATM    4  C   LIG     1       0.210   1.448  -0.321  1.00  0.00     0.079 A 
HETATM    5  C   LIG     1       1.459   0.633  -0.159  1.00  0.00    -0.043 A 
HETATM    6  C   LIG     1       2.781   1.065  -0.272  1.00  0.00     0.008 A 
HETATM    7  C   LIG     1       3.813   0.131  -0.080  1.00  0.00     0.001 A 
HETATM    8  C   LIG     1       3.512  -1.213   0.219  1.00  0.00     0.001 A 
HETATM    9  C   LIG     1       2.177  -1.633   0.329  1.00  0.00     0.013 A 
HETATM   10  C   LIG     1       1.170  -0.686   0.135  1.00  0.00    -0.019 A 
HETATM   11  C   LIG     1      -0.269  -0.833   0.187  1.00  0.00    -0.018 A 
HETATM   12  C   LIG     1      -1.041  -1.964   0.446  1.00  0.00     0.013 A 
HETATM   13  C   LIG     1      -2.437  -1.831   0.435  1.00  0.00     0.001 A 
HETATM   14  C   LIG     1      -3.033  -0.583   0.169  1.00  0.00     0.007 A 
ENDROOT
TORSDOF 0
