MODEL 1
REMARK VINA RESULT:      -7.1      0.000      0.000
REMARK  0 active torsions:
REMARK  status: ('A' for Active; 'I' for Inactive)
ROOT
HETATM    1  C   LIG     1      17.708  37.200  22.553  1.00  0.00    -0.012 A 
HETATM    2  C   LIG     1      18.169  37.516  21.248  1.00  0.00    -0.012 A 
HETATM    3  C   LIG     1      18.871  38.723  21.026  1.00  0.00    -0.046 A 
HETATM    4  C   LIG     1      19.122  39.586  22.100  1.00  0.00     0.008 A 
HETATM    5  C   LIG     1      18.662  39.280  23.380  1.00  0.00     0.008 A 
HETATM    6  C   LIG     1      17.967  38.088  23.622  1.00  0.00    -0.046 A 
HETATM    7  C   LIG     1      17.437  37.806  25.005  1.00  0.00     0.040 C 
HETATM    8  C   LIG     1      17.320  36.300  25.252  1.00  0.00     0.009 C 
HETATM    9  C   LIG     1      16.493  35.632  24.149  1.00  0.00     0.040 C 
HETATM   10  C   LIG     1      17.004  35.994  22.775  1.00  0.00    -0.046 A 
HETATM   11  C   LIG     1      16.751  35.132  21.701  1.00  0.00     0.008 A 
HETATM   12  C   LIG     1      17.205  35.441  20.419  1.00  0.00     0.008 A 
HETATM   13  C   LIG     1      17.901  36.632  20.177  1.00  0.00    -0.046 A 
HETATM   14  C   LIG     1      18.417  36.920  18.788  1.00  0.00     0.040 C 
HETATM   15  C   LIG     1      18.564  38.426  18.555  1.00  0.00     0.009 C 
HETATM   16  C   LIG     1      19.412  39.063  19.658  1.00  0.00     0.040 C 
ENDROOT
TORSDOF 0
ENDMDL
MODEL 2
REMARK VINA RESULT:      -7.0      0.029      4.197
REMARK  0 active torsions:
REMARK  status: ('A' for Active; 'I' for Inactive)
ROOT
HETATM    1  C   LIG     1      18.175  37.523  21.262  1.00  0.00    -0.012 A 
HETATM    2  C   LIG     1      17.714  37.215  22.569  1.00  0.00    -0.012 A 
HETATM    3  C   LIG     1      17.971  38.112  23.632  1.00  0.00    -0.046 A 
HETATM    4  C   LIG     1      18.660  39.305  23.381  1.00  0.00     0.008 A 
HETATM    5  C   LIG     1      19.120  39.603  22.099  1.00  0.00     0.008 A 
HETATM    6  C   LIG     1      18.874  38.730  21.032  1.00  0.00    -0.046 A 
HETATM    7  C   LIG     1      19.426  39.052  19.666  1.00  0.00     0.040 C 
HETATM    8  C   LIG     1      18.570  38.423  18.564  1.00  0.00     0.009 C 
HETATM    9  C   LIG     1      18.404  36.919  18.799  1.00  0.00     0.040 C 
HETATM   10  C   LIG     1      17.920  36.625  20.199  1.00  0.00    -0.046 A 
HETATM   11  C   LIG     1      17.232  35.432  20.451  1.00  0.00     0.008 A 
HETATM   12  C   LIG     1      16.778  35.130  21.735  1.00  0.00     0.008 A 
HETATM   13  C   LIG     1      17.023  36.004  22.801  1.00  0.00    -0.046 A 
HETATM   14  C   LIG     1      16.482  35.671  24.171  1.00  0.00     0.040 C 
HETATM   15  C   LIG     1      17.321  36.328  25.271  1.00  0.00     0.009 C 
HETATM   16  C   LIG     1      17.453  37.833  25.022  1.00  0.00     0.040 C 
ENDROOT
TORSDOF 0
ENDMDL
MODEL 3
REMARK VINA RESULT:      -6.9      0.684      5.122
REMARK  0 active torsions:
REMARK  status: ('A' for Active; 'I' for Inactive)
ROOT
HETATM    1  C   LIG     1      17.908  37.214  21.486  1.00  0.00    -0.012 A 
HETATM    2  C   LIG     1      17.792  37.100  22.896  1.00  0.00    -0.012 A 
HETATM    3  C   LIG     1      17.227  35.933  23.461  1.00  0.00    -0.046 A 
HETATM    4  C   LIG     1      16.806  34.892  22.623  1.00  0.00     0.008 A 
HETATM    5  C   LIG     1      16.912  35.008  21.238  1.00  0.00     0.008 A 
HETATM    6  C   LIG     1      17.471  36.155  20.659  1.00  0.00    -0.046 A 
HETATM    7  C   LIG     1      17.528  36.275  19.157  1.00  0.00     0.040 C 
HETATM    8  C   LIG     1      18.682  37.181  18.722  1.00  0.00     0.009 C 
HETATM    9  C   LIG     1      18.602  38.539  19.425  1.00  0.00     0.040 C 
HETATM   10  C   LIG     1      18.472  38.382  20.921  1.00  0.00    -0.046 A 
HETATM   11  C   LIG     1      18.892  39.423  21.759  1.00  0.00     0.008 A 
HETATM   12  C   LIG     1      18.779  39.310  23.145  1.00  0.00     0.008 A 
HETATM   13  C   LIG     1      18.221  38.163  23.723  1.00  0.00    -0.046 A 
HETATM   14  C   LIG     1      18.152  38.051  25.227  1.00  0.00     0.040 C 
HETATM   15  C   LIG     1      17.016  37.119  25.660  1.00  0.00     0.009 C 
HETATM   16  C   LIG     1      17.134  35.765  24.958  1.00  0.00     0.040 C 
ENDROOT
TORSDOF 0
ENDMDL
MODEL 4
REMARK VINA RESULT:      -6.9      0.679      3.065
REMARK  0 active torsions:
REMARK  status: ('A' for Active; 'I' for Inactive)
ROOT
HETATM    1  C   LIG     1      17.807  37.117  22.891  1.00  0.00    -0.012 A 
HETATM    2  C   LIG     1      17.925  37.234  21.481  1.00  0.00    -0.012 A 
HETATM    3  C   LIG     1      17.480  36.180  20.651  1.00  0.00    -0.046 A 
HETATM    4  C   LIG     1      16.908  35.038  21.228  1.00  0.00     0.008 A 
HETATM    5  C   LIG     1      16.800  34.920  22.613  1.00  0.00     0.008 A 
HETATM    6  C   LIG     1      17.233  35.955  23.453  1.00  0.00    -0.046 A 
HETATM    7  C   LIG     1      17.151  35.780  24.949  1.00  0.00     0.040 C 
HETATM    8  C   LIG     1      17.024  37.133  25.653  1.00  0.00     0.009 C 
HETATM    9  C   LIG     1      18.152  38.075  25.225  1.00  0.00     0.040 C 
HETATM   10  C   LIG     1      18.255  38.171  23.722  1.00  0.00    -0.046 A 
HETATM   11  C   LIG     1      18.828  39.312  23.145  1.00  0.00     0.008 A 
HETATM   12  C   LIG     1      18.943  39.427  21.760  1.00  0.00     0.008 A 
HETATM   13  C   LIG     1      18.508  38.393  20.920  1.00  0.00    -0.046 A 
HETATM   14  C   LIG     1      18.606  38.564  19.424  1.00  0.00     0.040 C 
HETATM   15  C   LIG     1      18.700  37.209  18.718  1.00  0.00     0.009 C 
HETATM   16  C   LIG     1      17.550  36.296  19.148  1.00  0.00     0.040 C 
ENDROOT
TORSDOF 0
ENDMDL
MODEL 5
REMARK VINA RESULT:      -6.6      6.874     10.060
REMARK  0 active torsions:
REMARK  status: ('A' for Active; 'I' for Inactive)
ROOT
HETATM    1  C   LIG     1      15.972  32.618  14.835  1.00  0.00    -0.012 A 
HETATM    2  C   LIG     1      14.972  31.832  15.467  1.00  0.00    -0.012 A 
HETATM    3  C   LIG     1      14.486  30.669  14.827  1.00  0.00    -0.046 A 
HETATM    4  C   LIG     1      15.010  30.292  13.584  1.00  0.00     0.008 A 
HETATM    5  C   LIG     1      15.986  31.068  12.960  1.00  0.00     0.008 A 
HETATM    6  C   LIG     1      16.482  32.223  13.578  1.00  0.00    -0.046 A 
HETATM    7  C   LIG     1      17.500  33.071  12.858  1.00  0.00     0.040 C 
HETATM    8  C   LIG     1      18.376  33.839  13.851  1.00  0.00     0.009 C 
HETATM    9  C   LIG     1      17.512  34.645  14.826  1.00  0.00     0.040 C 
HETATM   10  C   LIG     1      16.456  33.783  15.475  1.00  0.00    -0.046 A 
HETATM   11  C   LIG     1      15.931  34.160  16.717  1.00  0.00     0.008 A 
HETATM   12  C   LIG     1      14.950  33.387  17.339  1.00  0.00     0.008 A 
HETATM   13  C   LIG     1      14.455  32.232  16.721  1.00  0.00    -0.046 A 
HETATM   14  C   LIG     1      13.425  31.393  17.437  1.00  0.00     0.040 C 
HETATM   15  C   LIG     1      12.570  30.600  16.443  1.00  0.00     0.009 C 
HETATM   16  C   LIG     1      13.458  29.790  15.496  1.00  0.00     0.040 C 
ENDROOT
TORSDOF 0
ENDMDL
MODEL 6
REMARK VINA RESULT:      -6.5      6.860      9.403
REMARK  0 active torsions:
REMARK  status: ('A' for Active; 'I' for Inactive)
ROOT
HETATM    1  C   LIG     1      14.999  31.869  15.452  1.00  0.00    -0.012 A 
HETATM    2  C   LIG     1      16.001  32.648  14.815  1.00  0.00    -0.012 A 
HETATM    3  C   LIG     1      16.512  32.240  13.561  1.00  0.00    -0.046 A 
HETATM    4  C   LIG     1      16.010  31.083  12.951  1.00  0.00     0.008 A 
HETATM    5  C   LIG     1      15.033  30.315  13.581  1.00  0.00     0.008 A 
HETATM    6  C   LIG     1      14.511  30.702  14.822  1.00  0.00    -0.046 A 
HETATM    7  C   LIG     1      13.491  29.826  15.505  1.00  0.00     0.040 C 
HETATM    8  C   LIG     1      12.591  30.649  16.429  1.00  0.00     0.009 C 
HETATM    9  C   LIG     1      13.430  31.466  17.417  1.00  0.00     0.040 C 
HETATM   10  C   LIG     1      14.489  32.276  16.708  1.00  0.00    -0.046 A 
HETATM   11  C   LIG     1      14.991  33.432  17.318  1.00  0.00     0.008 A 
HETATM   12  C   LIG     1      15.975  34.197  16.691  1.00  0.00     0.008 A 
HETATM   13  C   LIG     1      16.495  33.810  15.449  1.00  0.00    -0.046 A 
HETATM   14  C   LIG     1      17.527  34.681  14.775  1.00  0.00     0.040 C 
HETATM   15  C   LIG     1      18.406  33.862  13.826  1.00  0.00     0.009 C 
HETATM   16  C   LIG     1      17.544  33.073  12.838  1.00  0.00     0.040 C 
ENDROOT
TORSDOF 0
ENDMDL
MODEL 7
REMARK VINA RESULT:      -5.9      1.227      3.904
REMARK  0 active torsions:
REMARK  status: ('A' for Active; 'I' for Inactive)
ROOT
HETATM    1  C   LIG     1      17.693  37.464  21.253  1.00  0.00    -0.012 A 
HETATM    2  C   LIG     1      16.807  36.394  20.958  1.00  0.00    -0.012 A 
HETATM    3  C   LIG     1      15.861  35.981  21.924  1.00  0.00    -0.046 A 
HETATM    4  C   LIG     1      15.793  36.644  23.156  1.00  0.00     0.008 A 
HETATM    5  C   LIG     1      16.669  37.689  23.449  1.00  0.00     0.008 A 
HETATM    6  C   LIG     1      17.612  38.115  22.505  1.00  0.00    -0.046 A 
HETATM    7  C   LIG     1      18.580  39.214  22.866  1.00  0.00     0.040 C 
HETATM    8  C   LIG     1      19.041  39.972  21.619  1.00  0.00     0.009 C 
HETATM    9  C   LIG     1      19.602  39.004  20.573  1.00  0.00     0.040 C 
HETATM   10  C   LIG     1      18.640  37.876  20.288  1.00  0.00    -0.046 A 
HETATM   11  C   LIG     1      18.708  37.212  19.056  1.00  0.00     0.008 A 
HETATM   12  C   LIG     1      17.837  36.162  18.766  1.00  0.00     0.008 A 
HETATM   13  C   LIG     1      16.894  35.737  19.709  1.00  0.00    -0.046 A 
HETATM   14  C   LIG     1      15.936  34.627  19.350  1.00  0.00     0.040 C 
HETATM   15  C   LIG     1      15.450  33.890  20.602  1.00  0.00     0.009 C 
HETATM   16  C   LIG     1      14.876  34.878  21.620  1.00  0.00     0.040 C 
ENDROOT
TORSDOF 0
ENDMDL
MODEL 8
REMARK VINA RESULT:      -5.9      6.950      9.763
REMARK  0 active torsions:
REMARK  status: ('A' for Active; 'I' for Inactive)
ROOT
HETATM    1  C   LIG     1      16.015  32.601  14.722  1.00  0.00    -0.012 A 
HETATM    2  C   LIG     1      14.931  31.940  15.356  1.00  0.00    -0.012 A 
HETATM    3  C   LIG     1      14.408  32.451  16.566  1.00  0.00    -0.046 A 
HETATM    4  C   LIG     1      14.953  33.619  17.117  1.00  0.00     0.008 A 
HETATM    5  C   LIG     1      16.023  34.263  16.499  1.00  0.00     0.008 A 
HETATM    6  C   LIG     1      16.554  33.774  15.299  1.00  0.00    -0.046 A 
HETATM    7  C   LIG     1      17.744  34.462  14.678  1.00  0.00     0.040 C 
HETATM    8  C   LIG     1      17.770  34.253  13.162  1.00  0.00     0.009 C 
HETATM    9  C   LIG     1      17.698  32.762  12.818  1.00  0.00     0.040 C 
HETATM   10  C   LIG     1      16.540  32.088  13.513  1.00  0.00    -0.046 A 
HETATM   11  C   LIG     1      15.996  30.921  12.963  1.00  0.00     0.008 A 
HETATM   12  C   LIG     1      14.929  30.271  13.584  1.00  0.00     0.008 A 
HETATM   13  C   LIG     1      14.398  30.762  14.784  1.00  0.00    -0.046 A 
HETATM   14  C   LIG     1      13.216  30.062  15.411  1.00  0.00     0.040 C 
HETATM   15  C   LIG     1      13.173  30.298  16.924  1.00  0.00     0.009 C 
HETATM   16  C   LIG     1      13.226  31.795  17.237  1.00  0.00     0.040 C 
ENDROOT
TORSDOF 0
ENDMDL
MODEL 9
REMARK VINA RESULT:      -5.9      6.956      9.054
REMARK  0 active torsions:
REMARK  status: ('A' for Active; 'I' for Inactive)
ROOT
HETATM    1  C   LIG     1      14.916  31.923  15.364  1.00  0.00    -0.012 A 
HETATM    2  C   LIG     1      16.002  32.583  14.731  1.00  0.00    -0.012 A 
HETATM    3  C   LIG     1      16.541  33.757  15.307  1.00  0.00    -0.046 A 
HETATM    4  C   LIG     1      16.010  34.246  16.507  1.00  0.00     0.008 A 
HETATM    5  C   LIG     1      14.938  33.602  17.124  1.00  0.00     0.008 A 
HETATM    6  C   LIG     1      14.392  32.437  16.571  1.00  0.00    -0.046 A 
HETATM    7  C   LIG     1      13.201  31.789  17.233  1.00  0.00     0.040 C 
HETATM    8  C   LIG     1      13.159  30.288  16.938  1.00  0.00     0.009 C 
HETATM    9  C   LIG     1      13.216  30.029  15.430  1.00  0.00     0.040 C 
HETATM   10  C   LIG     1      14.377  30.750  14.787  1.00  0.00    -0.046 A 
HETATM   11  C   LIG     1      14.906  30.262  13.586  1.00  0.00     0.008 A 
HETATM   12  C   LIG     1      15.974  30.909  12.964  1.00  0.00     0.008 A 
HETATM   13  C   LIG     1      16.521  32.074  13.518  1.00  0.00    -0.046 A 
HETATM   14  C   LIG     1      17.703  32.729  12.846  1.00  0.00     0.040 C 
HETATM   15  C   LIG     1      17.763  34.225  13.168  1.00  0.00     0.009 C 
HETATM   16  C   LIG     1      17.725  34.453  14.680  1.00  0.00     0.040 C 
ENDROOT
TORSDOF 0
ENDMDL
MODEL 10
REMARK VINA RESULT:      -5.9      1.226      3.448
REMARK  0 active torsions:
REMARK  status: ('A' for Active; 'I' for Inactive)
ROOT
HETATM    1  C   LIG     1      16.802  36.384  20.961  1.00  0.00    -0.012 A 
HETATM    2  C   LIG     1      17.691  37.452  21.255  1.00  0.00    -0.012 A 
HETATM    3  C   LIG     1      17.610  38.106  22.506  1.00  0.00    -0.046 A 
HETATM    4  C   LIG     1      16.668  37.680  23.451  1.00  0.00     0.008 A 
HETATM    5  C   LIG     1      15.790  36.637  23.159  1.00  0.00     0.008 A 
HETATM    6  C   LIG     1      15.855  35.975  21.926  1.00  0.00    -0.046 A 
HETATM    7  C   LIG     1      14.861  34.884  21.617  1.00  0.00     0.040 C 
HETATM    8  C   LIG     1      15.440  33.881  20.616  1.00  0.00     0.009 C 
HETATM    9  C   LIG     1      15.946  34.598  19.361  1.00  0.00     0.040 C 
HETATM   10  C   LIG     1      16.882  35.731  19.708  1.00  0.00    -0.046 A 
HETATM   11  C   LIG     1      17.823  36.158  18.763  1.00  0.00     0.008 A 
HETATM   12  C   LIG     1      18.696  37.206  19.052  1.00  0.00     0.008 A 
HETATM   13  C   LIG     1      18.632  37.868  20.286  1.00  0.00    -0.046 A 
HETATM   14  C   LIG     1      19.619  38.970  20.587  1.00  0.00     0.040 C 
HETATM   15  C   LIG     1      19.051  39.955  21.613  1.00  0.00     0.009 C 
HETATM   16  C   LIG     1      18.572  39.213  22.863  1.00  0.00     0.040 C 
ENDROOT
TORSDOF 0
ENDMDL
MODEL 11
REMARK VINA RESULT:      -5.4      7.174     10.089
REMARK  0 active torsions:
REMARK  status: ('A' for Active; 'I' for Inactive)
ROOT
HETATM    1  C   LIG     1      14.852  31.008  14.947  1.00  0.00    -0.012 A 
HETATM    2  C   LIG     1      15.130  32.143  15.754  1.00  0.00    -0.012 A 
HETATM    3  C   LIG     1      14.345  32.396  16.902  1.00  0.00    -0.046 A 
HETATM    4  C   LIG     1      13.313  31.513  17.245  1.00  0.00     0.008 A 
HETATM    5  C   LIG     1      13.035  30.403  16.448  1.00  0.00     0.008 A 
HETATM    6  C   LIG     1      13.803  30.133  15.308  1.00  0.00    -0.046 A 
HETATM    7  C   LIG     1      13.448  28.954  14.436  1.00  0.00     0.040 C 
HETATM    8  C   LIG     1      14.679  28.433  13.690  1.00  0.00     0.009 C 
HETATM    9  C   LIG     1      15.362  29.563  12.914  1.00  0.00     0.040 C 
HETATM   10  C   LIG     1      15.636  30.756  13.797  1.00  0.00    -0.046 A 
HETATM   11  C   LIG     1      16.667  31.640  13.455  1.00  0.00     0.008 A 
HETATM   12  C   LIG     1      16.941  32.755  14.247  1.00  0.00     0.008 A 
HETATM   13  C   LIG     1      16.174  33.024  15.388  1.00  0.00    -0.046 A 
HETATM   14  C   LIG     1      16.521  34.213  16.250  1.00  0.00     0.040 C 
HETATM   15  C   LIG     1      15.296  34.714  17.021  1.00  0.00     0.009 C 
HETATM   16  C   LIG     1      14.647  33.569  17.803  1.00  0.00     0.040 C 
ENDROOT
TORSDOF 0
ENDMDL
MODEL 12
REMARK VINA RESULT:      -5.4      7.143      9.847
REMARK  0 active torsions:
REMARK  status: ('A' for Active; 'I' for Inactive)
ROOT
HETATM    1  C   LIG     1      15.151  32.169  15.767  1.00  0.00    -0.012 A 
HETATM    2  C   LIG     1      14.876  31.037  14.955  1.00  0.00    -0.012 A 
HETATM    3  C   LIG     1      13.835  30.151  15.316  1.00  0.00    -0.046 A 
HETATM    4  C   LIG     1      13.072  30.410  16.462  1.00  0.00     0.008 A 
HETATM    5  C   LIG     1      13.348  31.516  17.264  1.00  0.00     0.008 A 
HETATM    6  C   LIG     1      14.373  32.407  16.922  1.00  0.00    -0.046 A 
HETATM    7  C   LIG     1      14.682  33.568  17.835  1.00  0.00     0.040 C 
HETATM    8  C   LIG     1      15.299  34.731  17.054  1.00  0.00     0.009 C 
HETATM    9  C   LIG     1      16.518  34.261  16.253  1.00  0.00     0.040 C 
HETATM   10  C   LIG     1      16.194  33.054  15.406  1.00  0.00    -0.046 A 
HETATM   11  C   LIG     1      16.958  32.794  14.262  1.00  0.00     0.008 A 
HETATM   12  C   LIG     1      16.687  31.684  13.463  1.00  0.00     0.008 A 
HETATM   13  C   LIG     1      15.660  30.793  13.804  1.00  0.00    -0.046 A 
HETATM   14  C   LIG     1      15.363  29.624  12.897  1.00  0.00     0.040 C 
HETATM   15  C   LIG     1      14.716  28.473  13.674  1.00  0.00     0.009 C 
HETATM   16  C   LIG     1      13.490  28.966  14.446  1.00  0.00     0.040 C 
ENDROOT
TORSDOF 0
ENDMDL
MODEL 13
REMARK VINA RESULT:      -5.2     16.202     17.043
REMARK  0 active torsions:
REMARK  status: ('A' for Active; 'I' for Inactive)
ROOT
HETATM    1  C   LIG     1      24.760  22.548  20.908  1.00  0.00    -0.012 A 
HETATM    2  C   LIG     1      25.186  22.645  22.259  1.00  0.00    -0.012 A 
HETATM    3  C   LIG     1      24.380  22.108  23.289  1.00  0.00    -0.046 A 
HETATM    4  C   LIG     1      23.177  21.466  22.963  1.00  0.00     0.008 A 
HETATM    5  C   LIG     1      22.756  21.378  21.638  1.00  0.00     0.008 A 
HETATM    6  C   LIG     1      23.541  21.902  20.603  1.00  0.00    -0.046 A 
HETATM    7  C   LIG     1      23.037  21.838  19.183  1.00  0.00     0.040 C 
HETATM    8  C   LIG     1      24.200  21.824  18.187  1.00  0.00     0.009 C 
HETATM    9  C   LIG     1      25.138  23.009  18.433  1.00  0.00     0.040 C 
HETATM   10  C   LIG     1      25.566  23.088  19.879  1.00  0.00    -0.046 A 
HETATM   11  C   LIG     1      26.767  23.730  20.204  1.00  0.00     0.008 A 
HETATM   12  C   LIG     1      27.186  23.825  21.531  1.00  0.00     0.008 A 
HETATM   13  C   LIG     1      26.401  23.300  22.566  1.00  0.00    -0.046 A 
HETATM   14  C   LIG     1      26.901  23.379  23.988  1.00  0.00     0.040 C 
HETATM   15  C   LIG     1      25.738  23.360  24.984  1.00  0.00     0.009 C 
HETATM   16  C   LIG     1      24.829  22.156  24.729  1.00  0.00     0.040 C 
ENDROOT
TORSDOF 0
ENDMDL
MODEL 14
REMARK VINA RESULT:      -5.2     16.208     16.641
REMARK  0 active torsions:
REMARK  status: ('A' for Active; 'I' for Inactive)
ROOT
HETATM    1  C   LIG     1      25.232  22.668  22.262  1.00  0.00    -0.012 A 
HETATM    2  C   LIG     1      24.777  22.558  20.921  1.00  0.00    -0.012 A 
HETATM    3  C   LIG     1      23.546  21.917  20.649  1.00  0.00    -0.046 A 
HETATM    4  C   LIG     1      22.778  21.414  21.708  1.00  0.00     0.008 A 
HETATM    5  C   LIG     1      23.230  21.514  23.023  1.00  0.00     0.008 A 
HETATM    6  C   LIG     1      24.445  22.148  23.314  1.00  0.00    -0.046 A 
HETATM    7  C   LIG     1      24.933  22.198  24.740  1.00  0.00     0.040 C 
HETATM    8  C   LIG     1      25.840  23.410  24.967  1.00  0.00     0.009 C 
HETATM    9  C   LIG     1      26.981  23.433  23.946  1.00  0.00     0.040 C 
HETATM   10  C   LIG     1      26.464  23.308  22.533  1.00  0.00    -0.046 A 
HETATM   11  C   LIG     1      27.232  23.809  21.475  1.00  0.00     0.008 A 
HETATM   12  C   LIG     1      26.784  23.702  20.158  1.00  0.00     0.008 A 
HETATM   13  C   LIG     1      25.569  23.070  19.868  1.00  0.00    -0.046 A 
HETATM   14  C   LIG     1      25.089  23.008  18.438  1.00  0.00     0.040 C 
HETATM   15  C   LIG     1      24.156  21.813  18.220  1.00  0.00     0.009 C 
HETATM   16  C   LIG     1      23.015  21.827  19.239  1.00  0.00     0.040 C 
ENDROOT
TORSDOF 0
ENDMDL
MODEL 15
REMARK VINA RESULT:      -5.2     16.264     17.036
REMARK  0 active torsions:
REMARK  status: ('A' for Active; 'I' for Inactive)
ROOT
HETATM    1  C   LIG     1      28.204  29.152  32.560  1.00  0.00    -0.012 A 
HETATM    2  C   LIG     1      28.200  28.440  31.331  1.00  0.00    -0.012 A 
HETATM    3  C   LIG     1      27.338  27.331  31.166  1.00  0.00    -0.046 A 
HETATM    4  C   LIG     1      26.482  26.958  32.210  1.00  0.00     0.008 A 
HETATM    5  C   LIG     1      26.493  27.652  33.420  1.00  0.00     0.008 A 
HETATM    6  C   LIG     1      27.337  28.754  33.602  1.00  0.00    -0.046 A 
HETATM    7  C   LIG     1      27.364  29.455  34.937  1.00  0.00     0.040 C 
HETATM    8  C   LIG     1      27.777  30.921  34.780  1.00  0.00     0.009 C 
HETATM    9  C   LIG     1      29.103  31.032  34.022  1.00  0.00     0.040 C 
HETATM   10  C   LIG     1      29.068  30.260  32.725  1.00  0.00    -0.046 A 
HETATM   11  C   LIG     1      29.925  30.632  31.681  1.00  0.00     0.008 A 
HETATM   12  C   LIG     1      29.920  29.934  30.474  1.00  0.00     0.008 A 
HETATM   13  C   LIG     1      29.074  28.831  30.291  1.00  0.00    -0.046 A 
HETATM   14  C   LIG     1      29.060  28.122  28.959  1.00  0.00     0.040 C 
HETATM   15  C   LIG     1      28.615  26.665  29.114  1.00  0.00     0.009 C 
HETATM   16  C   LIG     1      27.279  26.585  29.855  1.00  0.00     0.040 C 
ENDROOT
TORSDOF 0
ENDMDL
MODEL 16
REMARK VINA RESULT:      -5.2     16.220     17.344
REMARK  0 active torsions:
REMARK  status: ('A' for Active; 'I' for Inactive)
ROOT
HETATM    1  C   LIG     1      28.252  28.417  31.196  1.00  0.00    -0.012 A 
HETATM    2  C   LIG     1      28.284  29.119  32.429  1.00  0.00    -0.012 A 
HETATM    3  C   LIG     1      27.436  28.716  33.487  1.00  0.00    -0.046 A 
HETATM    4  C   LIG     1      26.586  27.616  33.313  1.00  0.00     0.008 A 
HETATM    5  C   LIG     1      26.549  26.933  32.099  1.00  0.00     0.008 A 
HETATM    6  C   LIG     1      27.383  27.314  31.040  1.00  0.00    -0.046 A 
HETATM    7  C   LIG     1      27.286  26.589  29.720  1.00  0.00     0.040 C 
HETATM    8  C   LIG     1      28.613  26.652  28.960  1.00  0.00     0.009 C 
HETATM    9  C   LIG     1      29.083  28.102  28.810  1.00  0.00     0.040 C 
HETATM   10  C   LIG     1      29.099  28.821  30.137  1.00  0.00    -0.046 A 
HETATM   11  C   LIG     1      29.947  29.922  30.311  1.00  0.00     0.008 A 
HETATM   12  C   LIG     1      29.980  30.610  31.523  1.00  0.00     0.008 A 
HETATM   13  C   LIG     1      29.147  30.228  32.583  1.00  0.00    -0.046 A 
HETATM   14  C   LIG     1      29.235  30.965  33.897  1.00  0.00     0.040 C 
HETATM   15  C   LIG     1      27.917  30.873  34.671  1.00  0.00     0.009 C 
HETATM   16  C   LIG     1      27.482  29.414  34.824  1.00  0.00     0.040 C 
ENDROOT
TORSDOF 0
ENDMDL
MODEL 17
REMARK VINA RESULT:      -5.1     16.154     17.111
REMARK  0 active torsions:
REMARK  status: ('A' for Active; 'I' for Inactive)
ROOT
HETATM    1  C   LIG     1      28.147  29.071  32.868  1.00  0.00    -0.012 A 
HETATM    2  C   LIG     1      28.064  28.226  31.730  1.00  0.00    -0.012 A 
HETATM    3  C   LIG     1      28.813  28.534  30.571  1.00  0.00    -0.046 A 
HETATM    4  C   LIG     1      29.645  29.661  30.564  1.00  0.00     0.008 A 
HETATM    5  C   LIG     1      29.720  30.496  31.678  1.00  0.00     0.008 A 
HETATM    6  C   LIG     1      28.988  30.206  32.837  1.00  0.00    -0.046 A 
HETATM    7  C   LIG     1      29.049  31.153  34.009  1.00  0.00     0.040 C 
HETATM    8  C   LIG     1      28.776  30.418  35.324  1.00  0.00     0.009 C 
HETATM    9  C   LIG     1      27.455  29.646  35.250  1.00  0.00     0.040 C 
HETATM   10  C   LIG     1      27.396  28.763  34.026  1.00  0.00    -0.046 A 
HETATM   11  C   LIG     1      26.563  27.637  34.033  1.00  0.00     0.008 A 
HETATM   12  C   LIG     1      26.482  26.806  32.916  1.00  0.00     0.008 A 
HETATM   13  C   LIG     1      27.215  27.095  31.757  1.00  0.00    -0.046 A 
HETATM   14  C   LIG     1      27.141  26.154  30.580  1.00  0.00     0.040 C 
HETATM   15  C   LIG     1      27.446  26.884  29.269  1.00  0.00     0.009 C 
HETATM   16  C   LIG     1      28.779  27.629  29.364  1.00  0.00     0.040 C 
ENDROOT
TORSDOF 0
ENDMDL
MODEL 18
REMARK VINA RESULT:      -5.1     16.184     17.391
REMARK  0 active torsions:
REMARK  status: ('A' for Active; 'I' for Inactive)
ROOT
HETATM    1  C   LIG     1      28.064  28.194  31.683  1.00  0.00    -0.012 A 
HETATM    2  C   LIG     1      28.152  29.064  32.801  1.00  0.00    -0.012 A 
HETATM    3  C   LIG     1      28.998  30.195  32.744  1.00  0.00    -0.046 A 
HETATM    4  C   LIG     1      29.727  30.457  31.576  1.00  0.00     0.008 A 
HETATM    5  C   LIG     1      29.646  29.598  30.482  1.00  0.00     0.008 A 
HETATM    6  C   LIG     1      28.812  28.473  30.517  1.00  0.00    -0.046 A 
HETATM    7  C   LIG     1      28.782  27.533  29.338  1.00  0.00     0.040 C 
HETATM    8  C   LIG     1      27.438  26.807  29.248  1.00  0.00     0.009 C 
HETATM    9  C   LIG     1      27.108  26.111  30.572  1.00  0.00     0.040 C 
HETATM   10  C   LIG     1      27.218  27.061  31.741  1.00  0.00    -0.046 A 
HETATM   11  C   LIG     1      26.491  26.798  32.908  1.00  0.00     0.008 A 
HETATM   12  C   LIG     1      26.577  27.654  34.007  1.00  0.00     0.008 A 
HETATM   13  C   LIG     1      27.411  28.779  33.971  1.00  0.00    -0.046 A 
HETATM   14  C   LIG     1      27.450  29.710  35.158  1.00  0.00     0.040 C 
HETATM   15  C   LIG     1      28.783  30.460  35.228  1.00  0.00     0.009 C 
HETATM   16  C   LIG     1      29.077  31.162  33.901  1.00  0.00     0.040 C 
ENDROOT
TORSDOF 0
ENDMDL
MODEL 19
REMARK VINA RESULT:      -5.1     16.302     18.498
REMARK  0 active torsions:
REMARK  status: ('A' for Active; 'I' for Inactive)
ROOT
HETATM    1  C   LIG     1      23.172  20.483  20.668  1.00  0.00    -0.012 A 
HETATM    2  C   LIG     1      23.352  20.299  22.065  1.00  0.00    -0.012 A 
HETATM    3  C   LIG     1      23.168  19.017  22.632  1.00  0.00    -0.046 A 
HETATM    4  C   LIG     1      22.829  17.936  21.807  1.00  0.00     0.008 A 
HETATM    5  C   LIG     1      22.645  18.119  20.437  1.00  0.00     0.008 A 
HETATM    6  C   LIG     1      22.825  19.381  19.855  1.00  0.00    -0.046 A 
HETATM    7  C   LIG     1      22.570  19.561  18.379  1.00  0.00     0.040 C 
HETATM    8  C   LIG     1      23.400  20.717  17.816  1.00  0.00     0.009 C 
HETATM    9  C   LIG     1      23.163  21.998  18.622  1.00  0.00     0.040 C 
HETATM   10  C   LIG     1      23.355  21.766  20.101  1.00  0.00    -0.046 A 
HETATM   11  C   LIG     1      23.691  22.846  20.927  1.00  0.00     0.008 A 
HETATM   12  C   LIG     1      23.869  22.665  22.298  1.00  0.00     0.008 A 
HETATM   13  C   LIG     1      23.690  21.403  22.880  1.00  0.00    -0.046 A 
HETATM   14  C   LIG     1      23.931  21.229  24.359  1.00  0.00     0.040 C 
HETATM   15  C   LIG     1      23.125  20.051  24.915  1.00  0.00     0.009 C 
HETATM   16  C   LIG     1      23.397  18.782  24.105  1.00  0.00     0.040 C 
ENDROOT
TORSDOF 0
ENDMDL
MODEL 20
REMARK VINA RESULT:      -4.9     16.457     16.728
REMARK  0 active torsions:
REMARK  status: ('A' for Active; 'I' for Inactive)
ROOT
HETATM    1  C   LIG     1      25.404  22.638  21.989  1.00  0.00    -0.012 A 
HETATM    2  C   LIG     1      24.841  22.249  20.745  1.00  0.00    -0.012 A 
HETATM    3  C   LIG     1      25.527  22.539  19.543  1.00  0.00    -0.046 A 
HETATM    4  C   LIG     1      26.767  23.190  19.593  1.00  0.00     0.008 A 
HETATM    5  C   LIG     1      27.315  23.579  20.814  1.00  0.00     0.008 A 
HETATM    6  C   LIG     1      26.653  23.299  22.016  1.00  0.00    -0.046 A 
HETATM    7  C   LIG     1      27.244  23.776  23.319  1.00  0.00     0.040 C 
HETATM    8  C   LIG     1      26.809  22.880  24.480  1.00  0.00     0.009 C 
HETATM    9  C   LIG     1      25.283  22.757  24.529  1.00  0.00     0.040 C 
HETATM   10  C   LIG     1      24.716  22.350  23.191  1.00  0.00    -0.046 A 
HETATM   11  C   LIG     1      23.476  21.700  23.140  1.00  0.00     0.008 A 
HETATM   12  C   LIG     1      22.924  21.317  21.918  1.00  0.00     0.008 A 
HETATM   13  C   LIG     1      23.587  21.596  20.717  1.00  0.00    -0.046 A 
HETATM   14  C   LIG     1      22.985  21.131  19.413  1.00  0.00     0.040 C 
HETATM   15  C   LIG     1      23.447  22.009  18.247  1.00  0.00     0.009 C 
HETATM   16  C   LIG     1      24.975  22.097  18.210  1.00  0.00     0.040 C 
ENDROOT
TORSDOF 0
ENDMDL
