REMARK  0 active torsions:
REMARK  status: ('A' for Active; 'I' for Inactive)
ROOT
HETATM    1  C   LIG     1      -0.709   0.014   0.033  1.00  0.00    -0.012 A 
HETATM    2  C   LIG     1       0.709  -0.015  -0.031  1.00  0.00    -0.012 A 
HETATM    3  C   LIG     1       1.367  -1.188  -0.467  1.00  0.00    -0.046 A 
HETATM    4  C   LIG     1       0.612  -2.304  -0.851  1.00  0.00     0.008 A 
HETATM    5  C   LIG     1      -0.780  -2.278  -0.780  1.00  0.00     0.008 A 
HETATM    6  C   LIG     1      -1.451  -1.125  -0.353  1.00  0.00    -0.046 A 
HETATM    7  C   LIG     1      -2.955  -1.141  -0.238  1.00  0.00     0.040 C 
HETATM    8  C   LIG     1      -3.534   0.265  -0.412  1.00  0.00     0.009 C 
HETATM    9  C   LIG     1      -2.873   1.248   0.559  1.00  0.00     0.040 C 
HETATM   10  C   LIG     1      -1.367   1.187   0.471  1.00  0.00    -0.046 A 
HETATM   11  C   LIG     1      -0.612   2.302   0.856  1.00  0.00     0.008 A 
HETATM   12  C   LIG     1       0.781   2.274   0.792  1.00  0.00     0.008 A 
HETATM   13  C   LIG     1       1.452   1.121   0.364  1.00  0.00    -0.046 A 
HETATM   14  C   LIG     1       2.958   1.135   0.264  1.00  0.00     0.040 C 
HETATM   15  C   LIG     1       3.534  -0.277   0.406  1.00  0.00     0.009 C 
HETATM   16  C   LIG     1       2.871  -1.232  -0.589  1.00  0.00     0.040 C 
ENDROOT
TORSDOF 0
