MODEL 1
REMARK VINA RESULT:      -6.2      0.000      0.000
REMARK  2 active torsions:
REMARK  status: ('A' for Active; 'I' for Inactive)
REMARK       I    between atoms: C_2  and  N_7 
REMARK       I    between atoms: C_2  and  N_3 
REMARK    1  A    between atoms: N_3  and  O_4 
REMARK    2  A    between atoms: N_7  and  C_8 
ROOT
HETATM    1  O   LIG     1      15.648  34.832  18.111  1.00  0.00    -0.245 OA
HETATM    2  C   LIG     1      15.542  33.875  18.925  1.00  0.00     0.346 C 
HETATM    3  N   LIG     1      15.021  32.615  18.462  1.00  0.00    -0.213 N 
HETATM    4  C   LIG     1      14.685  31.543  19.397  1.00  0.00     0.190 C 
HETATM    5  N   LIG     1      15.978  34.040  20.286  1.00  0.00    -0.307 N 
HETATM    6  H   LIG     1      16.249  33.188  20.826  1.00  0.00     0.170 HD
ENDROOT
BRANCH   5   7
HETATM    7  C   LIG     1      16.194  35.318  20.908  1.00  0.00     0.036 A 
HETATM    8  C   LIG     1      15.204  35.924  21.704  1.00  0.00     0.031 A 
HETATM    9  C   LIG     1      15.448  37.157  22.317  1.00  0.00     0.026 A 
HETATM   10  C   LIG     1      16.682  37.791  22.151  1.00  0.00     0.034 A 
HETATM   11  C   LIG     1      17.679  37.186  21.379  1.00  0.00     0.026 A 
HETATM   12 CL   LIG     1      16.986  39.337  22.922  1.00  0.00    -0.084 Cl
HETATM   13  C   LIG     1      17.438  35.953  20.766  1.00  0.00     0.031 A 
ENDBRANCH   5   7
BRANCH   3  14
HETATM   14  O   LIG     1      14.681  32.476  17.150  1.00  0.00    -0.279 OA
HETATM   15  C   LIG     1      13.808  31.375  17.070  1.00  0.00     0.238 C 
ENDBRANCH   3  14
TORSDOF 2
ENDMDL
MODEL 2
REMARK VINA RESULT:      -6.1      3.663      6.283
REMARK  2 active torsions:
REMARK  status: ('A' for Active; 'I' for Inactive)
REMARK       I    between atoms: C_2  and  N_7 
REMARK       I    between atoms: C_2  and  N_3 
REMARK    1  A    between atoms: N_3  and  O_4 
REMARK    2  A    between atoms: N_7  and  C_8 
ROOT
HETATM    1  O   LIG     1      14.475  35.340  21.630  1.00  0.00    -0.245 OA
HETATM    2  C   LIG     1      15.647  35.630  21.265  1.00  0.00     0.346 C 
HETATM    3  N   LIG     1      16.309  36.757  21.869  1.00  0.00    -0.213 N 
HETATM    4  C   LIG     1      17.577  37.262  21.344  1.00  0.00     0.190 C 
HETATM    5  N   LIG     1      16.316  34.814  20.289  1.00  0.00    -0.307 N 
HETATM    6  H   LIG     1      17.361  34.810  20.279  1.00  0.00     0.170 HD
ENDROOT
BRANCH   5   7
HETATM    7  C   LIG     1      15.639  33.897  19.412  1.00  0.00     0.036 A 
HETATM    8  C   LIG     1      15.315  34.249  18.089  1.00  0.00     0.031 A 
HETATM    9  C   LIG     1      14.677  33.331  17.250  1.00  0.00     0.026 A 
HETATM   10  C   LIG     1      14.368  32.050  17.717  1.00  0.00     0.034 A 
HETATM   11  C   LIG     1      14.706  31.684  19.024  1.00  0.00     0.026 A 
HETATM   12 CL   LIG     1      13.569  30.899  16.662  1.00  0.00    -0.084 Cl
HETATM   13  C   LIG     1      15.344  32.601  19.865  1.00  0.00     0.031 A 
ENDBRANCH   5   7
BRANCH   3  14
HETATM   14  O   LIG     1      15.668  37.467  22.839  1.00  0.00    -0.279 OA
HETATM   15  C   LIG     1      16.580  37.625  23.899  1.00  0.00     0.238 C 
ENDBRANCH   3  14
TORSDOF 2
ENDMDL
MODEL 3
REMARK VINA RESULT:      -5.9      4.064      6.889
REMARK  2 active torsions:
REMARK  status: ('A' for Active; 'I' for Inactive)
REMARK       I    between atoms: C_2  and  N_7 
REMARK       I    between atoms: C_2  and  N_3 
REMARK    1  A    between atoms: N_3  and  O_4 
REMARK    2  A    between atoms: N_7  and  C_8 
ROOT
HETATM    1  O   LIG     1      16.085  32.358  19.896  1.00  0.00    -0.245 OA
HETATM    2  C   LIG     1      15.599  33.494  19.644  1.00  0.00     0.346 C 
HETATM    3  N   LIG     1      15.537  34.479  20.692  1.00  0.00    -0.213 N 
HETATM    4  C   LIG     1      14.801  35.730  20.515  1.00  0.00     0.190 C 
HETATM    5  N   LIG     1      15.154  33.803  18.311  1.00  0.00    -0.307 N 
HETATM    6  H   LIG     1      15.125  34.805  18.018  1.00  0.00     0.170 HD
ENDROOT
BRANCH   5   7
HETATM    7  C   LIG     1      14.876  32.809  17.310  1.00  0.00     0.036 A 
HETATM    8  C   LIG     1      15.703  32.650  16.182  1.00  0.00     0.031 A 
HETATM    9  C   LIG     1      15.424  31.660  15.235  1.00  0.00     0.026 A 
HETATM   10  C   LIG     1      14.326  30.812  15.409  1.00  0.00     0.034 A 
HETATM   11  C   LIG     1      13.512  30.948  16.538  1.00  0.00     0.026 A 
HETATM   12 CL   LIG     1      13.979  29.570  14.220  1.00  0.00    -0.084 Cl
HETATM   13  C   LIG     1      13.790  31.937  17.487  1.00  0.00     0.031 A 
ENDBRANCH   5   7
BRANCH   3  14
HETATM   14  O   LIG     1      16.028  34.173  21.925  1.00  0.00    -0.279 OA
HETATM   15  C   LIG     1      16.754  35.295  22.365  1.00  0.00     0.238 C 
ENDBRANCH   3  14
TORSDOF 2
ENDMDL
MODEL 4
REMARK VINA RESULT:      -5.9      4.070      6.779
REMARK  2 active torsions:
REMARK  status: ('A' for Active; 'I' for Inactive)
REMARK       I    between atoms: C_2  and  N_7 
REMARK       I    between atoms: C_2  and  N_3 
REMARK    1  A    between atoms: N_3  and  O_4 
REMARK    2  A    between atoms: N_7  and  C_8 
ROOT
HETATM    1  O   LIG     1      16.071  32.342  19.961  1.00  0.00    -0.245 OA
HETATM    2  C   LIG     1      15.588  33.474  19.685  1.00  0.00     0.346 C 
HETATM    3  N   LIG     1      15.514  34.475  20.717  1.00  0.00    -0.213 N 
HETATM    4  C   LIG     1      14.781  35.724  20.512  1.00  0.00     0.190 C 
HETATM    5  N   LIG     1      15.158  33.762  18.343  1.00  0.00    -0.307 N 
HETATM    6  H   LIG     1      15.132  34.759  18.034  1.00  0.00     0.170 HD
ENDROOT
BRANCH   5   7
HETATM    7  C   LIG     1      14.890  32.752  17.355  1.00  0.00     0.036 A 
HETATM    8  C   LIG     1      13.780  31.893  17.464  1.00  0.00     0.031 A 
HETATM    9  C   LIG     1      13.529  30.935  16.477  1.00  0.00     0.026 A 
HETATM   10  C   LIG     1      14.374  30.832  15.368  1.00  0.00     0.034 A 
HETATM   11  C   LIG     1      15.467  31.695  15.241  1.00  0.00     0.026 A 
HETATM   12 CL   LIG     1      14.056  29.630  14.130  1.00  0.00    -0.084 Cl
HETATM   13  C   LIG     1      15.719  32.655  16.226  1.00  0.00     0.031 A 
ENDBRANCH   5   7
BRANCH   3  14
HETATM   14  O   LIG     1      15.992  34.189  21.960  1.00  0.00    -0.279 OA
HETATM   15  C   LIG     1      16.735  35.308  22.379  1.00  0.00     0.238 C 
ENDBRANCH   3  14
TORSDOF 2
ENDMDL
MODEL 5
REMARK VINA RESULT:      -5.9      1.278      1.808
REMARK  2 active torsions:
REMARK  status: ('A' for Active; 'I' for Inactive)
REMARK       I    between atoms: C_2  and  N_7 
REMARK       I    between atoms: C_2  and  N_3 
REMARK    1  A    between atoms: N_3  and  O_4 
REMARK    2  A    between atoms: N_7  and  C_8 
ROOT
HETATM    1  O   LIG     1      15.945  35.014  17.846  1.00  0.00    -0.245 OA
HETATM    2  C   LIG     1      15.468  33.940  18.303  1.00  0.00     0.346 C 
HETATM    3  N   LIG     1      14.904  32.980  17.390  1.00  0.00    -0.213 N 
HETATM    4  C   LIG     1      14.157  31.820  17.875  1.00  0.00     0.190 C 
HETATM    5  N   LIG     1      15.531  33.671  19.714  1.00  0.00    -0.307 N 
HETATM    6  H   LIG     1      15.504  32.676  20.031  1.00  0.00     0.170 HD
ENDROOT
BRANCH   5   7
HETATM    7  C   LIG     1      15.765  34.680  20.711  1.00  0.00     0.036 A 
HETATM    8  C   LIG     1      17.019  34.820  21.334  1.00  0.00     0.031 A 
HETATM    9  C   LIG     1      17.228  35.826  22.283  1.00  0.00     0.026 A 
HETATM   10  C   LIG     1      16.194  36.706  22.612  1.00  0.00     0.034 A 
HETATM   11  C   LIG     1      14.951  36.588  21.982  1.00  0.00     0.026 A 
HETATM   12 CL   LIG     1      16.458  37.968  23.802  1.00  0.00    -0.084 Cl
HETATM   13  C   LIG     1      14.740  35.584  21.031  1.00  0.00     0.031 A 
ENDBRANCH   5   7
BRANCH   3  14
HETATM   14  O   LIG     1      14.921  33.239  16.053  1.00  0.00    -0.279 OA
HETATM   15  C   LIG     1      15.957  32.463  15.501  1.00  0.00     0.238 C 
ENDBRANCH   3  14
TORSDOF 2
ENDMDL
MODEL 6
REMARK VINA RESULT:      -5.8      1.349      1.959
REMARK  2 active torsions:
REMARK  status: ('A' for Active; 'I' for Inactive)
REMARK       I    between atoms: C_2  and  N_7 
REMARK       I    between atoms: C_2  and  N_3 
REMARK    1  A    between atoms: N_3  and  O_4 
REMARK    2  A    between atoms: N_7  and  C_8 
ROOT
HETATM    1  O   LIG     1      14.880  32.816  20.355  1.00  0.00    -0.245 OA
HETATM    2  C   LIG     1      15.039  33.347  19.222  1.00  0.00     0.346 C 
HETATM    3  N   LIG     1      14.818  32.556  18.040  1.00  0.00    -0.213 N 
HETATM    4  C   LIG     1      15.184  33.054  16.714  1.00  0.00     0.190 C 
HETATM    5  N   LIG     1      15.397  34.737  19.127  1.00  0.00    -0.307 N 
HETATM    6  H   LIG     1      15.154  35.252  18.251  1.00  0.00     0.170 HD
ENDROOT
BRANCH   5   7
HETATM    7  C   LIG     1      15.948  35.498  20.215  1.00  0.00     0.036 A 
HETATM    8  C   LIG     1      17.285  35.938  20.201  1.00  0.00     0.031 A 
HETATM    9  C   LIG     1      17.790  36.697  21.262  1.00  0.00     0.026 A 
HETATM   10  C   LIG     1      16.965  37.034  22.339  1.00  0.00     0.034 A 
HETATM   11  C   LIG     1      15.630  36.619  22.351  1.00  0.00     0.026 A 
HETATM   12 CL   LIG     1      17.600  37.987  23.667  1.00  0.00    -0.084 Cl
HETATM   13  C   LIG     1      15.122  35.861  21.291  1.00  0.00     0.031 A 
ENDBRANCH   5   7
BRANCH   3  14
HETATM   14  O   LIG     1      14.415  31.262  18.169  1.00  0.00    -0.279 OA
HETATM   15  C   LIG     1      13.710  30.936  16.996  1.00  0.00     0.238 C 
ENDBRANCH   3  14
TORSDOF 2
ENDMDL
MODEL 7
REMARK VINA RESULT:      -5.6      3.031      4.298
REMARK  2 active torsions:
REMARK  status: ('A' for Active; 'I' for Inactive)
REMARK       I    between atoms: C_2  and  N_7 
REMARK       I    between atoms: C_2  and  N_3 
REMARK    1  A    between atoms: N_3  and  O_4 
REMARK    2  A    between atoms: N_7  and  C_8 
ROOT
HETATM    1  O   LIG     1      12.845  31.431  17.050  1.00  0.00    -0.245 OA
HETATM    2  C   LIG     1      13.864  31.420  16.306  1.00  0.00     0.346 C 
HETATM    3  N   LIG     1      13.875  30.568  15.146  1.00  0.00    -0.213 N 
HETATM    4  C   LIG     1      15.097  30.359  14.369  1.00  0.00     0.190 C 
HETATM    5  N   LIG     1      14.976  32.283  16.601  1.00  0.00    -0.307 N 
HETATM    6  H   LIG     1      15.612  32.556  15.819  1.00  0.00     0.170 HD
ENDROOT
BRANCH   5   7
HETATM    7  C   LIG     1      15.189  32.904  17.880  1.00  0.00     0.036 A 
HETATM    8  C   LIG     1      15.304  32.141  19.057  1.00  0.00     0.031 A 
HETATM    9  C   LIG     1      15.536  32.768  20.285  1.00  0.00     0.026 A 
HETATM   10  C   LIG     1      15.665  34.158  20.351  1.00  0.00     0.034 A 
HETATM   11  C   LIG     1      15.573  34.923  19.183  1.00  0.00     0.026 A 
HETATM   12 CL   LIG     1      15.957  34.942  21.893  1.00  0.00    -0.084 Cl
HETATM   13  C   LIG     1      15.343  34.298  17.953  1.00  0.00     0.031 A 
ENDBRANCH   5   7
BRANCH   3  14
HETATM   14  O   LIG     1      12.777  29.813  14.862  1.00  0.00    -0.279 OA
HETATM   15  C   LIG     1      13.214  28.747  14.054  1.00  0.00     0.238 C 
ENDBRANCH   3  14
TORSDOF 2
ENDMDL
MODEL 8
REMARK VINA RESULT:      -5.0      3.715      6.078
REMARK  2 active torsions:
REMARK  status: ('A' for Active; 'I' for Inactive)
REMARK       I    between atoms: C_2  and  N_7 
REMARK       I    between atoms: C_2  and  N_3 
REMARK    1  A    between atoms: N_3  and  O_4 
REMARK    2  A    between atoms: N_7  and  C_8 
ROOT
HETATM    1  O   LIG     1      16.626  36.618  20.981  1.00  0.00    -0.245 OA
HETATM    2  C   LIG     1      16.506  35.771  21.908  1.00  0.00     0.346 C 
HETATM    3  N   LIG     1      17.005  36.092  23.219  1.00  0.00    -0.213 N 
HETATM    4  C   LIG     1      17.080  35.080  24.272  1.00  0.00     0.190 C 
HETATM    5  N   LIG     1      15.841  34.521  21.655  1.00  0.00    -0.307 N 
HETATM    6  H   LIG     1      15.411  34.016  22.462  1.00  0.00     0.170 HD
ENDROOT
BRANCH   5   7
HETATM    7  C   LIG     1      15.614  33.987  20.339  1.00  0.00     0.036 A 
HETATM    8  C   LIG     1      15.485  32.603  20.120  1.00  0.00     0.031 A 
HETATM    9  C   LIG     1      15.240  32.112  18.834  1.00  0.00     0.026 A 
HETATM   10  C   LIG     1      15.110  32.995  17.758  1.00  0.00     0.034 A 
HETATM   11  C   LIG     1      15.216  34.373  17.970  1.00  0.00     0.026 A 
HETATM   12 CL   LIG     1      14.802  32.376  16.145  1.00  0.00    -0.084 Cl
HETATM   13  C   LIG     1      15.460  34.867  19.256  1.00  0.00     0.031 A 
ENDBRANCH   5   7
BRANCH   3  14
HETATM   14  O   LIG     1      17.570  37.312  23.438  1.00  0.00    -0.279 OA
HETATM   15  C   LIG     1      16.827  37.927  24.463  1.00  0.00     0.238 C 
ENDBRANCH   3  14
TORSDOF 2
ENDMDL
MODEL 9
REMARK VINA RESULT:      -4.9      5.541      7.188
REMARK  2 active torsions:
REMARK  status: ('A' for Active; 'I' for Inactive)
REMARK       I    between atoms: C_2  and  N_7 
REMARK       I    between atoms: C_2  and  N_3 
REMARK    1  A    between atoms: N_3  and  O_4 
REMARK    2  A    between atoms: N_7  and  C_8 
ROOT
HETATM    1  O   LIG     1      12.271  29.557  14.647  1.00  0.00    -0.245 OA
HETATM    2  C   LIG     1      13.365  29.065  14.257  1.00  0.00     0.346 C 
HETATM    3  N   LIG     1      13.371  27.757  13.656  1.00  0.00    -0.213 N 
HETATM    4  C   LIG     1      14.624  27.056  13.378  1.00  0.00     0.190 C 
HETATM    5  N   LIG     1      14.578  29.829  14.381  1.00  0.00    -0.307 N 
HETATM    6  H   LIG     1      15.370  29.607  13.738  1.00  0.00     0.170 HD
ENDROOT
BRANCH   5   7
HETATM    7  C   LIG     1      14.721  30.970  15.243  1.00  0.00     0.036 A 
HETATM    8  C   LIG     1      13.924  31.126  16.393  1.00  0.00     0.031 A 
HETATM    9  C   LIG     1      14.099  32.234  17.228  1.00  0.00     0.026 A 
HETATM   10  C   LIG     1      15.076  33.188  16.933  1.00  0.00     0.034 A 
HETATM   11  C   LIG     1      15.887  33.030  15.804  1.00  0.00     0.026 A 
HETATM   12 CL   LIG     1      15.295  34.576  17.983  1.00  0.00    -0.084 Cl
HETATM   13  C   LIG     1      15.714  31.923  14.968  1.00  0.00     0.031 A 
ENDBRANCH   5   7
BRANCH   3  14
HETATM   14  O   LIG     1      12.194  27.091  13.496  1.00  0.00    -0.279 OA
HETATM   15  C   LIG     1      12.321  26.315  12.329  1.00  0.00     0.238 C 
ENDBRANCH   3  14
TORSDOF 2
ENDMDL
MODEL 10
REMARK VINA RESULT:      -4.8      1.931      2.510
REMARK  2 active torsions:
REMARK  status: ('A' for Active; 'I' for Inactive)
REMARK       I    between atoms: C_2  and  N_7 
REMARK       I    between atoms: C_2  and  N_3 
REMARK    1  A    between atoms: N_3  and  O_4 
REMARK    2  A    between atoms: N_7  and  C_8 
ROOT
HETATM    1  O   LIG     1      15.277  34.166  21.750  1.00  0.00    -0.245 OA
HETATM    2  C   LIG     1      15.466  34.024  20.511  1.00  0.00     0.346 C 
HETATM    3  N   LIG     1      14.987  32.831  19.861  1.00  0.00    -0.213 N 
HETATM    4  C   LIG     1      15.354  32.519  18.481  1.00  0.00     0.190 C 
HETATM    5  N   LIG     1      16.115  35.065  19.760  1.00  0.00    -0.307 N 
HETATM    6  H   LIG     1      15.928  35.127  18.735  1.00  0.00     0.170 HD
ENDROOT
BRANCH   5   7
HETATM    7  C   LIG     1      16.901  36.110  20.357  1.00  0.00     0.036 A 
HETATM    8  C   LIG     1      18.028  36.645  19.706  1.00  0.00     0.031 A 
HETATM    9  C   LIG     1      18.762  37.678  20.298  1.00  0.00     0.026 A 
HETATM   10  C   LIG     1      18.373  38.195  21.537  1.00  0.00     0.034 A 
HETATM   11  C   LIG     1      17.241  37.684  22.181  1.00  0.00     0.026 A 
HETATM   12 CL   LIG     1      19.293  39.492  22.277  1.00  0.00    -0.084 Cl
HETATM   13  C   LIG     1      16.505  36.652  21.590  1.00  0.00     0.031 A 
ENDBRANCH   5   7
BRANCH   3  14
HETATM   14  O   LIG     1      14.317  31.897  20.592  1.00  0.00    -0.279 OA
HETATM   15  C   LIG     1      14.931  30.658  20.330  1.00  0.00     0.238 C 
ENDBRANCH   3  14
TORSDOF 2
ENDMDL
MODEL 11
REMARK VINA RESULT:      -4.6      4.982      6.122
REMARK  2 active torsions:
REMARK  status: ('A' for Active; 'I' for Inactive)
REMARK       I    between atoms: C_2  and  N_7 
REMARK       I    between atoms: C_2  and  N_3 
REMARK    1  A    between atoms: N_3  and  O_4 
REMARK    2  A    between atoms: N_7  and  C_8 
ROOT
HETATM    1  O   LIG     1      17.414  35.739  22.259  1.00  0.00    -0.245 OA
HETATM    2  C   LIG     1      17.613  36.730  23.013  1.00  0.00     0.346 C 
HETATM    3  N   LIG     1      17.175  36.668  24.383  1.00  0.00    -0.213 N 
HETATM    4  C   LIG     1      17.191  37.853  25.240  1.00  0.00     0.190 C 
HETATM    5  N   LIG     1      18.306  37.886  22.510  1.00  0.00    -0.307 N 
HETATM    6  H   LIG     1      18.796  38.505  23.192  1.00  0.00     0.170 HD
ENDROOT
BRANCH   5   7
HETATM    7  C   LIG     1      18.480  38.168  21.110  1.00  0.00     0.036 A 
HETATM    8  C   LIG     1      18.473  37.141  20.148  1.00  0.00     0.031 A 
HETATM    9  C   LIG     1      18.621  37.444  18.791  1.00  0.00     0.026 A 
HETATM   10  C   LIG     1      18.766  38.772  18.380  1.00  0.00     0.034 A 
HETATM   11  C   LIG     1      18.752  39.800  19.328  1.00  0.00     0.026 A 
HETATM   12 CL   LIG     1      18.949  39.150  16.677  1.00  0.00    -0.084 Cl
HETATM   13  C   LIG     1      18.603  39.500  20.685  1.00  0.00     0.031 A 
ENDBRANCH   5   7
BRANCH   3  14
HETATM   14  O   LIG     1      16.581  35.532  24.842  1.00  0.00    -0.279 OA
HETATM   15  C   LIG     1      17.477  34.942  25.753  1.00  0.00     0.238 C 
ENDBRANCH   3  14
TORSDOF 2
ENDMDL
MODEL 12
REMARK VINA RESULT:      -4.5      1.966      2.872
REMARK  2 active torsions:
REMARK  status: ('A' for Active; 'I' for Inactive)
REMARK       I    between atoms: C_2  and  N_7 
REMARK       I    between atoms: C_2  and  N_3 
REMARK    1  A    between atoms: N_3  and  O_4 
REMARK    2  A    between atoms: N_7  and  C_8 
ROOT
HETATM    1  O   LIG     1      16.216  32.518  16.747  1.00  0.00    -0.245 OA
HETATM    2  C   LIG     1      15.056  32.157  17.085  1.00  0.00     0.346 C 
HETATM    3  N   LIG     1      14.260  31.398  16.156  1.00  0.00    -0.213 N 
HETATM    4  C   LIG     1      12.845  31.131  16.411  1.00  0.00     0.190 C 
HETATM    5  N   LIG     1      14.563  32.468  18.400  1.00  0.00    -0.307 N 
HETATM    6  H   LIG     1      13.811  31.866  18.802  1.00  0.00     0.170 HD
ENDROOT
BRANCH   5   7
HETATM    7  C   LIG     1      15.136  33.476  19.251  1.00  0.00     0.036 A 
HETATM    8  C   LIG     1      15.304  33.263  20.632  1.00  0.00     0.031 A 
HETATM    9  C   LIG     1      15.886  34.250  21.433  1.00  0.00     0.026 A 
HETATM   10  C   LIG     1      16.314  35.453  20.865  1.00  0.00     0.034 A 
HETATM   11  C   LIG     1      16.170  35.665  19.490  1.00  0.00     0.026 A 
HETATM   12 CL   LIG     1      17.045  36.690  21.872  1.00  0.00    -0.084 Cl
HETATM   13  C   LIG     1      15.590  34.679  18.686  1.00  0.00     0.031 A 
ENDBRANCH   5   7
BRANCH   3  14
HETATM   14  O   LIG     1      14.785  31.064  14.944  1.00  0.00    -0.279 OA
HETATM   15  C   LIG     1      14.034  29.978  14.460  1.00  0.00     0.238 C 
ENDBRANCH   3  14
TORSDOF 2
ENDMDL
MODEL 13
REMARK VINA RESULT:      -4.0     19.068     20.223
REMARK  2 active torsions:
REMARK  status: ('A' for Active; 'I' for Inactive)
REMARK       I    between atoms: C_2  and  N_7 
REMARK       I    between atoms: C_2  and  N_3 
REMARK    1  A    between atoms: N_3  and  O_4 
REMARK    2  A    between atoms: N_7  and  C_8 
ROOT
HETATM    1  O   LIG     1      25.837  30.398  35.287  1.00  0.00    -0.245 OA
HETATM    2  C   LIG     1      26.677  29.775  35.992  1.00  0.00     0.346 C 
HETATM    3  N   LIG     1      26.964  30.247  37.321  1.00  0.00    -0.213 N 
HETATM    4  C   LIG     1      28.070  29.693  38.101  1.00  0.00     0.190 C 
HETATM    5  N   LIG     1      27.302  28.585  35.478  1.00  0.00    -0.307 N 
HETATM    6  H   LIG     1      27.671  27.886  36.160  1.00  0.00     0.170 HD
ENDROOT
BRANCH   5   7
HETATM    7  C   LIG     1      27.331  28.235  34.083  1.00  0.00     0.036 A 
HETATM    8  C   LIG     1      28.278  28.794  33.205  1.00  0.00     0.031 A 
HETATM    9  C   LIG     1      28.299  28.418  31.858  1.00  0.00     0.026 A 
HETATM   10  C   LIG     1      27.386  27.476  31.378  1.00  0.00     0.034 A 
HETATM   11  C   LIG     1      26.455  26.899  32.248  1.00  0.00     0.026 A 
HETATM   12 CL   LIG     1      27.416  27.005  29.688  1.00  0.00    -0.084 Cl
HETATM   13  C   LIG     1      26.433  27.273  33.596  1.00  0.00     0.031 A 
ENDBRANCH   5   7
BRANCH   3  14
HETATM   14  O   LIG     1      26.304  31.338  37.798  1.00  0.00    -0.279 OA
HETATM   15  C   LIG     1      27.261  32.357  37.957  1.00  0.00     0.238 C 
ENDBRANCH   3  14
TORSDOF 2
ENDMDL
MODEL 14
REMARK VINA RESULT:      -4.0      6.318      7.774
REMARK  2 active torsions:
REMARK  status: ('A' for Active; 'I' for Inactive)
REMARK       I    between atoms: C_2  and  N_7 
REMARK       I    between atoms: C_2  and  N_3 
REMARK    1  A    between atoms: N_3  and  O_4 
REMARK    2  A    between atoms: N_7  and  C_8 
ROOT
HETATM    1  O   LIG     1      13.204  29.821  14.657  1.00  0.00    -0.245 OA
HETATM    2  C   LIG     1      14.033  29.191  13.946  1.00  0.00     0.346 C 
HETATM    3  N   LIG     1      13.770  27.814  13.616  1.00  0.00    -0.213 N 
HETATM    4  C   LIG     1      14.786  26.980  12.975  1.00  0.00     0.190 C 
HETATM    5  N   LIG     1      15.202  29.862  13.442  1.00  0.00    -0.307 N 
HETATM    6  H   LIG     1      15.656  29.487  12.580  1.00  0.00     0.170 HD
ENDROOT
BRANCH   5   7
HETATM    7  C   LIG     1      15.705  31.099  13.975  1.00  0.00     0.036 A 
HETATM    8  C   LIG     1      16.461  31.986  13.184  1.00  0.00     0.031 A 
HETATM    9  C   LIG     1      16.918  33.194  13.719  1.00  0.00     0.026 A 
HETATM   10  C   LIG     1      16.619  33.534  15.041  1.00  0.00     0.034 A 
HETATM   11  C   LIG     1      15.851  32.670  15.827  1.00  0.00     0.026 A 
HETATM   12 CL   LIG     1      17.193  35.051  15.709  1.00  0.00    -0.084 Cl
HETATM   13  C   LIG     1      15.391  31.461  15.294  1.00  0.00     0.031 A 
ENDBRANCH   5   7
BRANCH   3  14
HETATM   14  O   LIG     1      12.620  27.231  14.056  1.00  0.00    -0.279 OA
HETATM   15  C   LIG     1      11.946  26.751  12.918  1.00  0.00     0.238 C 
ENDBRANCH   3  14
TORSDOF 2
ENDMDL
MODEL 15
REMARK VINA RESULT:      -3.9     18.436     19.052
REMARK  2 active torsions:
REMARK  status: ('A' for Active; 'I' for Inactive)
REMARK       I    between atoms: C_2  and  N_7 
REMARK       I    between atoms: C_2  and  N_3 
REMARK    1  A    between atoms: N_3  and  O_4 
REMARK    2  A    between atoms: N_7  and  C_8 
ROOT
HETATM    1  O   LIG     1      25.995  27.523  32.511  1.00  0.00    -0.245 OA
HETATM    2  C   LIG     1      27.254  27.543  32.435  1.00  0.00     0.346 C 
HETATM    3  N   LIG     1      27.913  26.667  31.502  1.00  0.00    -0.213 N 
HETATM    4  C   LIG     1      29.366  26.498  31.517  1.00  0.00     0.190 C 
HETATM    5  N   LIG     1      28.006  28.462  33.247  1.00  0.00    -0.307 N 
HETATM    6  H   LIG     1      28.956  28.747  32.921  1.00  0.00     0.170 HD
ENDROOT
BRANCH   5   7
HETATM    7  C   LIG     1      27.477  29.119  34.411  1.00  0.00     0.036 A 
HETATM    8  C   LIG     1      27.024  30.450  34.361  1.00  0.00     0.031 A 
HETATM    9  C   LIG     1      26.492  31.058  35.502  1.00  0.00     0.026 A 
HETATM   10  C   LIG     1      26.397  30.343  36.699  1.00  0.00     0.034 A 
HETATM   11  C   LIG     1      26.825  29.012  36.752  1.00  0.00     0.026 A 
HETATM   12 CL   LIG     1      25.728  31.107  38.129  1.00  0.00    -0.084 Cl
HETATM   13  C   LIG     1      27.356  28.402  35.612  1.00  0.00     0.031 A 
ENDBRANCH   5   7
BRANCH   3  14
HETATM   14  O   LIG     1      27.164  25.858  30.703  1.00  0.00    -0.279 OA
HETATM   15  C   LIG     1      27.236  26.389  29.402  1.00  0.00     0.238 C 
ENDBRANCH   3  14
TORSDOF 2
ENDMDL
MODEL 16
REMARK VINA RESULT:      -3.7     18.983     19.968
REMARK  2 active torsions:
REMARK  status: ('A' for Active; 'I' for Inactive)
REMARK       I    between atoms: C_2  and  N_7 
REMARK       I    between atoms: C_2  and  N_3 
REMARK    1  A    between atoms: N_3  and  O_4 
REMARK    2  A    between atoms: N_7  and  C_8 
ROOT
HETATM    1  O   LIG     1      27.201  27.785  35.765  1.00  0.00    -0.245 OA
HETATM    2  C   LIG     1      26.940  28.928  35.300  1.00  0.00     0.346 C 
HETATM    3  N   LIG     1      26.322  29.908  36.154  1.00  0.00    -0.213 N 
HETATM    4  C   LIG     1      25.811  31.169  35.617  1.00  0.00     0.190 C 
HETATM    5  N   LIG     1      27.296  29.248  33.943  1.00  0.00    -0.307 N 
HETATM    6  H   LIG     1      27.438  30.251  33.692  1.00  0.00     0.170 HD
ENDROOT
BRANCH   5   7
HETATM    7  C   LIG     1      27.601  28.261  32.942  1.00  0.00     0.036 A 
HETATM    8  C   LIG     1      26.610  27.406  32.427  1.00  0.00     0.031 A 
HETATM    9  C   LIG     1      26.928  26.472  31.437  1.00  0.00     0.026 A 
HETATM   10  C   LIG     1      28.233  26.388  30.944  1.00  0.00     0.034 A 
HETATM   11  C   LIG     1      29.221  27.249  31.436  1.00  0.00     0.026 A 
HETATM   12 CL   LIG     1      28.631  25.216  29.701  1.00  0.00    -0.084 Cl
HETATM   13  C   LIG     1      28.904  28.185  32.425  1.00  0.00     0.031 A 
ENDBRANCH   5   7
BRANCH   3  14
HETATM   14  O   LIG     1      26.060  29.591  37.452  1.00  0.00    -0.279 OA
HETATM   15  C   LIG     1      25.829  30.803  38.129  1.00  0.00     0.238 C 
ENDBRANCH   3  14
TORSDOF 2
ENDMDL
MODEL 17
REMARK VINA RESULT:      -3.7     15.180     16.324
REMARK  2 active torsions:
REMARK  status: ('A' for Active; 'I' for Inactive)
REMARK       I    between atoms: C_2  and  N_7 
REMARK       I    between atoms: C_2  and  N_3 
REMARK    1  A    between atoms: N_3  and  O_4 
REMARK    2  A    between atoms: N_7  and  C_8 
ROOT
HETATM    1  O   LIG     1      25.814  25.126  18.323  1.00  0.00    -0.245 OA
HETATM    2  C   LIG     1      26.282  24.779  19.442  1.00  0.00     0.346 C 
HETATM    3  N   LIG     1      27.343  25.556  20.029  1.00  0.00    -0.213 N 
HETATM    4  C   LIG     1      28.060  25.087  21.214  1.00  0.00     0.190 C 
HETATM    5  N   LIG     1      25.727  23.645  20.130  1.00  0.00    -0.307 N 
HETATM    6  H   LIG     1      25.831  23.596  21.168  1.00  0.00     0.170 HD
ENDROOT
BRANCH   5   7
HETATM    7  C   LIG     1      24.919  22.640  19.494  1.00  0.00     0.036 A 
HETATM    8  C   LIG     1      25.432  21.827  18.465  1.00  0.00     0.031 A 
HETATM    9  C   LIG     1      24.633  20.841  17.880  1.00  0.00     0.026 A 
HETATM   10  C   LIG     1      23.321  20.648  18.320  1.00  0.00     0.034 A 
HETATM   11  C   LIG     1      22.810  21.436  19.356  1.00  0.00     0.026 A 
HETATM   12 CL   LIG     1      22.320  19.408  17.585  1.00  0.00    -0.084 Cl
HETATM   13  C   LIG     1      23.607  22.422  19.945  1.00  0.00     0.031 A 
ENDBRANCH   5   7
BRANCH   3  14
HETATM   14  O   LIG     1      27.798  26.662  19.379  1.00  0.00    -0.279 OA
HETATM   15  C   LIG     1      29.112  26.379  18.963  1.00  0.00     0.238 C 
ENDBRANCH   3  14
TORSDOF 2
ENDMDL
MODEL 18
REMARK VINA RESULT:      -3.7     14.985     15.693
REMARK  2 active torsions:
REMARK  status: ('A' for Active; 'I' for Inactive)
REMARK       I    between atoms: C_2  and  N_7 
REMARK       I    between atoms: C_2  and  N_3 
REMARK    1  A    between atoms: N_3  and  O_4 
REMARK    2  A    between atoms: N_7  and  C_8 
ROOT
HETATM    1  O   LIG     1      24.223  22.797  17.921  1.00  0.00    -0.245 OA
HETATM    2  C   LIG     1      24.739  22.124  18.854  1.00  0.00     0.346 C 
HETATM    3  N   LIG     1      23.992  21.036  19.431  1.00  0.00    -0.213 N 
HETATM    4  C   LIG     1      24.450  20.359  20.643  1.00  0.00     0.190 C 
HETATM    5  N   LIG     1      26.074  22.422  19.299  1.00  0.00    -0.307 N 
HETATM    6  H   LIG     1      26.622  21.664  19.763  1.00  0.00     0.170 HD
ENDROOT
BRANCH   5   7
HETATM    7  C   LIG     1      26.751  23.660  19.024  1.00  0.00     0.036 A 
HETATM    8  C   LIG     1      27.560  23.817  17.883  1.00  0.00     0.031 A 
HETATM    9  C   LIG     1      28.188  25.039  17.625  1.00  0.00     0.026 A 
HETATM   10  C   LIG     1      28.007  26.119  18.495  1.00  0.00     0.034 A 
HETATM   11  C   LIG     1      27.188  25.978  19.619  1.00  0.00     0.026 A 
HETATM   12 CL   LIG     1      28.796  27.652  18.169  1.00  0.00    -0.084 Cl
HETATM   13  C   LIG     1      26.557  24.757  19.878  1.00  0.00     0.031 A 
ENDBRANCH   5   7
BRANCH   3  14
HETATM   14  O   LIG     1      22.757  20.741  18.938  1.00  0.00    -0.279 OA
HETATM   15  C   LIG     1      22.865  19.499  18.285  1.00  0.00     0.238 C 
ENDBRANCH   3  14
TORSDOF 2
ENDMDL
MODEL 19
REMARK VINA RESULT:      -3.6     15.046     15.722
REMARK  2 active torsions:
REMARK  status: ('A' for Active; 'I' for Inactive)
REMARK       I    between atoms: C_2  and  N_7 
REMARK       I    between atoms: C_2  and  N_3 
REMARK    1  A    between atoms: N_3  and  O_4 
REMARK    2  A    between atoms: N_7  and  C_8 
ROOT
HETATM    1  O   LIG     1      26.201  22.620  20.483  1.00  0.00    -0.245 OA
HETATM    2  C   LIG     1      25.357  22.701  19.549  1.00  0.00     0.346 C 
HETATM    3  N   LIG     1      24.306  21.720  19.468  1.00  0.00    -0.213 N 
HETATM    4  C   LIG     1      23.430  21.641  18.300  1.00  0.00     0.190 C 
HETATM    5  N   LIG     1      25.430  23.786  18.609  1.00  0.00    -0.307 N 
HETATM    6  H   LIG     1      24.558  24.067  18.108  1.00  0.00     0.170 HD
ENDROOT
BRANCH   5   7
HETATM    7  C   LIG     1      26.600  24.599  18.414  1.00  0.00     0.036 A 
HETATM    8  C   LIG     1      27.585  24.255  17.469  1.00  0.00     0.031 A 
HETATM    9  C   LIG     1      28.702  25.075  17.283  1.00  0.00     0.026 A 
HETATM   10  C   LIG     1      28.842  26.250  18.026  1.00  0.00     0.034 A 
HETATM   11  C   LIG     1      27.857  26.611  18.952  1.00  0.00     0.026 A 
HETATM   12 CL   LIG     1      30.243  27.279  17.790  1.00  0.00    -0.084 Cl
HETATM   13  C   LIG     1      26.739  25.793  19.140  1.00  0.00     0.031 A 
ENDBRANCH   5   7
BRANCH   3  14
HETATM   14  O   LIG     1      24.230  20.744  20.415  1.00  0.00    -0.279 OA
HETATM   15  C   LIG     1      23.212  21.123  21.309  1.00  0.00     0.238 C 
ENDBRANCH   3  14
TORSDOF 2
ENDMDL
MODEL 20
REMARK VINA RESULT:      -3.6     15.805     16.905
REMARK  2 active torsions:
REMARK  status: ('A' for Active; 'I' for Inactive)
REMARK       I    between atoms: C_2  and  N_7 
REMARK       I    between atoms: C_2  and  N_3 
REMARK    1  A    between atoms: N_3  and  O_4 
REMARK    2  A    between atoms: N_7  and  C_8 
ROOT
HETATM    1  O   LIG     1      25.727  23.558  20.718  1.00  0.00    -0.245 OA
HETATM    2  C   LIG     1      26.342  23.722  19.629  1.00  0.00     0.346 C 
HETATM    3  N   LIG     1      27.202  24.867  19.476  1.00  0.00    -0.213 N 
HETATM    4  C   LIG     1      27.773  25.218  18.176  1.00  0.00     0.190 C 
HETATM    5  N   LIG     1      26.209  22.750  18.578  1.00  0.00    -0.307 N 
HETATM    6  H   LIG     1      26.976  22.675  17.873  1.00  0.00     0.170 HD
ENDROOT
BRANCH   5   7
HETATM    7  C   LIG     1      25.148  21.781  18.514  1.00  0.00     0.036 A 
HETATM    8  C   LIG     1      23.817  22.164  18.265  1.00  0.00     0.031 A 
HETATM    9  C   LIG     1      22.808  21.200  18.183  1.00  0.00     0.026 A 
HETATM   10  C   LIG     1      23.117  19.846  18.338  1.00  0.00     0.034 A 
HETATM   11  C   LIG     1      24.441  19.454  18.564  1.00  0.00     0.026 A 
HETATM   12 CL   LIG     1      21.850  18.637  18.234  1.00  0.00    -0.084 Cl
HETATM   13  C   LIG     1      25.452  20.417  18.645  1.00  0.00     0.031 A 
ENDBRANCH   5   7
BRANCH   3  14
HETATM   14  O   LIG     1      27.355  25.731  20.517  1.00  0.00    -0.279 OA
HETATM   15  C   LIG     1      28.670  25.570  20.991  1.00  0.00     0.238 C 
ENDBRANCH   3  14
TORSDOF 2
ENDMDL
