REMARK  2 active torsions:
REMARK  status: ('A' for Active; 'I' for Inactive)
REMARK       I    between atoms: C_2  and  N_7 
REMARK       I    between atoms: C_2  and  N_3 
REMARK    1  A    between atoms: N_3  and  O_4 
REMARK    2  A    between atoms: N_7  and  C_8 
ROOT
HETATM    1  O   LIG     1       0.666  -0.905  -1.365  1.00  0.00    -0.245 OA
HETATM    2  C   LIG     1       0.916  -0.503  -0.196  1.00  0.00     0.346 C 
HETATM    3  N   LIG     1       2.173  -0.854   0.412  1.00  0.00    -0.213 N 
HETATM    4  C   LIG     1       2.430  -0.594   1.828  1.00  0.00     0.190 C 
HETATM    5  N   LIG     1      -0.033   0.329   0.494  1.00  0.00    -0.307 N 
HETATM    6  H   LIG     1       0.317   0.955   1.253  1.00  0.00     0.170 HD
ENDROOT
BRANCH   5   7
HETATM    7  C   LIG     1      -1.414   0.453   0.113  1.00  0.00     0.036 A 
HETATM    8  C   LIG     1      -2.125  -0.631  -0.435  1.00  0.00     0.031 A 
HETATM    9  C   LIG     1      -3.474  -0.491  -0.775  1.00  0.00     0.026 A 
HETATM   10  C   LIG     1      -4.129   0.725  -0.562  1.00  0.00     0.034 A 
HETATM   11  C   LIG     1      -3.436   1.801   0.002  1.00  0.00     0.026 A 
HETATM   12 CL   LIG     1      -5.822   0.898  -0.988  1.00  0.00    -0.084 Cl
HETATM   13  C   LIG     1      -2.087   1.663   0.344  1.00  0.00     0.031 A 
ENDBRANCH   5   7
BRANCH   3  14
HETATM   14  O   LIG     1       3.075  -1.588  -0.297  1.00  0.00    -0.279 OA
HETATM   15  C   LIG     1       3.961  -0.675  -0.898  1.00  0.00     0.238 C 
ENDBRANCH   3  14
TORSDOF 2
