REMARK  6 active torsions:
REMARK  status: ('A' for Active; 'I' for Inactive)
REMARK    1  A    between atoms: C_2  and  O_3 
REMARK    2  A    between atoms: O_3  and  C_4 
REMARK    3  A    between atoms: C_4  and  C_5 
REMARK    4  A    between atoms: C_5  and  C_6 
REMARK    5  A    between atoms: C_5  and  C_13 
REMARK    6  A    between atoms: C_5  and  O_20 
ROOT
HETATM    1  C   LIG     1       0.259  -0.688   0.771  1.00  0.00     0.201 C 
ENDROOT
BRANCH   1   2
HETATM    2  C   LIG     1      -1.208  -0.324   0.597  1.00  0.00     0.303 C 
HETATM    3  O   LIG     1      -2.035  -1.177   0.164  1.00  0.00    -0.261 OA
BRANCH   2   4
HETATM    4  O   LIG     1      -1.654   0.936   1.022  1.00  0.00    -0.314 OA
BRANCH   4   5
HETATM    5  C   LIG     1      -2.984   1.409   0.818  1.00  0.00     0.123 C 
HETATM    6  C   LIG     1      -3.218   2.625   1.712  1.00  0.00     0.040 C 
HETATM    7  C   LIG     1      -3.192   1.778  -0.654  1.00  0.00     0.040 C 
ENDBRANCH   4   5
ENDBRANCH   2   4
ENDBRANCH   1   2
BRANCH   1   8
HETATM    8  C   LIG     1       0.609  -1.942  -0.037  1.00  0.00    -0.009 A 
HETATM    9  C   LIG     1       0.437  -1.952  -1.439  1.00  0.00     0.012 A 
HETATM   10  C   LIG     1       0.766  -3.085  -2.191  1.00  0.00     0.020 A 
HETATM   11  C   LIG     1       1.278  -4.223  -1.560  1.00  0.00     0.011 A 
HETATM   12  C   LIG     1       1.459  -4.229  -0.175  1.00  0.00     0.020 A 
HETATM   13 BR   LIG     1       1.736  -5.763  -2.595  1.00  0.00    -0.051 Br
HETATM   14  C   LIG     1       1.130  -3.100   0.583  1.00  0.00     0.012 A 
ENDBRANCH   1   8
BRANCH   1  15
HETATM   15  C   LIG     1       1.196   0.442   0.319  1.00  0.00    -0.009 A 
HETATM   16  C   LIG     1       2.500   0.522   0.857  1.00  0.00     0.012 A 
HETATM   17  C   LIG     1       3.389   1.517   0.437  1.00  0.00     0.020 A 
HETATM   18  C   LIG     1       2.997   2.441  -0.536  1.00  0.00     0.011 A 
HETATM   19  C   LIG     1       1.721   2.356  -1.105  1.00  0.00     0.020 A 
HETATM   20 BR   LIG     1       4.213   3.802  -1.105  1.00  0.00    -0.051 Br
HETATM   21  C   LIG     1       0.832   1.357  -0.696  1.00  0.00     0.012 A 
ENDBRANCH   1  15
BRANCH   1  22
HETATM   22  O   LIG     1       0.458  -0.937   2.147  1.00  0.00    -0.371 OA
HETATM   23  H   LIG     1       0.292  -0.092   2.644  1.00  0.00     0.212 HD
ENDBRANCH   1  22
TORSDOF 6
