MODEL 1
REMARK VINA RESULT:      -7.1      0.000      0.000
REMARK  6 active torsions:
REMARK  status: ('A' for Active; 'I' for Inactive)
REMARK    1  A    between atoms: C_2  and  O_3 
REMARK    2  A    between atoms: O_3  and  C_4 
REMARK    3  A    between atoms: C_4  and  C_5 
REMARK    4  A    between atoms: C_5  and  C_6 
REMARK    5  A    between atoms: C_5  and  C_13 
REMARK    6  A    between atoms: C_5  and  O_20 
ROOT
HETATM    1  C   LIG     1      16.328  36.174  21.886  1.00  0.00     0.201 C 
ENDROOT
BRANCH   1   2
HETATM    2  C   LIG     1      16.872  35.577  23.176  1.00  0.00     0.303 C 
HETATM    3  O   LIG     1      17.557  34.514  23.153  1.00  0.00    -0.261 OA
BRANCH   2   4
HETATM    4  O   LIG     1      16.695  36.275  24.379  1.00  0.00    -0.314 OA
BRANCH   4   5
HETATM    5  C   LIG     1      17.760  36.914  25.081  1.00  0.00     0.123 C 
HETATM    6  C   LIG     1      17.342  38.344  25.416  1.00  0.00     0.040 C 
HETATM    7  C   LIG     1      18.089  36.137  26.360  1.00  0.00     0.040 C 
ENDBRANCH   4   5
ENDBRANCH   2   4
ENDBRANCH   1   2
BRANCH   1   8
HETATM    8  C   LIG     1      17.411  36.978  21.159  1.00  0.00    -0.009 A 
HETATM    9  C   LIG     1      18.212  36.358  20.174  1.00  0.00     0.012 A 
HETATM   10  C   LIG     1      19.194  37.084  19.492  1.00  0.00     0.020 A 
HETATM   11  C   LIG     1      19.390  38.439  19.774  1.00  0.00     0.011 A 
HETATM   12  C   LIG     1      18.604  39.069  20.741  1.00  0.00     0.020 A 
HETATM   13 BR   LIG     1      20.726  39.427  18.830  1.00  0.00    -0.051 Br
HETATM   14  C   LIG     1      17.621  38.349  21.429  1.00  0.00     0.012 A 
ENDBRANCH   1   8
BRANCH   1  15
HETATM   15  C   LIG     1      15.810  35.098  20.920  1.00  0.00    -0.009 A 
HETATM   16  C   LIG     1      15.829  35.343  19.529  1.00  0.00     0.012 A 
HETATM   17  C   LIG     1      15.399  34.369  18.623  1.00  0.00     0.020 A 
HETATM   18  C   LIG     1      14.955  33.127  19.088  1.00  0.00     0.011 A 
HETATM   19  C   LIG     1      14.961  32.854  20.461  1.00  0.00     0.020 A 
HETATM   20 BR   LIG     1      14.364  31.799  17.847  1.00  0.00    -0.051 Br
HETATM   21  C   LIG     1      15.399  33.821  21.370  1.00  0.00     0.012 A 
ENDBRANCH   1  15
BRANCH   1  22
HETATM   22  O   LIG     1      15.263  37.028  22.249  1.00  0.00    -0.371 OA
HETATM   23  H   LIG     1      15.641  37.808  22.735  1.00  0.00     0.212 HD
ENDBRANCH   1  22
TORSDOF 6
ENDMDL
MODEL 2
REMARK VINA RESULT:      -6.9      1.421      1.970
REMARK  6 active torsions:
REMARK  status: ('A' for Active; 'I' for Inactive)
REMARK    1  A    between atoms: C_2  and  O_3 
REMARK    2  A    between atoms: O_3  and  C_4 
REMARK    3  A    between atoms: C_4  and  C_5 
REMARK    4  A    between atoms: C_5  and  C_6 
REMARK    5  A    between atoms: C_5  and  C_13 
REMARK    6  A    between atoms: C_5  and  O_20 
ROOT
HETATM    1  C   LIG     1      16.401  37.524  22.506  1.00  0.00     0.201 C 
ENDROOT
BRANCH   1   2
HETATM    2  C   LIG     1      16.853  37.525  23.959  1.00  0.00     0.303 C 
HETATM    3  O   LIG     1      16.548  38.483  24.726  1.00  0.00    -0.261 OA
BRANCH   2   4
HETATM    4  O   LIG     1      17.522  36.402  24.467  1.00  0.00    -0.314 OA
BRANCH   4   5
HETATM    5  C   LIG     1      17.582  36.085  25.857  1.00  0.00     0.123 C 
HETATM    6  C   LIG     1      17.568  34.566  26.017  1.00  0.00     0.040 C 
HETATM    7  C   LIG     1      18.850  36.678  26.478  1.00  0.00     0.040 C 
ENDBRANCH   4   5
ENDBRANCH   2   4
ENDBRANCH   1   2
BRANCH   1   8
HETATM    8  C   LIG     1      17.527  38.005  21.585  1.00  0.00    -0.009 A 
HETATM    9  C   LIG     1      17.998  37.171  20.547  1.00  0.00     0.012 A 
HETATM   10  C   LIG     1      19.016  37.604  19.689  1.00  0.00     0.020 A 
HETATM   11  C   LIG     1      19.574  38.876  19.847  1.00  0.00     0.011 A 
HETATM   12  C   LIG     1      19.116  39.716  20.865  1.00  0.00     0.020 A 
HETATM   13 BR   LIG     1      20.955  39.465  18.664  1.00  0.00    -0.051 Br
HETATM   14  C   LIG     1      18.101  39.289  21.727  1.00  0.00     0.012 A 
ENDBRANCH   1   8
BRANCH   1  15
HETATM   15  C   LIG     1      15.969  36.128  22.034  1.00  0.00    -0.009 A 
HETATM   16  C   LIG     1      14.637  35.918  21.611  1.00  0.00     0.012 A 
HETATM   17  C   LIG     1      14.223  34.668  21.140  1.00  0.00     0.020 A 
HETATM   18  C   LIG     1      15.133  33.609  21.069  1.00  0.00     0.011 A 
HETATM   19  C   LIG     1      16.465  33.808  21.451  1.00  0.00     0.020 A 
HETATM   20 BR   LIG     1      14.563  31.901  20.428  1.00  0.00    -0.051 Br
HETATM   21  C   LIG     1      16.887  35.059  21.913  1.00  0.00     0.012 A 
ENDBRANCH   1  15
BRANCH   1  22
HETATM   22  O   LIG     1      15.303  38.407  22.419  1.00  0.00    -0.371 OA
HETATM   23  H   LIG     1      14.487  37.920  22.710  1.00  0.00     0.212 HD
ENDBRANCH   1  22
TORSDOF 6
ENDMDL
MODEL 3
REMARK VINA RESULT:      -6.7      2.412      5.683
REMARK  6 active torsions:
REMARK  status: ('A' for Active; 'I' for Inactive)
REMARK    1  A    between atoms: C_2  and  O_3 
REMARK    2  A    between atoms: O_3  and  C_4 
REMARK    3  A    between atoms: C_4  and  C_5 
REMARK    4  A    between atoms: C_5  and  C_6 
REMARK    5  A    between atoms: C_5  and  C_13 
REMARK    6  A    between atoms: C_5  and  O_20 
ROOT
HETATM    1  C   LIG     1      16.203  37.152  22.294  1.00  0.00     0.201 C 
ENDROOT
BRANCH   1   2
HETATM    2  C   LIG     1      15.332  36.080  21.657  1.00  0.00     0.303 C 
HETATM    3  O   LIG     1      14.073  36.198  21.644  1.00  0.00    -0.261 OA
BRANCH   2   4
HETATM    4  O   LIG     1      15.945  35.010  20.989  1.00  0.00    -0.314 OA
BRANCH   4   5
HETATM    5  C   LIG     1      15.278  34.202  20.021  1.00  0.00     0.123 C 
HETATM    6  C   LIG     1      15.604  34.730  18.626  1.00  0.00     0.040 C 
HETATM    7  C   LIG     1      15.722  32.742  20.159  1.00  0.00     0.040 C 
ENDBRANCH   4   5
ENDBRANCH   2   4
ENDBRANCH   1   2
BRANCH   1   8
HETATM    8  C   LIG     1      16.853  36.633  23.581  1.00  0.00    -0.009 A 
HETATM    9  C   LIG     1      16.979  35.243  23.800  1.00  0.00     0.012 A 
HETATM   10  C   LIG     1      17.583  34.755  24.963  1.00  0.00     0.020 A 
HETATM   11  C   LIG     1      18.076  35.643  25.925  1.00  0.00     0.011 A 
HETATM   12  C   LIG     1      17.964  37.020  25.723  1.00  0.00     0.020 A 
HETATM   13 BR   LIG     1      18.910  34.969  27.507  1.00  0.00    -0.051 Br
HETATM   14  C   LIG     1      17.359  37.515  24.562  1.00  0.00     0.012 A 
ENDBRANCH   1   8
BRANCH   1  15
HETATM   15  C   LIG     1      17.325  37.624  21.356  1.00  0.00    -0.009 A 
HETATM   16  C   LIG     1      17.767  38.964  21.419  1.00  0.00     0.012 A 
HETATM   17  C   LIG     1      18.812  39.414  20.605  1.00  0.00     0.020 A 
HETATM   18  C   LIG     1      19.442  38.530  19.723  1.00  0.00     0.011 A 
HETATM   19  C   LIG     1      19.040  37.191  19.672  1.00  0.00     0.020 A 
HETATM   20 BR   LIG     1      20.867  39.148  18.609  1.00  0.00    -0.051 Br
HETATM   21  C   LIG     1      18.003  36.734  20.491  1.00  0.00     0.012 A 
ENDBRANCH   1  15
BRANCH   1  22
HETATM   22  O   LIG     1      15.356  38.242  22.594  1.00  0.00    -0.371 OA
HETATM   23  H   LIG     1      14.747  38.385  21.822  1.00  0.00     0.212 HD
ENDBRANCH   1  22
TORSDOF 6
ENDMDL
MODEL 4
REMARK VINA RESULT:      -6.2      2.629      5.846
REMARK  6 active torsions:
REMARK  status: ('A' for Active; 'I' for Inactive)
REMARK    1  A    between atoms: C_2  and  O_3 
REMARK    2  A    between atoms: O_3  and  C_4 
REMARK    3  A    between atoms: C_4  and  C_5 
REMARK    4  A    between atoms: C_5  and  C_6 
REMARK    5  A    between atoms: C_5  and  C_13 
REMARK    6  A    between atoms: C_5  and  O_20 
ROOT
HETATM    1  C   LIG     1      16.326  37.385  23.085  1.00  0.00     0.201 C 
ENDROOT
BRANCH   1   2
HETATM    2  C   LIG     1      17.104  38.493  22.390  1.00  0.00     0.303 C 
HETATM    3  O   LIG     1      16.735  39.698  22.492  1.00  0.00    -0.261 OA
BRANCH   2   4
HETATM    4  O   LIG     1      18.296  38.176  21.724  1.00  0.00    -0.314 OA
BRANCH   4   5
HETATM    5  C   LIG     1      18.483  38.352  20.321  1.00  0.00     0.123 C 
HETATM    6  C   LIG     1      19.654  39.307  20.095  1.00  0.00     0.040 C 
HETATM    7  C   LIG     1      18.757  37.002  19.652  1.00  0.00     0.040 C 
ENDBRANCH   4   5
ENDBRANCH   2   4
ENDBRANCH   1   2
BRANCH   1   8
HETATM    8  C   LIG     1      16.043  36.230  22.119  1.00  0.00    -0.009 A 
HETATM    9  C   LIG     1      16.993  35.198  21.951  1.00  0.00     0.012 A 
HETATM   10  C   LIG     1      16.742  34.130  21.083  1.00  0.00     0.020 A 
HETATM   11  C   LIG     1      15.538  34.068  20.374  1.00  0.00     0.011 A 
HETATM   12  C   LIG     1      14.586  35.078  20.531  1.00  0.00     0.020 A 
HETATM   13 BR   LIG     1      15.197  32.600  19.199  1.00  0.00    -0.051 Br
HETATM   14  C   LIG     1      14.832  36.150  21.396  1.00  0.00     0.012 A 
ENDBRANCH   1   8
BRANCH   1  15
HETATM   15  C   LIG     1      17.081  36.815  24.295  1.00  0.00    -0.009 A 
HETATM   16  C   LIG     1      16.961  35.442  24.606  1.00  0.00     0.012 A 
HETATM   17  C   LIG     1      17.666  34.886  25.679  1.00  0.00     0.020 A 
HETATM   18  C   LIG     1      18.513  35.687  26.451  1.00  0.00     0.011 A 
HETATM   19  C   LIG     1      18.671  37.041  26.136  1.00  0.00     0.020 A 
HETATM   20 BR   LIG     1      19.472  34.925  27.919  1.00  0.00    -0.051 Br
HETATM   21  C   LIG     1      17.976  37.600  25.058  1.00  0.00     0.012 A 
ENDBRANCH   1  15
BRANCH   1  22
HETATM   22  O   LIG     1      15.108  37.951  23.520  1.00  0.00    -0.371 OA
HETATM   23  H   LIG     1      15.006  38.842  23.089  1.00  0.00     0.212 HD
ENDBRANCH   1  22
TORSDOF 6
ENDMDL
MODEL 5
REMARK VINA RESULT:      -6.0      0.658      5.029
REMARK  6 active torsions:
REMARK  status: ('A' for Active; 'I' for Inactive)
REMARK    1  A    between atoms: C_2  and  O_3 
REMARK    2  A    between atoms: O_3  and  C_4 
REMARK    3  A    between atoms: C_4  and  C_5 
REMARK    4  A    between atoms: C_5  and  C_6 
REMARK    5  A    between atoms: C_5  and  C_13 
REMARK    6  A    between atoms: C_5  and  O_20 
ROOT
HETATM    1  C   LIG     1      16.818  35.616  21.693  1.00  0.00     0.201 C 
ENDROOT
BRANCH   1   2
HETATM    2  C   LIG     1      15.773  36.327  22.540  1.00  0.00     0.303 C 
HETATM    3  O   LIG     1      14.672  36.688  22.034  1.00  0.00    -0.261 OA
BRANCH   2   4
HETATM    4  O   LIG     1      16.000  36.484  23.915  1.00  0.00    -0.314 OA
BRANCH   4   5
HETATM    5  C   LIG     1      17.271  36.820  24.468  1.00  0.00     0.123 C 
HETATM    6  C   LIG     1      17.233  38.269  24.950  1.00  0.00     0.040 C 
HETATM    7  C   LIG     1      17.607  35.878  25.629  1.00  0.00     0.040 C 
ENDBRANCH   4   5
ENDBRANCH   2   4
ENDBRANCH   1   2
BRANCH   1   8
HETATM    8  C   LIG     1      16.151  34.745  20.623  1.00  0.00    -0.009 A 
HETATM    9  C   LIG     1      15.849  35.289  19.355  1.00  0.00     0.012 A 
HETATM   10  C   LIG     1      15.253  34.502  18.363  1.00  0.00     0.020 A 
HETATM   11  C   LIG     1      14.956  33.159  18.616  1.00  0.00     0.011 A 
HETATM   12  C   LIG     1      15.253  32.604  19.863  1.00  0.00     0.020 A 
HETATM   13 BR   LIG     1      14.153  32.087  17.253  1.00  0.00    -0.051 Br
HETATM   14  C   LIG     1      15.846  33.386  20.859  1.00  0.00     0.012 A 
ENDBRANCH   1   8
BRANCH   1  15
HETATM   15  C   LIG     1      17.759  36.600  20.983  1.00  0.00    -0.009 A 
HETATM   16  C   LIG     1      18.641  36.125  19.987  1.00  0.00     0.012 A 
HETATM   17  C   LIG     1      19.483  37.003  19.296  1.00  0.00     0.020 A 
HETATM   18  C   LIG     1      19.449  38.372  19.577  1.00  0.00     0.011 A 
HETATM   19  C   LIG     1      18.557  38.865  20.537  1.00  0.00     0.020 A 
HETATM   20 BR   LIG     1      20.604  39.568  18.634  1.00  0.00    -0.051 Br
HETATM   21  C   LIG     1      17.707  37.993  21.223  1.00  0.00     0.012 A 
ENDBRANCH   1  15
BRANCH   1  22
HETATM   22  O   LIG     1      17.569  34.802  22.569  1.00  0.00    -0.371 OA
HETATM   23  H   LIG     1      16.939  34.339  23.183  1.00  0.00     0.212 HD
ENDBRANCH   1  22
TORSDOF 6
ENDMDL
MODEL 6
REMARK VINA RESULT:      -5.8      5.472      8.939
REMARK  6 active torsions:
REMARK  status: ('A' for Active; 'I' for Inactive)
REMARK    1  A    between atoms: C_2  and  O_3 
REMARK    2  A    between atoms: O_3  and  C_4 
REMARK    3  A    between atoms: C_4  and  C_5 
REMARK    4  A    between atoms: C_5  and  C_6 
REMARK    5  A    between atoms: C_5  and  C_13 
REMARK    6  A    between atoms: C_5  and  O_20 
ROOT
HETATM    1  C   LIG     1      16.168  32.237  15.784  1.00  0.00     0.201 C 
ENDROOT
BRANCH   1   2
HETATM    2  C   LIG     1      15.405  33.258  16.615  1.00  0.00     0.303 C 
HETATM    3  O   LIG     1      15.279  34.450  16.211  1.00  0.00    -0.261 OA
BRANCH   2   4
HETATM    4  O   LIG     1      14.754  32.838  17.783  1.00  0.00    -0.314 OA
BRANCH   4   5
HETATM    5  C   LIG     1      15.432  32.571  19.009  1.00  0.00     0.123 C 
HETATM    6  C   LIG     1      15.442  33.844  19.854  1.00  0.00     0.040 C 
HETATM    7  C   LIG     1      14.734  31.434  19.761  1.00  0.00     0.040 C 
ENDBRANCH   4   5
ENDBRANCH   2   4
ENDBRANCH   1   2
BRANCH   1   8
HETATM    8  C   LIG     1      15.221  31.165  15.234  1.00  0.00    -0.009 A 
HETATM    9  C   LIG     1      15.708  30.177  14.349  1.00  0.00     0.012 A 
HETATM   10  C   LIG     1      14.858  29.184  13.850  1.00  0.00     0.020 A 
HETATM   11  C   LIG     1      13.513  29.154  14.231  1.00  0.00     0.011 A 
HETATM   12  C   LIG     1      13.016  30.120  15.109  1.00  0.00     0.020 A 
HETATM   13 BR   LIG     1      12.360  27.787  13.555  1.00  0.00    -0.051 Br
HETATM   14  C   LIG     1      13.860  31.117  15.609  1.00  0.00     0.012 A 
ENDBRANCH   1   8
BRANCH   1  15
HETATM   15  C   LIG     1      16.894  32.882  14.593  1.00  0.00    -0.009 A 
HETATM   16  C   LIG     1      18.259  33.227  14.714  1.00  0.00     0.012 A 
HETATM   17  C   LIG     1      18.956  33.781  13.636  1.00  0.00     0.020 A 
HETATM   18  C   LIG     1      18.308  33.987  12.414  1.00  0.00     0.011 A 
HETATM   19  C   LIG     1      16.966  33.619  12.266  1.00  0.00     0.020 A 
HETATM   20 BR   LIG     1      19.264  34.747  10.943  1.00  0.00    -0.051 Br
HETATM   21  C   LIG     1      16.267  33.056  13.338  1.00  0.00     0.012 A 
ENDBRANCH   1  15
BRANCH   1  22
HETATM   22  O   LIG     1      17.118  31.639  16.641  1.00  0.00    -0.371 OA
HETATM   23  H   LIG     1      17.176  32.184  17.471  1.00  0.00     0.212 HD
ENDBRANCH   1  22
TORSDOF 6
ENDMDL
MODEL 7
REMARK VINA RESULT:      -5.6     15.037     16.554
REMARK  6 active torsions:
REMARK  status: ('A' for Active; 'I' for Inactive)
REMARK    1  A    between atoms: C_2  and  O_3 
REMARK    2  A    between atoms: O_3  and  C_4 
REMARK    3  A    between atoms: C_4  and  C_5 
REMARK    4  A    between atoms: C_5  and  C_6 
REMARK    5  A    between atoms: C_5  and  C_13 
REMARK    6  A    between atoms: C_5  and  O_20 
ROOT
HETATM    1  C   LIG     1      26.072  22.386  19.377  1.00  0.00     0.201 C 
ENDROOT
BRANCH   1   2
HETATM    2  C   LIG     1      24.854  22.201  18.484  1.00  0.00     0.303 C 
HETATM    3  O   LIG     1      24.341  23.188  17.883  1.00  0.00    -0.261 OA
BRANCH   2   4
HETATM    4  O   LIG     1      24.369  20.905  18.251  1.00  0.00    -0.314 OA
BRANCH   4   5
HETATM    5  C   LIG     1      23.074  20.466  18.656  1.00  0.00     0.123 C 
HETATM    6  C   LIG     1      22.432  19.695  17.505  1.00  0.00     0.040 C 
HETATM    7  C   LIG     1      23.185  19.578  19.900  1.00  0.00     0.040 C 
ENDBRANCH   4   5
ENDBRANCH   2   4
ENDBRANCH   1   2
BRANCH   1   8
HETATM    8  C   LIG     1      26.807  23.685  19.033  1.00  0.00    -0.009 A 
HETATM    9  C   LIG     1      27.802  23.692  18.030  1.00  0.00     0.012 A 
HETATM   10  C   LIG     1      28.471  24.874  17.696  1.00  0.00     0.020 A 
HETATM   11  C   LIG     1      28.156  26.069  18.350  1.00  0.00     0.011 A 
HETATM   12  C   LIG     1      27.172  26.082  19.341  1.00  0.00     0.020 A 
HETATM   13 BR   LIG     1      29.067  27.682  17.879  1.00  0.00    -0.051 Br
HETATM   14  C   LIG     1      26.500  24.903  19.682  1.00  0.00     0.012 A 
ENDBRANCH   1   8
BRANCH   1  15
HETATM   15  C   LIG     1      25.699  22.434  20.867  1.00  0.00    -0.009 A 
HETATM   16  C   LIG     1      26.707  22.264  21.842  1.00  0.00     0.012 A 
HETATM   17  C   LIG     1      26.404  22.341  23.206  1.00  0.00     0.020 A 
HETATM   18  C   LIG     1      25.095  22.601  23.619  1.00  0.00     0.011 A 
HETATM   19  C   LIG     1      24.090  22.806  22.667  1.00  0.00     0.020 A 
HETATM   20 BR   LIG     1      24.684  22.701  25.484  1.00  0.00    -0.051 Br
HETATM   21  C   LIG     1      24.389  22.741  21.302  1.00  0.00     0.012 A 
ENDBRANCH   1  15
BRANCH   1  22
HETATM   22  O   LIG     1      26.921  21.282  19.144  1.00  0.00    -0.371 OA
HETATM   23  H   LIG     1      27.131  20.859  20.020  1.00  0.00     0.212 HD
ENDBRANCH   1  22
TORSDOF 6
ENDMDL
MODEL 8
REMARK VINA RESULT:      -5.5     15.833     18.017
REMARK  6 active torsions:
REMARK  status: ('A' for Active; 'I' for Inactive)
REMARK    1  A    between atoms: C_2  and  O_3 
REMARK    2  A    between atoms: O_3  and  C_4 
REMARK    3  A    between atoms: C_4  and  C_5 
REMARK    4  A    between atoms: C_5  and  C_6 
REMARK    5  A    between atoms: C_5  and  C_13 
REMARK    6  A    between atoms: C_5  and  O_20 
ROOT
HETATM    1  C   LIG     1      23.635  21.316  18.691  1.00  0.00     0.201 C 
ENDROOT
BRANCH   1   2
HETATM    2  C   LIG     1      23.561  20.188  17.673  1.00  0.00     0.303 C 
HETATM    3  O   LIG     1      24.601  19.546  17.348  1.00  0.00    -0.261 OA
BRANCH   2   4
HETATM    4  O   LIG     1      22.309  19.797  17.176  1.00  0.00    -0.314 OA
BRANCH   4   5
HETATM    5  C   LIG     1      21.972  18.446  16.869  1.00  0.00     0.123 C 
HETATM    6  C   LIG     1      20.973  17.938  17.906  1.00  0.00     0.040 C 
HETATM    7  C   LIG     1      21.375  18.359  15.461  1.00  0.00     0.040 C 
ENDBRANCH   4   5
ENDBRANCH   2   4
ENDBRANCH   1   2
BRANCH   1   8
HETATM    8  C   LIG     1      23.329  20.799  20.101  1.00  0.00    -0.009 A 
HETATM    9  C   LIG     1      23.056  21.710  21.145  1.00  0.00     0.012 A 
HETATM   10  C   LIG     1      22.761  21.252  22.434  1.00  0.00     0.020 A 
HETATM   11  C   LIG     1      22.726  19.880  22.701  1.00  0.00     0.011 A 
HETATM   12  C   LIG     1      22.989  18.965  21.679  1.00  0.00     0.020 A 
HETATM   13 BR   LIG     1      22.311  19.261  24.461  1.00  0.00    -0.051 Br
HETATM   14  C   LIG     1      23.287  19.417  20.389  1.00  0.00     0.012 A 
ENDBRANCH   1   8
BRANCH   1  15
HETATM   15  C   LIG     1      25.019  21.982  18.722  1.00  0.00    -0.009 A 
HETATM   16  C   LIG     1      25.177  23.285  18.201  1.00  0.00     0.012 A 
HETATM   17  C   LIG     1      26.416  23.932  18.249  1.00  0.00     0.020 A 
HETATM   18  C   LIG     1      27.516  23.295  18.830  1.00  0.00     0.011 A 
HETATM   19  C   LIG     1      27.371  22.016  19.382  1.00  0.00     0.020 A 
HETATM   20 BR   LIG     1      29.210  24.179  18.891  1.00  0.00    -0.051 Br
HETATM   21  C   LIG     1      26.132  21.370  19.345  1.00  0.00     0.012 A 
ENDBRANCH   1  15
BRANCH   1  22
HETATM   22  O   LIG     1      22.666  22.272  18.313  1.00  0.00    -0.371 OA
HETATM   23  H   LIG     1      21.862  22.142  18.882  1.00  0.00     0.212 HD
ENDBRANCH   1  22
TORSDOF 6
ENDMDL
MODEL 9
REMARK VINA RESULT:      -5.4     15.053     16.937
REMARK  6 active torsions:
REMARK  status: ('A' for Active; 'I' for Inactive)
REMARK    1  A    between atoms: C_2  and  O_3 
REMARK    2  A    between atoms: O_3  and  C_4 
REMARK    3  A    between atoms: C_4  and  C_5 
REMARK    4  A    between atoms: C_5  and  C_6 
REMARK    5  A    between atoms: C_5  and  C_13 
REMARK    6  A    between atoms: C_5  and  O_20 
ROOT
HETATM    1  C   LIG     1      24.985  21.428  21.013  1.00  0.00     0.201 C 
ENDROOT
BRANCH   1   2
HETATM    2  C   LIG     1      24.149  22.003  22.147  1.00  0.00     0.303 C 
HETATM    3  O   LIG     1      22.983  22.441  21.928  1.00  0.00    -0.261 OA
BRANCH   2   4
HETATM    4  O   LIG     1      24.645  21.945  23.458  1.00  0.00    -0.314 OA
BRANCH   4   5
HETATM    5  C   LIG     1      25.250  23.055  24.120  1.00  0.00     0.123 C 
HETATM    6  C   LIG     1      24.903  22.992  25.606  1.00  0.00     0.040 C 
HETATM    7  C   LIG     1      26.768  23.023  23.921  1.00  0.00     0.040 C 
ENDBRANCH   4   5
ENDBRANCH   2   4
ENDBRANCH   1   2
BRANCH   1   8
HETATM    8  C   LIG     1      24.092  20.768  19.958  1.00  0.00    -0.009 A 
HETATM    9  C   LIG     1      23.654  19.437  20.133  1.00  0.00     0.012 A 
HETATM   10  C   LIG     1      22.826  18.826  19.185  1.00  0.00     0.020 A 
HETATM   11  C   LIG     1      22.416  19.534  18.051  1.00  0.00     0.011 A 
HETATM   12  C   LIG     1      22.835  20.853  17.864  1.00  0.00     0.020 A 
HETATM   13 BR   LIG     1      21.276  18.697  16.765  1.00  0.00    -0.051 Br
HETATM   14  C   LIG     1      23.665  21.469  18.808  1.00  0.00     0.012 A 
ENDBRANCH   1   8
BRANCH   1  15
HETATM   15  C   LIG     1      25.830  22.502  20.312  1.00  0.00    -0.009 A 
HETATM   16  C   LIG     1      25.471  23.863  20.438  1.00  0.00     0.012 A 
HETATM   17  C   LIG     1      26.242  24.866  19.842  1.00  0.00     0.020 A 
HETATM   18  C   LIG     1      27.393  24.530  19.122  1.00  0.00     0.011 A 
HETATM   19  C   LIG     1      27.783  23.190  19.016  1.00  0.00     0.020 A 
HETATM   20 BR   LIG     1      28.443  25.904  18.306  1.00  0.00    -0.051 Br
HETATM   21  C   LIG     1      27.021  22.184  19.618  1.00  0.00     0.012 A 
ENDBRANCH   1  15
BRANCH   1  22
HETATM   22  O   LIG     1      25.841  20.461  21.586  1.00  0.00    -0.371 OA
HETATM   23  H   LIG     1      25.991  19.742  20.916  1.00  0.00     0.212 HD
ENDBRANCH   1  22
TORSDOF 6
ENDMDL
MODEL 10
REMARK VINA RESULT:      -5.3     15.648     17.870
REMARK  6 active torsions:
REMARK  status: ('A' for Active; 'I' for Inactive)
REMARK    1  A    between atoms: C_2  and  O_3 
REMARK    2  A    between atoms: O_3  and  C_4 
REMARK    3  A    between atoms: C_4  and  C_5 
REMARK    4  A    between atoms: C_5  and  C_6 
REMARK    5  A    between atoms: C_5  and  C_13 
REMARK    6  A    between atoms: C_5  and  O_20 
ROOT
HETATM    1  C   LIG     1      23.923  21.412  18.798  1.00  0.00     0.201 C 
ENDROOT
BRANCH   1   2
HETATM    2  C   LIG     1      24.349  20.285  17.870  1.00  0.00     0.303 C 
HETATM    3  O   LIG     1      23.498  19.689  17.150  1.00  0.00    -0.261 OA
BRANCH   2   4
HETATM    4  O   LIG     1      25.713  19.984  17.743  1.00  0.00    -0.314 OA
BRANCH   4   5
HETATM    5  C   LIG     1      26.449  20.164  16.534  1.00  0.00     0.123 C 
HETATM    6  C   LIG     1      27.700  20.987  16.836  1.00  0.00     0.040 C 
HETATM    7  C   LIG     1      26.831  18.805  15.942  1.00  0.00     0.040 C 
ENDBRANCH   4   5
ENDBRANCH   2   4
ENDBRANCH   1   2
BRANCH   1   8
HETATM    8  C   LIG     1      23.552  20.869  20.182  1.00  0.00    -0.009 A 
HETATM    9  C   LIG     1      22.995  21.729  21.154  1.00  0.00     0.012 A 
HETATM   10  C   LIG     1      22.638  21.243  22.417  1.00  0.00     0.020 A 
HETATM   11  C   LIG     1      22.823  19.892  22.728  1.00  0.00     0.011 A 
HETATM   12  C   LIG     1      23.368  19.027  21.777  1.00  0.00     0.020 A 
HETATM   13 BR   LIG     1      22.322  19.233  24.451  1.00  0.00    -0.051 Br
HETATM   14  C   LIG     1      23.729  19.507  20.513  1.00  0.00     0.012 A 
ENDBRANCH   1   8
BRANCH   1  15
HETATM   15  C   LIG     1      25.029  22.462  18.984  1.00  0.00    -0.009 A 
HETATM   16  C   LIG     1      25.133  23.533  18.069  1.00  0.00     0.012 A 
HETATM   17  C   LIG     1      26.106  24.525  18.234  1.00  0.00     0.020 A 
HETATM   18  C   LIG     1      26.983  24.471  19.321  1.00  0.00     0.011 A 
HETATM   19  C   LIG     1      26.873  23.436  20.256  1.00  0.00     0.020 A 
HETATM   20 BR   LIG     1      28.314  25.826  19.541  1.00  0.00    -0.051 Br
HETATM   21  C   LIG     1      25.896  22.448  20.102  1.00  0.00     0.012 A 
ENDBRANCH   1  15
BRANCH   1  22
HETATM   22  O   LIG     1      22.795  22.024  18.208  1.00  0.00    -0.371 OA
HETATM   23  H   LIG     1      22.197  21.308  17.863  1.00  0.00     0.212 HD
ENDBRANCH   1  22
TORSDOF 6
ENDMDL
MODEL 11
REMARK VINA RESULT:      -5.3     15.121     16.457
REMARK  6 active torsions:
REMARK  status: ('A' for Active; 'I' for Inactive)
REMARK    1  A    between atoms: C_2  and  O_3 
REMARK    2  A    between atoms: O_3  and  C_4 
REMARK    3  A    between atoms: C_4  and  C_5 
REMARK    4  A    between atoms: C_5  and  C_6 
REMARK    5  A    between atoms: C_5  and  C_13 
REMARK    6  A    between atoms: C_5  and  O_20 
ROOT
HETATM    1  C   LIG     1      26.024  22.565  19.478  1.00  0.00     0.201 C 
ENDROOT
BRANCH   1   2
HETATM    2  C   LIG     1      26.030  23.982  18.925  1.00  0.00     0.303 C 
HETATM    3  O   LIG     1      25.574  24.223  17.771  1.00  0.00    -0.261 OA
BRANCH   2   4
HETATM    4  O   LIG     1      26.450  25.036  19.750  1.00  0.00    -0.314 OA
BRANCH   4   5
HETATM    5  C   LIG     1      27.804  25.474  19.838  1.00  0.00     0.123 C 
HETATM    6  C   LIG     1      27.974  26.725  18.978  1.00  0.00     0.040 C 
HETATM    7  C   LIG     1      28.169  25.772  21.295  1.00  0.00     0.040 C 
ENDBRANCH   4   5
ENDBRANCH   2   4
ENDBRANCH   1   2
BRANCH   1   8
HETATM    8  C   LIG     1      25.740  22.568  20.984  1.00  0.00    -0.009 A 
HETATM    9  C   LIG     1      26.789  22.348  21.903  1.00  0.00     0.012 A 
HETATM   10  C   LIG     1      26.546  22.363  23.281  1.00  0.00     0.020 A 
HETATM   11  C   LIG     1      25.257  22.605  23.765  1.00  0.00     0.011 A 
HETATM   12  C   LIG     1      24.208  22.829  22.870  1.00  0.00     0.020 A 
HETATM   13 BR   LIG     1      24.935  22.635  25.649  1.00  0.00    -0.051 Br
HETATM   14  C   LIG     1      24.444  22.813  21.491  1.00  0.00     0.012 A 
ENDBRANCH   1   8
BRANCH   1  15
HETATM   15  C   LIG     1      24.967  21.680  18.800  1.00  0.00    -0.009 A 
HETATM   16  C   LIG     1      25.354  20.446  18.231  1.00  0.00     0.012 A 
HETATM   17  C   LIG     1      24.408  19.601  17.640  1.00  0.00     0.020 A 
HETATM   18  C   LIG     1      23.059  19.968  17.618  1.00  0.00     0.011 A 
HETATM   19  C   LIG     1      22.653  21.171  18.207  1.00  0.00     0.020 A 
HETATM   20 BR   LIG     1      21.770  18.813  16.806  1.00  0.00    -0.051 Br
HETATM   21  C   LIG     1      23.593  22.014  18.808  1.00  0.00     0.012 A 
ENDBRANCH   1  15
BRANCH   1  22
HETATM   22  O   LIG     1      27.308  22.027  19.237  1.00  0.00    -0.371 OA
HETATM   23  H   LIG     1      27.873  22.738  18.835  1.00  0.00     0.212 HD
ENDBRANCH   1  22
TORSDOF 6
ENDMDL
MODEL 12
REMARK VINA RESULT:      -5.1      5.593      9.293
REMARK  6 active torsions:
REMARK  status: ('A' for Active; 'I' for Inactive)
REMARK    1  A    between atoms: C_2  and  O_3 
REMARK    2  A    between atoms: O_3  and  C_4 
REMARK    3  A    between atoms: C_4  and  C_5 
REMARK    4  A    between atoms: C_5  and  C_6 
REMARK    5  A    between atoms: C_5  and  C_13 
REMARK    6  A    between atoms: C_5  and  O_20 
ROOT
HETATM    1  C   LIG     1      16.001  32.647  15.230  1.00  0.00     0.201 C 
ENDROOT
BRANCH   1   2
HETATM    2  C   LIG     1      17.477  32.473  14.904  1.00  0.00     0.303 C 
HETATM    3  O   LIG     1      18.269  31.979  15.757  1.00  0.00    -0.261 OA
BRANCH   2   4
HETATM    4  O   LIG     1      17.930  32.768  13.610  1.00  0.00    -0.314 OA
BRANCH   4   5
HETATM    5  C   LIG     1      18.605  33.977  13.270  1.00  0.00     0.123 C 
HETATM    6  C   LIG     1      20.050  33.648  12.899  1.00  0.00     0.040 C 
HETATM    7  C   LIG     1      17.895  34.667  12.101  1.00  0.00     0.040 C 
ENDBRANCH   4   5
ENDBRANCH   2   4
ENDBRANCH   1   2
BRANCH   1   8
HETATM    8  C   LIG     1      15.210  31.384  14.872  1.00  0.00    -0.009 A 
HETATM    9  C   LIG     1      15.788  30.400  14.039  1.00  0.00     0.012 A 
HETATM   10  C   LIG     1      15.083  29.235  13.716  1.00  0.00     0.020 A 
HETATM   11  C   LIG     1      13.796  29.029  14.221  1.00  0.00     0.011 A 
HETATM   12  C   LIG     1      13.211  29.990  15.050  1.00  0.00     0.020 A 
HETATM   13 BR   LIG     1      12.844  27.431  13.785  1.00  0.00    -0.051 Br
HETATM   14  C   LIG     1      13.910  31.158  15.375  1.00  0.00     0.012 A 
ENDBRANCH   1   8
BRANCH   1  15
HETATM   15  C   LIG     1      15.765  32.946  16.718  1.00  0.00    -0.009 A 
HETATM   16  C   LIG     1      15.607  34.284  17.143  1.00  0.00     0.012 A 
HETATM   17  C   LIG     1      15.354  34.585  18.485  1.00  0.00     0.020 A 
HETATM   18  C   LIG     1      15.241  33.555  19.424  1.00  0.00     0.011 A 
HETATM   19  C   LIG     1      15.360  32.222  19.015  1.00  0.00     0.020 A 
HETATM   20 BR   LIG     1      14.898  33.970  21.259  1.00  0.00    -0.051 Br
HETATM   21  C   LIG     1      15.603  31.915  17.673  1.00  0.00     0.012 A 
ENDBRANCH   1  15
BRANCH   1  22
HETATM   22  O   LIG     1      15.537  33.735  14.456  1.00  0.00    -0.371 OA
HETATM   23  H   LIG     1      15.008  34.334  15.047  1.00  0.00     0.212 HD
ENDBRANCH   1  22
TORSDOF 6
ENDMDL
MODEL 13
REMARK VINA RESULT:      -5.0      5.020      8.166
REMARK  6 active torsions:
REMARK  status: ('A' for Active; 'I' for Inactive)
REMARK    1  A    between atoms: C_2  and  O_3 
REMARK    2  A    between atoms: O_3  and  C_4 
REMARK    3  A    between atoms: C_4  and  C_5 
REMARK    4  A    between atoms: C_5  and  C_6 
REMARK    5  A    between atoms: C_5  and  C_13 
REMARK    6  A    between atoms: C_5  and  O_20 
ROOT
HETATM    1  C   LIG     1      14.599  32.630  16.564  1.00  0.00     0.201 C 
ENDROOT
BRANCH   1   2
HETATM    2  C   LIG     1      14.254  31.151  16.648  1.00  0.00     0.303 C 
HETATM    3  O   LIG     1      13.426  30.732  17.507  1.00  0.00    -0.261 OA
BRANCH   2   4
HETATM    4  O   LIG     1      14.784  30.270  15.694  1.00  0.00    -0.314 OA
BRANCH   4   5
HETATM    5  C   LIG     1      13.999  29.314  14.985  1.00  0.00     0.123 C 
HETATM    6  C   LIG     1      12.760  30.010  14.425  1.00  0.00     0.040 C 
HETATM    7  C   LIG     1      14.822  28.690  13.854  1.00  0.00     0.040 C 
ENDBRANCH   4   5
ENDBRANCH   2   4
ENDBRANCH   1   2
BRANCH   1   8
HETATM    8  C   LIG     1      15.067  33.159  17.924  1.00  0.00    -0.009 A 
HETATM    9  C   LIG     1      15.190  34.550  18.139  1.00  0.00     0.012 A 
HETATM   10  C   LIG     1      15.602  35.048  19.380  1.00  0.00     0.020 A 
HETATM   11  C   LIG     1      15.890  34.169  20.428  1.00  0.00     0.011 A 
HETATM   12  C   LIG     1      15.770  32.791  20.235  1.00  0.00     0.020 A 
HETATM   13 BR   LIG     1      16.441  34.856  22.124  1.00  0.00    -0.051 Br
HETATM   14  C   LIG     1      15.360  32.287  18.996  1.00  0.00     0.012 A 
ENDBRANCH   1   8
BRANCH   1  15
HETATM   15  C   LIG     1      15.710  32.911  15.541  1.00  0.00    -0.009 A 
HETATM   16  C   LIG     1      15.720  32.209  14.315  1.00  0.00     0.012 A 
HETATM   17  C   LIG     1      16.697  32.470  13.347  1.00  0.00     0.020 A 
HETATM   18  C   LIG     1      17.672  33.444  13.582  1.00  0.00     0.011 A 
HETATM   19  C   LIG     1      17.657  34.173  14.776  1.00  0.00     0.020 A 
HETATM   20 BR   LIG     1      19.007  33.795  12.259  1.00  0.00    -0.051 Br
HETATM   21  C   LIG     1      16.677  33.923  15.742  1.00  0.00     0.012 A 
ENDBRANCH   1  15
BRANCH   1  22
HETATM   22  O   LIG     1      13.421  33.303  16.170  1.00  0.00    -0.371 OA
HETATM   23  H   LIG     1      13.126  33.881  16.923  1.00  0.00     0.212 HD
ENDBRANCH   1  22
TORSDOF 6
ENDMDL
MODEL 14
REMARK VINA RESULT:      -5.0     15.370     17.092
REMARK  6 active torsions:
REMARK  status: ('A' for Active; 'I' for Inactive)
REMARK    1  A    between atoms: C_2  and  O_3 
REMARK    2  A    between atoms: O_3  and  C_4 
REMARK    3  A    between atoms: C_4  and  C_5 
REMARK    4  A    between atoms: C_5  and  C_6 
REMARK    5  A    between atoms: C_5  and  C_13 
REMARK    6  A    between atoms: C_5  and  O_20 
ROOT
HETATM    1  C   LIG     1      25.135  21.214  19.366  1.00  0.00     0.201 C 
ENDROOT
BRANCH   1   2
HETATM    2  C   LIG     1      23.973  21.096  18.392  1.00  0.00     0.303 C 
HETATM    3  O   LIG     1      23.104  22.012  18.313  1.00  0.00    -0.261 OA
BRANCH   2   4
HETATM    4  O   LIG     1      23.931  20.010  17.506  1.00  0.00    -0.314 OA
BRANCH   4   5
HETATM    5  C   LIG     1      22.977  18.954  17.600  1.00  0.00     0.123 C 
HETATM    6  C   LIG     1      22.622  18.740  19.070  1.00  0.00     0.040 C 
HETATM    7  C   LIG     1      21.724  19.303  16.792  1.00  0.00     0.040 C 
ENDBRANCH   4   5
ENDBRANCH   2   4
ENDBRANCH   1   2
BRANCH   1   8
HETATM    8  C   LIG     1      25.834  22.570  19.219  1.00  0.00    -0.009 A 
HETATM    9  C   LIG     1      26.766  22.778  18.178  1.00  0.00     0.012 A 
HETATM   10  C   LIG     1      27.400  24.015  18.024  1.00  0.00     0.020 A 
HETATM   11  C   LIG     1      27.112  25.067  18.899  1.00  0.00     0.011 A 
HETATM   12  C   LIG     1      26.189  24.881  19.931  1.00  0.00     0.020 A 
HETATM   13 BR   LIG     1      27.974  26.758  18.675  1.00  0.00    -0.051 Br
HETATM   14  C   LIG     1      25.553  23.645  20.092  1.00  0.00     0.012 A 
ENDBRANCH   1   8
BRANCH   1  15
HETATM   15  C   LIG     1      24.686  21.070  20.828  1.00  0.00    -0.009 A 
HETATM   16  C   LIG     1      23.357  21.393  21.183  1.00  0.00     0.012 A 
HETATM   17  C   LIG     1      22.908  21.235  22.498  1.00  0.00     0.020 A 
HETATM   18  C   LIG     1      23.773  20.741  23.479  1.00  0.00     0.011 A 
HETATM   19  C   LIG     1      25.083  20.383  23.138  1.00  0.00     0.020 A 
HETATM   20 BR   LIG     1      23.158  20.531  25.276  1.00  0.00    -0.051 Br
HETATM   21  C   LIG     1      25.534  20.529  21.822  1.00  0.00     0.012 A 
ENDBRANCH   1  15
BRANCH   1  22
HETATM   22  O   LIG     1      26.040  20.176  19.051  1.00  0.00    -0.371 OA
HETATM   23  H   LIG     1      25.636  19.617  18.334  1.00  0.00     0.212 HD
ENDBRANCH   1  22
TORSDOF 6
ENDMDL
MODEL 15
REMARK VINA RESULT:      -5.0     15.728     18.125
REMARK  6 active torsions:
REMARK  status: ('A' for Active; 'I' for Inactive)
REMARK    1  A    between atoms: C_2  and  O_3 
REMARK    2  A    between atoms: O_3  and  C_4 
REMARK    3  A    between atoms: C_4  and  C_5 
REMARK    4  A    between atoms: C_5  and  C_6 
REMARK    5  A    between atoms: C_5  and  C_13 
REMARK    6  A    between atoms: C_5  and  O_20 
ROOT
HETATM    1  C   LIG     1      27.030  24.549  27.407  1.00  0.00     0.201 C 
ENDROOT
BRANCH   1   2
HETATM    2  C   LIG     1      27.813  24.149  26.166  1.00  0.00     0.303 C 
HETATM    3  O   LIG     1      28.641  23.194  26.209  1.00  0.00    -0.261 OA
BRANCH   2   4
HETATM    4  O   LIG     1      27.531  24.781  24.946  1.00  0.00    -0.314 OA
BRANCH   4   5
HETATM    5  C   LIG     1      28.526  25.093  23.973  1.00  0.00     0.123 C 
HETATM    6  C   LIG     1      28.061  24.581  22.611  1.00  0.00     0.040 C 
HETATM    7  C   LIG     1      28.761  26.605  23.925  1.00  0.00     0.040 C 
ENDBRANCH   4   5
ENDBRANCH   2   4
ENDBRANCH   1   2
BRANCH   1   8
HETATM    8  C   LIG     1      26.949  23.385  28.400  1.00  0.00    -0.009 A 
HETATM    9  C   LIG     1      25.977  22.374  28.229  1.00  0.00     0.012 A 
HETATM   10  C   LIG     1      25.901  21.298  29.119  1.00  0.00     0.020 A 
HETATM   11  C   LIG     1      26.796  21.207  30.190  1.00  0.00     0.011 A 
HETATM   12  C   LIG     1      27.766  22.195  30.372  1.00  0.00     0.020 A 
HETATM   13 BR   LIG     1      26.694  19.728  31.396  1.00  0.00    -0.051 Br
HETATM   14  C   LIG     1      27.846  23.275  29.486  1.00  0.00     0.012 A 
ENDBRANCH   1   8
BRANCH   1  15
HETATM   15  C   LIG     1      27.662  25.746  28.133  1.00  0.00    -0.009 A 
HETATM   16  C   LIG     1      28.929  26.218  27.724  1.00  0.00     0.012 A 
HETATM   17  C   LIG     1      29.513  27.330  28.340  1.00  0.00     0.020 A 
HETATM   18  C   LIG     1      28.838  27.997  29.367  1.00  0.00     0.011 A 
HETATM   19  C   LIG     1      27.567  27.564  29.762  1.00  0.00     0.020 A 
HETATM   20 BR   LIG     1      29.642  29.513  30.210  1.00  0.00    -0.051 Br
HETATM   21  C   LIG     1      26.974  26.460  29.142  1.00  0.00     0.012 A 
ENDBRANCH   1  15
BRANCH   1  22
HETATM   22  O   LIG     1      25.731  24.898  26.975  1.00  0.00    -0.371 OA
HETATM   23  H   LIG     1      25.110  24.165  27.230  1.00  0.00     0.212 HD
ENDBRANCH   1  22
TORSDOF 6
ENDMDL
MODEL 16
REMARK VINA RESULT:      -4.9     15.233     16.585
REMARK  6 active torsions:
REMARK  status: ('A' for Active; 'I' for Inactive)
REMARK    1  A    between atoms: C_2  and  O_3 
REMARK    2  A    between atoms: O_3  and  C_4 
REMARK    3  A    between atoms: C_4  and  C_5 
REMARK    4  A    between atoms: C_5  and  C_6 
REMARK    5  A    between atoms: C_5  and  C_13 
REMARK    6  A    between atoms: C_5  and  O_20 
ROOT
HETATM    1  C   LIG     1      27.971  23.320  21.907  1.00  0.00     0.201 C 
ENDROOT
BRANCH   1   2
HETATM    2  C   LIG     1      28.543  24.631  21.388  1.00  0.00     0.303 C 
HETATM    3  O   LIG     1      29.783  24.867  21.467  1.00  0.00    -0.261 OA
BRANCH   2   4
HETATM    4  O   LIG     1      27.696  25.531  20.725  1.00  0.00    -0.314 OA
BRANCH   4   5
HETATM    5  C   LIG     1      27.625  25.642  19.305  1.00  0.00     0.123 C 
HETATM    6  C   LIG     1      26.159  25.600  18.879  1.00  0.00     0.040 C 
HETATM    7  C   LIG     1      28.279  26.949  18.846  1.00  0.00     0.040 C 
ENDBRANCH   4   5
ENDBRANCH   2   4
ENDBRANCH   1   2
BRANCH   1   8
HETATM    8  C   LIG     1      27.561  23.448  23.378  1.00  0.00    -0.009 A 
HETATM    9  C   LIG     1      27.209  22.298  24.118  1.00  0.00     0.012 A 
HETATM   10  C   LIG     1      26.846  22.398  25.465  1.00  0.00     0.020 A 
HETATM   11  C   LIG     1      26.836  23.645  26.099  1.00  0.00     0.011 A 
HETATM   12  C   LIG     1      27.185  24.792  25.384  1.00  0.00     0.020 A 
HETATM   13 BR   LIG     1      26.350  23.773  27.943  1.00  0.00    -0.051 Br
HETATM   14  C   LIG     1      27.547  24.699  24.035  1.00  0.00     0.012 A 
ENDBRANCH   1   8
BRANCH   1  15
HETATM   15  C   LIG     1      26.738  22.868  21.111  1.00  0.00    -0.009 A 
HETATM   16  C   LIG     1      26.908  22.066  19.960  1.00  0.00     0.012 A 
HETATM   17  C   LIG     1      25.803  21.607  19.236  1.00  0.00     0.020 A 
HETATM   18  C   LIG     1      24.508  21.930  19.654  1.00  0.00     0.011 A 
HETATM   19  C   LIG     1      24.320  22.695  20.811  1.00  0.00     0.020 A 
HETATM   20 BR   LIG     1      23.000  21.305  18.660  1.00  0.00    -0.051 Br
HETATM   21  C   LIG     1      25.421  23.148  21.544  1.00  0.00     0.012 A 
ENDBRANCH   1  15
BRANCH   1  22
HETATM   22  O   LIG     1      28.990  22.350  21.780  1.00  0.00    -0.371 OA
HETATM   23  H   LIG     1      29.561  22.389  22.593  1.00  0.00     0.212 HD
ENDBRANCH   1  22
TORSDOF 6
ENDMDL
MODEL 17
REMARK VINA RESULT:      -4.8      5.422      8.301
REMARK  6 active torsions:
REMARK  status: ('A' for Active; 'I' for Inactive)
REMARK    1  A    between atoms: C_2  and  O_3 
REMARK    2  A    between atoms: O_3  and  C_4 
REMARK    3  A    between atoms: C_4  and  C_5 
REMARK    4  A    between atoms: C_5  and  C_6 
REMARK    5  A    between atoms: C_5  and  C_13 
REMARK    6  A    between atoms: C_5  and  O_20 
ROOT
HETATM    1  C   LIG     1      16.399  32.429  15.684  1.00  0.00     0.201 C 
ENDROOT
BRANCH   1   2
HETATM    2  C   LIG     1      16.523  33.620  14.746  1.00  0.00     0.303 C 
HETATM    3  O   LIG     1      16.711  34.784  15.205  1.00  0.00    -0.261 OA
BRANCH   2   4
HETATM    4  O   LIG     1      16.532  33.400  13.361  1.00  0.00    -0.314 OA
BRANCH   4   5
HETATM    5  C   LIG     1      17.649  33.698  12.525  1.00  0.00     0.123 C 
HETATM    6  C   LIG     1      17.435  35.068  11.885  1.00  0.00     0.040 C 
HETATM    7  C   LIG     1      18.940  33.686  13.348  1.00  0.00     0.040 C 
ENDBRANCH   4   5
ENDBRANCH   2   4
ENDBRANCH   1   2
BRANCH   1   8
HETATM    8  C   LIG     1      15.962  32.880  17.082  1.00  0.00    -0.009 A 
HETATM    9  C   LIG     1      15.853  31.937  18.128  1.00  0.00     0.012 A 
HETATM   10  C   LIG     1      15.469  32.336  19.413  1.00  0.00     0.020 A 
HETATM   11  C   LIG     1      15.194  33.682  19.678  1.00  0.00     0.011 A 
HETATM   12  C   LIG     1      15.302  34.628  18.657  1.00  0.00     0.020 A 
HETATM   13 BR   LIG     1      14.682  34.222  21.438  1.00  0.00    -0.051 Br
HETATM   14  C   LIG     1      15.683  34.235  17.369  1.00  0.00     0.012 A 
ENDBRANCH   1   8
BRANCH   1  15
HETATM   15  C   LIG     1      15.381  31.396  15.181  1.00  0.00    -0.009 A 
HETATM   16  C   LIG     1      15.784  30.422  14.240  1.00  0.00     0.012 A 
HETATM   17  C   LIG     1      14.889  29.445  13.792  1.00  0.00     0.020 A 
HETATM   18  C   LIG     1      13.581  29.414  14.284  1.00  0.00     0.011 A 
HETATM   19  C   LIG     1      13.174  30.349  15.242  1.00  0.00     0.020 A 
HETATM   20 BR   LIG     1      12.360  28.079  13.666  1.00  0.00    -0.051 Br
HETATM   21  C   LIG     1      14.068  31.322  15.701  1.00  0.00     0.012 A 
ENDBRANCH   1  15
BRANCH   1  22
HETATM   22  O   LIG     1      17.676  31.830  15.755  1.00  0.00    -0.371 OA
HETATM   23  H   LIG     1      18.326  32.516  16.064  1.00  0.00     0.212 HD
ENDBRANCH   1  22
TORSDOF 6
ENDMDL
MODEL 18
REMARK VINA RESULT:      -4.7     15.742     17.424
REMARK  6 active torsions:
REMARK  status: ('A' for Active; 'I' for Inactive)
REMARK    1  A    between atoms: C_2  and  O_3 
REMARK    2  A    between atoms: O_3  and  C_4 
REMARK    3  A    between atoms: C_4  and  C_5 
REMARK    4  A    between atoms: C_5  and  C_6 
REMARK    5  A    between atoms: C_5  and  C_13 
REMARK    6  A    between atoms: C_5  and  O_20 
ROOT
HETATM    1  C   LIG     1      25.061  20.523  24.644  1.00  0.00     0.201 C 
ENDROOT
BRANCH   1   2
HETATM    2  C   LIG     1      26.108  21.544  25.063  1.00  0.00     0.303 C 
HETATM    3  O   LIG     1      26.990  21.247  25.920  1.00  0.00    -0.261 OA
BRANCH   2   4
HETATM    4  O   LIG     1      26.150  22.786  24.412  1.00  0.00    -0.314 OA
BRANCH   4   5
HETATM    5  C   LIG     1      27.315  23.294  23.763  1.00  0.00     0.123 C 
HETATM    6  C   LIG     1      27.024  23.440  22.271  1.00  0.00     0.040 C 
HETATM    7  C   LIG     1      27.707  24.645  24.368  1.00  0.00     0.040 C 
ENDBRANCH   4   5
ENDBRANCH   2   4
ENDBRANCH   1   2
BRANCH   1   8
HETATM    8  C   LIG     1      23.852  20.565  25.584  1.00  0.00    -0.009 A 
HETATM    9  C   LIG     1      22.932  19.493  25.602  1.00  0.00     0.012 A 
HETATM   10  C   LIG     1      21.831  19.512  26.466  1.00  0.00     0.020 A 
HETATM   11  C   LIG     1      21.633  20.593  27.330  1.00  0.00     0.011 A 
HETATM   12  C   LIG     1      22.536  21.659  27.329  1.00  0.00     0.020 A 
HETATM   13 BR   LIG     1      20.134  20.606  28.515  1.00  0.00    -0.051 Br
HETATM   14  C   LIG     1      23.638  21.648  26.466  1.00  0.00     0.012 A 
ENDBRANCH   1   8
BRANCH   1  15
HETATM   15  C   LIG     1      24.556  20.762  23.214  1.00  0.00    -0.009 A 
HETATM   16  C   LIG     1      23.482  21.653  22.994  1.00  0.00     0.012 A 
HETATM   17  C   LIG     1      23.025  21.920  21.700  1.00  0.00     0.020 A 
HETATM   18  C   LIG     1      23.639  21.312  20.601  1.00  0.00     0.011 A 
HETATM   19  C   LIG     1      24.726  20.453  20.797  1.00  0.00     0.020 A 
HETATM   20 BR   LIG     1      23.009  21.676  18.833  1.00  0.00    -0.051 Br
HETATM   21  C   LIG     1      25.194  20.190  22.088  1.00  0.00     0.012 A 
ENDBRANCH   1  15
BRANCH   1  22
HETATM   22  O   LIG     1      25.677  19.254  24.716  1.00  0.00    -0.371 OA
HETATM   23  H   LIG     1      26.027  19.128  25.638  1.00  0.00     0.212 HD
ENDBRANCH   1  22
TORSDOF 6
ENDMDL
MODEL 19
REMARK VINA RESULT:      -4.7      2.519      5.702
REMARK  6 active torsions:
REMARK  status: ('A' for Active; 'I' for Inactive)
REMARK    1  A    between atoms: C_2  and  O_3 
REMARK    2  A    between atoms: O_3  and  C_4 
REMARK    3  A    between atoms: C_4  and  C_5 
REMARK    4  A    between atoms: C_5  and  C_6 
REMARK    5  A    between atoms: C_5  and  C_13 
REMARK    6  A    between atoms: C_5  and  O_20 
ROOT
HETATM    1  C   LIG     1      16.653  36.709  21.448  1.00  0.00     0.201 C 
ENDROOT
BRANCH   1   2
HETATM    2  C   LIG     1      17.815  37.244  20.624  1.00  0.00     0.303 C 
HETATM    3  O   LIG     1      18.682  36.456  20.147  1.00  0.00    -0.261 OA
BRANCH   2   4
HETATM    4  O   LIG     1      17.857  38.610  20.308  1.00  0.00    -0.314 OA
BRANCH   4   5
HETATM    5  C   LIG     1      18.991  39.439  20.554  1.00  0.00     0.123 C 
HETATM    6  C   LIG     1      19.402  39.293  22.017  1.00  0.00     0.040 C 
HETATM    7  C   LIG     1      20.146  39.038  19.631  1.00  0.00     0.040 C 
ENDBRANCH   4   5
ENDBRANCH   2   4
ENDBRANCH   1   2
BRANCH   1   8
HETATM    8  C   LIG     1      16.096  35.421  20.832  1.00  0.00    -0.009 A 
HETATM    9  C   LIG     1      15.412  34.487  21.642  1.00  0.00     0.012 A 
HETATM   10  C   LIG     1      14.886  33.314  21.091  1.00  0.00     0.020 A 
HETATM   11  C   LIG     1      15.024  33.056  19.724  1.00  0.00     0.011 A 
HETATM   12  C   LIG     1      15.693  33.971  18.907  1.00  0.00     0.020 A 
HETATM   13 BR   LIG     1      14.292  31.457  18.976  1.00  0.00    -0.051 Br
HETATM   14  C   LIG     1      16.224  35.145  19.452  1.00  0.00     0.012 A 
ENDBRANCH   1   8
BRANCH   1  15
HETATM   15  C   LIG     1      17.061  36.403  22.897  1.00  0.00    -0.009 A 
HETATM   16  C   LIG     1      17.208  37.464  23.818  1.00  0.00     0.012 A 
HETATM   17  C   LIG     1      17.541  37.213  25.153  1.00  0.00     0.020 A 
HETATM   18  C   LIG     1      17.720  35.899  25.595  1.00  0.00     0.011 A 
HETATM   19  C   LIG     1      17.545  34.833  24.705  1.00  0.00     0.020 A 
HETATM   20 BR   LIG     1      18.179  35.560  27.420  1.00  0.00    -0.051 Br
HETATM   21  C   LIG     1      17.202  35.078  23.371  1.00  0.00     0.012 A 
ENDBRANCH   1  15
BRANCH   1  22
HETATM   22  O   LIG     1      15.656  37.709  21.445  1.00  0.00    -0.371 OA
HETATM   23  H   LIG     1      15.266  37.758  20.532  1.00  0.00     0.212 HD
ENDBRANCH   1  22
TORSDOF 6
ENDMDL
MODEL 20
REMARK VINA RESULT:      -4.7     15.772     17.459
REMARK  6 active torsions:
REMARK  status: ('A' for Active; 'I' for Inactive)
REMARK    1  A    between atoms: C_2  and  O_3 
REMARK    2  A    between atoms: O_3  and  C_4 
REMARK    3  A    between atoms: C_4  and  C_5 
REMARK    4  A    between atoms: C_5  and  C_6 
REMARK    5  A    between atoms: C_5  and  C_13 
REMARK    6  A    between atoms: C_5  and  O_20 
ROOT
HETATM    1  C   LIG     1      24.273  20.320  24.905  1.00  0.00     0.201 C 
ENDROOT
BRANCH   1   2
HETATM    2  C   LIG     1      22.904  19.901  25.420  1.00  0.00     0.303 C 
HETATM    3  O   LIG     1      22.392  18.801  25.063  1.00  0.00    -0.261 OA
BRANCH   2   4
HETATM    4  O   LIG     1      22.262  20.698  26.378  1.00  0.00    -0.314 OA
BRANCH   4   5
HETATM    5  C   LIG     1      21.513  20.167  27.469  1.00  0.00     0.123 C 
HETATM    6  C   LIG     1      22.482  19.706  28.556  1.00  0.00     0.040 C 
HETATM    7  C   LIG     1      20.557  21.229  28.020  1.00  0.00     0.040 C 
ENDBRANCH   4   5
ENDBRANCH   2   4
ENDBRANCH   1   2
BRANCH   1   8
HETATM    8  C   LIG     1      24.196  20.741  23.434  1.00  0.00    -0.009 A 
HETATM    9  C   LIG     1      25.328  20.608  22.599  1.00  0.00     0.012 A 
HETATM   10  C   LIG     1      25.268  20.976  21.250  1.00  0.00     0.020 A 
HETATM   11  C   LIG     1      24.078  21.475  20.710  1.00  0.00     0.011 A 
HETATM   12  C   LIG     1      22.948  21.609  21.520  1.00  0.00     0.020 A 
HETATM   13 BR   LIG     1      24.000  21.964  18.864  1.00  0.00    -0.051 Br
HETATM   14  C   LIG     1      23.003  21.245  22.870  1.00  0.00     0.012 A 
ENDBRANCH   1   8
BRANCH   1  15
HETATM   15  C   LIG     1      24.861  21.493  25.703  1.00  0.00    -0.009 A 
HETATM   16  C   LIG     1      25.464  21.249  26.957  1.00  0.00     0.012 A 
HETATM   17  C   LIG     1      26.041  22.292  27.689  1.00  0.00     0.020 A 
HETATM   18  C   LIG     1      26.038  23.593  27.178  1.00  0.00     0.011 A 
HETATM   19  C   LIG     1      25.475  23.847  25.921  1.00  0.00     0.020 A 
HETATM   20 BR   LIG     1      26.824  25.016  28.183  1.00  0.00    -0.051 Br
HETATM   21  C   LIG     1      24.906  22.807  25.181  1.00  0.00     0.012 A 
ENDBRANCH   1  15
BRANCH   1  22
HETATM   22  O   LIG     1      25.120  19.197  25.035  1.00  0.00    -0.371 OA
HETATM   23  H   LIG     1      25.368  18.886  24.123  1.00  0.00     0.212 HD
ENDBRANCH   1  22
TORSDOF 6
ENDMDL
