REMARK  1 active torsions:
REMARK  status: ('A' for Active; 'I' for Inactive)
REMARK    1  A    between atoms: C_11  and  C_12 
ROOT
HETATM    1 CL   LIG     1       0.563  -2.652   0.598  1.00  0.00    -0.081 Cl
HETATM    2  C   LIG     1       1.423  -1.176   0.141  1.00  0.00     0.070 A 
HETATM    3  C   LIG     1       2.828  -1.172   0.099  1.00  0.00     0.080 A 
HETATM    4 CL   LIG     1       3.726  -2.646   0.475  1.00  0.00    -0.081 Cl
HETATM    5  C   LIG     1       3.519   0.004  -0.238  1.00  0.00     0.081 A 
HETATM    6 CL   LIG     1       5.284   0.006  -0.289  1.00  0.00    -0.081 Cl
HETATM    7  C   LIG     1       2.807   1.178  -0.534  1.00  0.00     0.080 A 
HETATM    8 CL   LIG     1       3.679   2.654  -0.961  1.00  0.00    -0.081 Cl
HETATM    9  C   LIG     1       1.402   1.179  -0.495  1.00  0.00     0.070 A 
HETATM   10 CL   LIG     1       0.514   2.653  -0.900  1.00  0.00    -0.081 Cl
HETATM   11  C   LIG     1       0.705   0.001  -0.156  1.00  0.00     0.021 A 
ENDROOT
BRANCH  11  12
HETATM   12  C   LIG     1      -0.773  -0.001  -0.114  1.00  0.00    -0.022 A 
HETATM   13  C   LIG     1      -1.450   0.652   0.928  1.00  0.00     0.012 A 
HETATM   14  C   LIG     1      -2.848   0.649   0.967  1.00  0.00     0.001 A 
HETATM   15  C   LIG     1      -3.575  -0.004  -0.033  1.00  0.00     0.000 A 
HETATM   16  C   LIG     1      -2.906  -0.656  -1.073  1.00  0.00     0.001 A 
HETATM   17  C   LIG     1      -1.508  -0.655  -1.115  1.00  0.00     0.012 A 
ENDBRANCH  11  12
TORSDOF 1
