MODEL 1
REMARK VINA RESULT:      -4.6      0.000      0.000
REMARK  1 active torsions:
REMARK  status: ('A' for Active; 'I' for Inactive)
REMARK    1  A    between atoms: C_11  and  C_12 
ROOT
HETATM    1 CL   LIG     1      28.243  30.984  33.525  1.00  0.00    -0.081 Cl
HETATM    2  C   LIG     1      27.913  29.383  34.198  1.00  0.00     0.070 A 
HETATM    3  C   LIG     1      27.933  28.255  33.359  1.00  0.00     0.080 A 
HETATM    4 CL   LIG     1      28.316  28.438  31.645  1.00  0.00    -0.081 Cl
HETATM    5  C   LIG     1      27.646  26.983  33.882  1.00  0.00     0.081 A 
HETATM    6 CL   LIG     1      27.672  25.569  32.825  1.00  0.00    -0.081 Cl
HETATM    7  C   LIG     1      27.338  26.835  35.244  1.00  0.00     0.080 A 
HETATM    8 CL   LIG     1      26.981  25.234  35.899  1.00  0.00    -0.081 Cl
HETATM    9  C   LIG     1      27.317  27.959  36.088  1.00  0.00     0.070 A 
HETATM   10 CL   LIG     1      26.960  27.759  37.808  1.00  0.00    -0.081 Cl
HETATM   11  C   LIG     1      27.604  29.238  35.567  1.00  0.00     0.021 A 
ENDROOT
BRANCH  11  12
HETATM   12  C   LIG     1      27.583  30.422  36.452  1.00  0.00    -0.022 A 
HETATM   13  C   LIG     1      26.366  31.047  36.765  1.00  0.00     0.012 A 
HETATM   14  C   LIG     1      26.347  32.168  37.602  1.00  0.00     0.001 A 
HETATM   15  C   LIG     1      27.541  32.668  38.129  1.00  0.00     0.000 A 
HETATM   16  C   LIG     1      28.757  32.049  37.821  1.00  0.00     0.001 A 
HETATM   17  C   LIG     1      28.779  30.928  36.984  1.00  0.00     0.012 A 
ENDBRANCH  11  12
TORSDOF 1
ENDMDL
MODEL 2
REMARK VINA RESULT:      -4.5      1.407      1.869
REMARK  1 active torsions:
REMARK  status: ('A' for Active; 'I' for Inactive)
REMARK    1  A    between atoms: C_11  and  C_12 
ROOT
HETATM    1 CL   LIG     1      28.827  31.735  32.892  1.00  0.00    -0.081 Cl
HETATM    2  C   LIG     1      28.671  29.980  33.046  1.00  0.00     0.070 A 
HETATM    3  C   LIG     1      29.108  29.147  32.001  1.00  0.00     0.080 A 
HETATM    4 CL   LIG     1      29.836  29.853  30.555  1.00  0.00    -0.081 Cl
HETATM    5  C   LIG     1      28.964  27.753  32.105  1.00  0.00     0.081 A 
HETATM    6 CL   LIG     1      29.513  26.709  30.791  1.00  0.00    -0.081 Cl
HETATM    7  C   LIG     1      28.382  27.190  33.253  1.00  0.00     0.080 A 
HETATM    8 CL   LIG     1      28.205  25.437  33.381  1.00  0.00    -0.081 Cl
HETATM    9  C   LIG     1      27.944  28.018  34.300  1.00  0.00     0.070 A 
HETATM   10 CL   LIG     1      27.242  27.298  35.754  1.00  0.00    -0.081 Cl
HETATM   11  C   LIG     1      28.087  29.418  34.199  1.00  0.00     0.021 A 
ENDROOT
BRANCH  11  12
HETATM   12  C   LIG     1      27.627  30.292  35.300  1.00  0.00    -0.022 A 
HETATM   13  C   LIG     1      26.277  30.665  35.387  1.00  0.00     0.012 A 
HETATM   14  C   LIG     1      25.843  31.493  36.428  1.00  0.00     0.001 A 
HETATM   15  C   LIG     1      26.755  31.949  37.385  1.00  0.00     0.000 A 
HETATM   16  C   LIG     1      28.101  31.581  37.303  1.00  0.00     0.001 A 
HETATM   17  C   LIG     1      28.537  30.754  36.263  1.00  0.00     0.012 A 
ENDBRANCH  11  12
TORSDOF 1
ENDMDL
MODEL 3
REMARK VINA RESULT:      -4.5      1.415      3.636
REMARK  1 active torsions:
REMARK  status: ('A' for Active; 'I' for Inactive)
REMARK    1  A    between atoms: C_11  and  C_12 
ROOT
HETATM    1 CL   LIG     1      26.943  27.202  35.405  1.00  0.00    -0.081 Cl
HETATM    2  C   LIG     1      27.701  27.980  34.009  1.00  0.00     0.070 A 
HETATM    3  C   LIG     1      28.094  27.203  32.906  1.00  0.00     0.080 A 
HETATM    4 CL   LIG     1      27.805  25.460  32.906  1.00  0.00    -0.081 Cl
HETATM    5  C   LIG     1      28.720  27.810  31.805  1.00  0.00     0.081 A 
HETATM    6 CL   LIG     1      29.215  26.831  30.421  1.00  0.00    -0.081 Cl
HETATM    7  C   LIG     1      28.954  29.195  31.804  1.00  0.00     0.080 A 
HETATM    8 CL   LIG     1      29.739  29.956  30.416  1.00  0.00    -0.081 Cl
HETATM    9  C   LIG     1      28.561  29.977  32.904  1.00  0.00     0.070 A 
HETATM   10 CL   LIG     1      28.831  31.724  32.880  1.00  0.00    -0.081 Cl
HETATM   11  C   LIG     1      27.933  29.371  34.012  1.00  0.00     0.021 A 
ENDROOT
BRANCH  11  12
HETATM   12  C   LIG     1      27.519  30.190  35.170  1.00  0.00    -0.022 A 
HETATM   13  C   LIG     1      28.444  30.506  36.178  1.00  0.00     0.012 A 
HETATM   14  C   LIG     1      28.051  31.281  37.274  1.00  0.00     0.001 A 
HETATM   15  C   LIG     1      26.735  31.744  37.368  1.00  0.00     0.000 A 
HETATM   16  C   LIG     1      25.810  31.433  36.367  1.00  0.00     0.001 A 
HETATM   17  C   LIG     1      26.199  30.658  35.270  1.00  0.00     0.012 A 
ENDBRANCH  11  12
TORSDOF 1
ENDMDL
MODEL 4
REMARK VINA RESULT:      -4.4     17.094     19.828
REMARK  1 active torsions:
REMARK  status: ('A' for Active; 'I' for Inactive)
REMARK    1  A    between atoms: C_11  and  C_12 
ROOT
HETATM    1 CL   LIG     1      26.482  21.780  19.041  1.00  0.00    -0.081 Cl
HETATM    2  C   LIG     1      25.549  20.691  18.006  1.00  0.00     0.070 A 
HETATM    3  C   LIG     1      26.110  20.219  16.806  1.00  0.00     0.080 A 
HETATM    4 CL   LIG     1      27.749  20.693  16.352  1.00  0.00    -0.081 Cl
HETATM    5  C   LIG     1      25.365  19.374  15.966  1.00  0.00     0.081 A 
HETATM    6 CL   LIG     1      26.071  18.784  14.459  1.00  0.00    -0.081 Cl
HETATM    7  C   LIG     1      24.060  18.998  16.324  1.00  0.00     0.080 A 
HETATM    8 CL   LIG     1      23.128  17.933  15.267  1.00  0.00    -0.081 Cl
HETATM    9  C   LIG     1      23.496  19.466  17.523  1.00  0.00     0.070 A 
HETATM   10 CL   LIG     1      21.864  18.962  17.980  1.00  0.00    -0.081 Cl
HETATM   11  C   LIG     1      24.239  20.315  18.369  1.00  0.00     0.021 A 
ENDROOT
BRANCH  11  12
HETATM   12  C   LIG     1      23.648  20.809  19.631  1.00  0.00    -0.022 A 
HETATM   13  C   LIG     1      23.744  20.042  20.802  1.00  0.00     0.012 A 
HETATM   14  C   LIG     1      23.184  20.509  21.996  1.00  0.00     0.001 A 
HETATM   15  C   LIG     1      22.528  21.744  22.025  1.00  0.00     0.000 A 
HETATM   16  C   LIG     1      22.430  22.512  20.861  1.00  0.00     0.001 A 
HETATM   17  C   LIG     1      22.988  22.047  19.666  1.00  0.00     0.012 A 
ENDBRANCH  11  12
TORSDOF 1
ENDMDL
MODEL 5
REMARK VINA RESULT:      -4.4     16.527     19.104
REMARK  1 active torsions:
REMARK  status: ('A' for Active; 'I' for Inactive)
REMARK    1  A    between atoms: C_11  and  C_12 
ROOT
HETATM    1 CL   LIG     1      28.076  21.706  17.028  1.00  0.00    -0.081 Cl
HETATM    2  C   LIG     1      26.455  21.068  17.334  1.00  0.00     0.070 A 
HETATM    3  C   LIG     1      26.030  19.900  16.678  1.00  0.00     0.080 A 
HETATM    4 CL   LIG     1      27.124  19.061  15.574  1.00  0.00    -0.081 Cl
HETATM    5  C   LIG     1      24.735  19.401  16.896  1.00  0.00     0.081 A 
HETATM    6 CL   LIG     1      24.204  17.934  16.070  1.00  0.00    -0.081 Cl
HETATM    7  C   LIG     1      23.863  20.068  17.772  1.00  0.00     0.080 A 
HETATM    8 CL   LIG     1      22.236  19.436  18.047  1.00  0.00    -0.081 Cl
HETATM    9  C   LIG     1      24.283  21.236  18.432  1.00  0.00     0.070 A 
HETATM   10 CL   LIG     1      23.189  22.051  19.555  1.00  0.00    -0.081 Cl
HETATM   11  C   LIG     1      25.582  21.740  18.214  1.00  0.00     0.021 A 
ENDROOT
BRANCH  11  12
HETATM   12  C   LIG     1      26.027  22.968  18.907  1.00  0.00    -0.022 A 
HETATM   13  C   LIG     1      26.631  22.885  20.171  1.00  0.00     0.012 A 
HETATM   14  C   LIG     1      27.051  24.048  20.826  1.00  0.00     0.001 A 
HETATM   15  C   LIG     1      26.871  25.296  20.221  1.00  0.00     0.000 A 
HETATM   16  C   LIG     1      26.271  25.384  18.962  1.00  0.00     0.001 A 
HETATM   17  C   LIG     1      25.849  24.224  18.305  1.00  0.00     0.012 A 
ENDBRANCH  11  12
TORSDOF 1
ENDMDL
MODEL 6
REMARK VINA RESULT:      -4.4     14.600     17.627
REMARK  1 active torsions:
REMARK  status: ('A' for Active; 'I' for Inactive)
REMARK    1  A    between atoms: C_11  and  C_12 
ROOT
HETATM    1 CL   LIG     1      25.906  21.042  22.056  1.00  0.00    -0.081 Cl
HETATM    2  C   LIG     1      26.426  22.568  21.329  1.00  0.00     0.070 A 
HETATM    3  C   LIG     1      27.288  23.421  22.040  1.00  0.00     0.080 A 
HETATM    4 CL   LIG     1      27.869  22.953  23.642  1.00  0.00    -0.081 Cl
HETATM    5  C   LIG     1      27.685  24.647  21.480  1.00  0.00     0.081 A 
HETATM    6 CL   LIG     1      28.768  25.716  22.376  1.00  0.00    -0.081 Cl
HETATM    7  C   LIG     1      27.222  25.022  20.208  1.00  0.00     0.080 A 
HETATM    8 CL   LIG     1      27.726  26.562  19.505  1.00  0.00    -0.081 Cl
HETATM    9  C   LIG     1      26.361  24.172  19.493  1.00  0.00     0.070 A 
HETATM   10 CL   LIG     1      25.809  24.639  17.880  1.00  0.00    -0.081 Cl
HETATM   11  C   LIG     1      25.959  22.941  20.052  1.00  0.00     0.021 A 
ENDROOT
BRANCH  11  12
HETATM   12  C   LIG     1      25.054  22.045  19.302  1.00  0.00    -0.022 A 
HETATM   13  C   LIG     1      23.665  22.126  19.491  1.00  0.00     0.012 A 
HETATM   14  C   LIG     1      22.810  21.278  18.781  1.00  0.00     0.001 A 
HETATM   15  C   LIG     1      23.336  20.347  17.880  1.00  0.00     0.000 A 
HETATM   16  C   LIG     1      24.718  20.262  17.688  1.00  0.00     0.001 A 
HETATM   17  C   LIG     1      25.576  21.109  18.396  1.00  0.00     0.012 A 
ENDBRANCH  11  12
TORSDOF 1
ENDMDL
MODEL 7
REMARK VINA RESULT:      -4.4     12.727     15.924
REMARK  1 active torsions:
REMARK  status: ('A' for Active; 'I' for Inactive)
REMARK    1  A    between atoms: C_11  and  C_12 
ROOT
HETATM    1 CL   LIG     1      26.136  23.419  21.929  1.00  0.00    -0.081 Cl
HETATM    2  C   LIG     1      25.188  22.571  23.158  1.00  0.00     0.070 A 
HETATM    3  C   LIG     1      25.418  22.832  24.520  1.00  0.00     0.080 A 
HETATM    4 CL   LIG     1      26.632  24.024  24.997  1.00  0.00    -0.081 Cl
HETATM    5  C   LIG     1      24.687  22.144  25.502  1.00  0.00     0.081 A 
HETATM    6 CL   LIG     1      24.980  22.473  27.212  1.00  0.00    -0.081 Cl
HETATM    7  C   LIG     1      23.724  21.193  25.126  1.00  0.00     0.080 A 
HETATM    8 CL   LIG     1      22.804  20.332  26.364  1.00  0.00    -0.081 Cl
HETATM    9  C   LIG     1      23.489  20.930  23.765  1.00  0.00     0.070 A 
HETATM   10 CL   LIG     1      22.252  19.755  23.300  1.00  0.00    -0.081 Cl
HETATM   11  C   LIG     1      24.221  21.618  22.776  1.00  0.00     0.021 A 
ENDROOT
BRANCH  11  12
HETATM   12  C   LIG     1      23.976  21.342  21.344  1.00  0.00    -0.022 A 
HETATM   13  C   LIG     1      24.692  20.329  20.688  1.00  0.00     0.012 A 
HETATM   14  C   LIG     1      24.459  20.070  19.334  1.00  0.00     0.001 A 
HETATM   15  C   LIG     1      23.512  20.820  18.630  1.00  0.00     0.000 A 
HETATM   16  C   LIG     1      22.796  21.830  19.279  1.00  0.00     0.001 A 
HETATM   17  C   LIG     1      23.026  22.092  20.633  1.00  0.00     0.012 A 
ENDBRANCH  11  12
TORSDOF 1
ENDMDL
MODEL 8
REMARK VINA RESULT:      -4.4     14.595     17.393
REMARK  1 active torsions:
REMARK  status: ('A' for Active; 'I' for Inactive)
REMARK    1  A    between atoms: C_11  and  C_12 
ROOT
HETATM    1 CL   LIG     1      25.808  24.629  17.880  1.00  0.00    -0.081 Cl
HETATM    2  C   LIG     1      26.355  24.165  19.496  1.00  0.00     0.070 A 
HETATM    3  C   LIG     1      27.214  25.017  20.213  1.00  0.00     0.080 A 
HETATM    4 CL   LIG     1      27.718  26.557  19.509  1.00  0.00    -0.081 Cl
HETATM    5  C   LIG     1      27.673  24.644  21.487  1.00  0.00     0.081 A 
HETATM    6 CL   LIG     1      28.752  25.715  22.384  1.00  0.00    -0.081 Cl
HETATM    7  C   LIG     1      27.276  23.418  22.047  1.00  0.00     0.080 A 
HETATM    8 CL   LIG     1      27.853  22.953  23.650  1.00  0.00    -0.081 Cl
HETATM    9  C   LIG     1      26.417  22.564  21.335  1.00  0.00     0.070 A 
HETATM   10 CL   LIG     1      25.897  21.038  22.061  1.00  0.00    -0.081 Cl
HETATM   11  C   LIG     1      25.954  22.935  20.055  1.00  0.00     0.021 A 
ENDROOT
BRANCH  11  12
HETATM   12  C   LIG     1      25.050  22.038  19.304  1.00  0.00    -0.022 A 
HETATM   13  C   LIG     1      23.663  22.099  19.510  1.00  0.00     0.012 A 
HETATM   14  C   LIG     1      22.810  21.250  18.799  1.00  0.00     0.001 A 
HETATM   15  C   LIG     1      23.336  20.337  17.880  1.00  0.00     0.000 A 
HETATM   16  C   LIG     1      24.716  20.272  17.670  1.00  0.00     0.001 A 
HETATM   17  C   LIG     1      25.573  21.120  18.380  1.00  0.00     0.012 A 
ENDBRANCH  11  12
TORSDOF 1
ENDMDL
MODEL 9
REMARK VINA RESULT:      -4.4     14.663     16.522
REMARK  1 active torsions:
REMARK  status: ('A' for Active; 'I' for Inactive)
REMARK    1  A    between atoms: C_11  and  C_12 
ROOT
HETATM    1 CL   LIG     1      25.009  23.225  17.990  1.00  0.00    -0.081 Cl
HETATM    2  C   LIG     1      25.121  22.985  19.738  1.00  0.00     0.070 A 
HETATM    3  C   LIG     1      24.150  22.213  20.400  1.00  0.00     0.080 A 
HETATM    4 CL   LIG     1      22.841  21.464  19.480  1.00  0.00    -0.081 Cl
HETATM    5  C   LIG     1      24.218  22.038  21.792  1.00  0.00     0.081 A 
HETATM    6 CL   LIG     1      22.997  21.069  22.620  1.00  0.00    -0.081 Cl
HETATM    7  C   LIG     1      25.256  22.635  22.526  1.00  0.00     0.080 A 
HETATM    8 CL   LIG     1      25.341  22.411  24.276  1.00  0.00    -0.081 Cl
HETATM    9  C   LIG     1      26.230  23.407  21.869  1.00  0.00     0.070 A 
HETATM   10 CL   LIG     1      27.551  24.128  22.797  1.00  0.00    -0.081 Cl
HETATM   11  C   LIG     1      26.165  23.585  20.472  1.00  0.00     0.021 A 
ENDROOT
BRANCH  11  12
HETATM   12  C   LIG     1      27.188  24.396  19.778  1.00  0.00    -0.022 A 
HETATM   13  C   LIG     1      26.981  25.770  19.575  1.00  0.00     0.012 A 
HETATM   14  C   LIG     1      27.949  26.536  18.919  1.00  0.00     0.001 A 
HETATM   15  C   LIG     1      29.127  25.936  18.463  1.00  0.00     0.000 A 
HETATM   16  C   LIG     1      29.338  24.569  18.663  1.00  0.00     0.001 A 
HETATM   17  C   LIG     1      28.372  23.799  19.319  1.00  0.00     0.012 A 
ENDBRANCH  11  12
TORSDOF 1
ENDMDL
MODEL 10
REMARK VINA RESULT:      -4.3     14.652     16.741
REMARK  1 active torsions:
REMARK  status: ('A' for Active; 'I' for Inactive)
REMARK    1  A    between atoms: C_11  and  C_12 
ROOT
HETATM    1 CL   LIG     1      27.700  24.209  22.634  1.00  0.00    -0.081 Cl
HETATM    2  C   LIG     1      26.349  23.454  21.777  1.00  0.00     0.070 A 
HETATM    3  C   LIG     1      25.412  22.687  22.490  1.00  0.00     0.080 A 
HETATM    4 CL   LIG     1      25.571  22.503  24.240  1.00  0.00    -0.081 Cl
HETATM    5  C   LIG     1      24.351  22.063  21.813  1.00  0.00     0.081 A 
HETATM    6 CL   LIG     1      23.176  21.099  22.711  1.00  0.00    -0.081 Cl
HETATM    7  C   LIG     1      24.225  22.206  20.421  1.00  0.00     0.080 A 
HETATM    8 CL   LIG     1      22.887  21.423  19.573  1.00  0.00    -0.081 Cl
HETATM    9  C   LIG     1      25.158  22.973  19.703  1.00  0.00     0.070 A 
HETATM   10 CL   LIG     1      24.972  23.173  17.957  1.00  0.00    -0.081 Cl
HETATM   11  C   LIG     1      26.225  23.600  20.380  1.00  0.00     0.021 A 
ENDROOT
BRANCH  11  12
HETATM   12  C   LIG     1      27.209  24.408  19.628  1.00  0.00    -0.022 A 
HETATM   13  C   LIG     1      28.337  23.796  19.059  1.00  0.00     0.012 A 
HETATM   14  C   LIG     1      29.267  24.561  18.349  1.00  0.00     0.001 A 
HETATM   15  C   LIG     1      29.074  25.938  18.201  1.00  0.00     0.000 A 
HETATM   16  C   LIG     1      27.952  26.553  18.765  1.00  0.00     0.001 A 
HETATM   17  C   LIG     1      27.020  25.790  19.477  1.00  0.00     0.012 A 
ENDBRANCH  11  12
TORSDOF 1
ENDMDL
MODEL 11
REMARK VINA RESULT:      -4.3     13.422     16.092
REMARK  1 active torsions:
REMARK  status: ('A' for Active; 'I' for Inactive)
REMARK    1  A    between atoms: C_11  and  C_12 
ROOT
HETATM    1 CL   LIG     1      27.989  24.082  22.687  1.00  0.00    -0.081 Cl
HETATM    2  C   LIG     1      26.445  23.221  22.647  1.00  0.00     0.070 A 
HETATM    3  C   LIG     1      25.904  22.704  23.837  1.00  0.00     0.080 A 
HETATM    4 CL   LIG     1      26.753  22.940  25.368  1.00  0.00    -0.081 Cl
HETATM    5  C   LIG     1      24.690  21.996  23.810  1.00  0.00     0.081 A 
HETATM    6 CL   LIG     1      24.014  21.347  25.306  1.00  0.00    -0.081 Cl
HETATM    7  C   LIG     1      24.015  21.804  22.594  1.00  0.00     0.080 A 
HETATM    8 CL   LIG     1      22.487  20.917  22.563  1.00  0.00    -0.081 Cl
HETATM    9  C   LIG     1      24.551  22.321  21.401  1.00  0.00     0.070 A 
HETATM   10 CL   LIG     1      23.677  22.102  19.880  1.00  0.00    -0.081 Cl
HETATM   11  C   LIG     1      25.769  23.031  21.424  1.00  0.00     0.021 A 
ENDROOT
BRANCH  11  12
HETATM   12  C   LIG     1      26.335  23.575  20.171  1.00  0.00    -0.022 A 
HETATM   13  C   LIG     1      26.059  24.897  19.788  1.00  0.00     0.012 A 
HETATM   14  C   LIG     1      26.594  25.410  18.603  1.00  0.00     0.001 A 
HETATM   15  C   LIG     1      27.407  24.608  17.796  1.00  0.00     0.000 A 
HETATM   16  C   LIG     1      27.686  23.291  18.173  1.00  0.00     0.001 A 
HETATM   17  C   LIG     1      27.152  22.774  19.358  1.00  0.00     0.012 A 
ENDBRANCH  11  12
TORSDOF 1
ENDMDL
MODEL 12
REMARK VINA RESULT:      -4.3     16.263     18.903
REMARK  1 active torsions:
REMARK  status: ('A' for Active; 'I' for Inactive)
REMARK    1  A    between atoms: C_11  and  C_12 
ROOT
HETATM    1 CL   LIG     1      23.567  22.319  19.889  1.00  0.00    -0.081 Cl
HETATM    2  C   LIG     1      24.598  21.501  18.708  1.00  0.00     0.070 A 
HETATM    3  C   LIG     1      24.151  20.320  18.091  1.00  0.00     0.080 A 
HETATM    4 CL   LIG     1      22.552  19.675  18.475  1.00  0.00    -0.081 Cl
HETATM    5  C   LIG     1      24.976  19.650  17.171  1.00  0.00     0.081 A 
HETATM    6 CL   LIG     1      24.411  18.167  16.398  1.00  0.00    -0.081 Cl
HETATM    7  C   LIG     1      26.249  20.160  16.867  1.00  0.00     0.080 A 
HETATM    8 CL   LIG     1      27.282  19.317  15.708  1.00  0.00    -0.081 Cl
HETATM    9  C   LIG     1      26.700  21.341  17.481  1.00  0.00     0.070 A 
HETATM   10 CL   LIG     1      28.291  21.991  17.067  1.00  0.00    -0.081 Cl
HETATM   11  C   LIG     1      25.876  22.015  18.405  1.00  0.00     0.021 A 
ENDROOT
BRANCH  11  12
HETATM   12  C   LIG     1      26.348  23.258  19.052  1.00  0.00    -0.022 A 
HETATM   13  C   LIG     1      26.104  24.503  18.451  1.00  0.00     0.012 A 
HETATM   14  C   LIG     1      26.552  25.678  19.064  1.00  0.00     0.001 A 
HETATM   15  C   LIG     1      27.243  25.615  20.278  1.00  0.00     0.000 A 
HETATM   16  C   LIG     1      27.489  24.378  20.880  1.00  0.00     0.001 A 
HETATM   17  C   LIG     1      27.043  23.201  20.270  1.00  0.00     0.012 A 
ENDBRANCH  11  12
TORSDOF 1
ENDMDL
MODEL 13
REMARK VINA RESULT:      -4.3     13.473     16.142
REMARK  1 active torsions:
REMARK  status: ('A' for Active; 'I' for Inactive)
REMARK    1  A    between atoms: C_11  and  C_12 
ROOT
HETATM    1 CL   LIG     1      23.705  22.165  19.789  1.00  0.00    -0.081 Cl
HETATM    2  C   LIG     1      24.573  22.370  21.316  1.00  0.00     0.070 A 
HETATM    3  C   LIG     1      24.025  21.856  22.504  1.00  0.00     0.080 A 
HETATM    4 CL   LIG     1      22.488  20.986  22.463  1.00  0.00    -0.081 Cl
HETATM    5  C   LIG     1      24.697  22.037  23.725  1.00  0.00     0.081 A 
HETATM    6 CL   LIG     1      24.005  21.392  25.216  1.00  0.00    -0.081 Cl
HETATM    7  C   LIG     1      25.917  22.731  23.760  1.00  0.00     0.080 A 
HETATM    8 CL   LIG     1      26.761  22.954  25.296  1.00  0.00    -0.081 Cl
HETATM    9  C   LIG     1      26.470  23.245  22.575  1.00  0.00     0.070 A 
HETATM   10 CL   LIG     1      28.022  24.090  22.625  1.00  0.00    -0.081 Cl
HETATM   11  C   LIG     1      25.799  23.067  21.348  1.00  0.00     0.021 A 
ENDROOT
BRANCH  11  12
HETATM   12  C   LIG     1      26.378  23.607  20.099  1.00  0.00    -0.022 A 
HETATM   13  C   LIG     1      26.133  24.938  19.726  1.00  0.00     0.012 A 
HETATM   14  C   LIG     1      26.681  25.447  18.544  1.00  0.00     0.001 A 
HETATM   15  C   LIG     1      27.475  24.631  17.732  1.00  0.00     0.000 A 
HETATM   16  C   LIG     1      27.722  23.305  18.099  1.00  0.00     0.001 A 
HETATM   17  C   LIG     1      27.175  22.793  19.280  1.00  0.00     0.012 A 
ENDBRANCH  11  12
TORSDOF 1
ENDMDL
MODEL 14
REMARK VINA RESULT:      -4.2     13.383     16.139
REMARK  1 active torsions:
REMARK  status: ('A' for Active; 'I' for Inactive)
REMARK    1  A    between atoms: C_11  and  C_12 
ROOT
HETATM    1 CL   LIG     1      22.369  22.607  21.583  1.00  0.00    -0.081 Cl
HETATM    2  C   LIG     1      23.819  21.727  21.083  1.00  0.00     0.070 A 
HETATM    3  C   LIG     1      24.011  21.412  19.726  1.00  0.00     0.080 A 
HETATM    4 CL   LIG     1      22.819  21.920  18.526  1.00  0.00    -0.081 Cl
HETATM    5  C   LIG     1      25.148  20.691  19.325  1.00  0.00     0.081 A 
HETATM    6 CL   LIG     1      25.385  20.296  17.620  1.00  0.00    -0.081 Cl
HETATM    7  C   LIG     1      26.095  20.283  20.278  1.00  0.00     0.080 A 
HETATM    8 CL   LIG     1      27.525  19.379  19.769  1.00  0.00    -0.081 Cl
HETATM    9  C   LIG     1      25.909  20.597  21.635  1.00  0.00     0.070 A 
HETATM   10 CL   LIG     1      27.123  20.107  22.824  1.00  0.00    -0.081 Cl
HETATM   11  C   LIG     1      24.769  21.319  22.043  1.00  0.00     0.021 A 
ENDROOT
BRANCH  11  12
HETATM   12  C   LIG     1      24.570  21.650  23.470  1.00  0.00    -0.022 A 
HETATM   13  C   LIG     1      23.838  20.787  24.299  1.00  0.00     0.012 A 
HETATM   14  C   LIG     1      23.650  21.101  25.649  1.00  0.00     0.001 A 
HETATM   15  C   LIG     1      24.193  22.277  26.176  1.00  0.00     0.000 A 
HETATM   16  C   LIG     1      24.923  23.141  25.355  1.00  0.00     0.001 A 
HETATM   17  C   LIG     1      25.113  22.829  24.004  1.00  0.00     0.012 A 
ENDBRANCH  11  12
TORSDOF 1
ENDMDL
MODEL 15
REMARK VINA RESULT:      -4.2     13.460     16.297
REMARK  1 active torsions:
REMARK  status: ('A' for Active; 'I' for Inactive)
REMARK    1  A    between atoms: C_11  and  C_12 
ROOT
HETATM    1 CL   LIG     1      26.977  19.912  22.813  1.00  0.00    -0.081 Cl
HETATM    2  C   LIG     1      25.796  20.461  21.616  1.00  0.00     0.070 A 
HETATM    3  C   LIG     1      25.972  20.131  20.261  1.00  0.00     0.080 A 
HETATM    4 CL   LIG     1      27.353  19.148  19.764  1.00  0.00    -0.081 Cl
HETATM    5  C   LIG     1      25.052  20.585  19.301  1.00  0.00     0.081 A 
HETATM    6 CL   LIG     1      25.276  20.170  17.599  1.00  0.00    -0.081 Cl
HETATM    7  C   LIG     1      23.955  21.370  19.693  1.00  0.00     0.080 A 
HETATM    8 CL   LIG     1      22.798  21.936  18.484  1.00  0.00    -0.081 Cl
HETATM    9  C   LIG     1      23.774  21.701  21.047  1.00  0.00     0.070 A 
HETATM   10 CL   LIG     1      22.373  22.662  21.536  1.00  0.00    -0.081 Cl
HETATM   11  C   LIG     1      24.696  21.248  22.014  1.00  0.00     0.021 A 
ENDROOT
BRANCH  11  12
HETATM   12  C   LIG     1      24.508  21.594  23.439  1.00  0.00    -0.022 A 
HETATM   13  C   LIG     1      25.088  22.760  23.963  1.00  0.00     0.012 A 
HETATM   14  C   LIG     1      24.910  23.087  25.311  1.00  0.00     0.001 A 
HETATM   15  C   LIG     1      24.153  22.253  26.140  1.00  0.00     0.000 A 
HETATM   16  C   LIG     1      23.574  21.091  25.623  1.00  0.00     0.001 A 
HETATM   17  C   LIG     1      23.749  20.761  24.275  1.00  0.00     0.012 A 
ENDBRANCH  11  12
TORSDOF 1
ENDMDL
MODEL 16
REMARK VINA RESULT:      -4.0     12.426     15.059
REMARK  1 active torsions:
REMARK  status: ('A' for Active; 'I' for Inactive)
REMARK    1  A    between atoms: C_11  and  C_12 
ROOT
HETATM    1 CL   LIG     1      27.736  23.646  23.246  1.00  0.00    -0.081 Cl
HETATM    2  C   LIG     1      26.399  23.180  22.187  1.00  0.00     0.070 A 
HETATM    3  C   LIG     1      26.445  23.508  20.821  1.00  0.00     0.080 A 
HETATM    4 CL   LIG     1      27.847  24.358  20.164  1.00  0.00    -0.081 Cl
HETATM    5  C   LIG     1      25.374  23.164  19.978  1.00  0.00     0.081 A 
HETATM    6 CL   LIG     1      25.435  23.579  18.262  1.00  0.00    -0.081 Cl
HETATM    7  C   LIG     1      24.257  22.492  20.499  1.00  0.00     0.080 A 
HETATM    8 CL   LIG     1      22.914  22.058  19.435  1.00  0.00    -0.081 Cl
HETATM    9  C   LIG     1      24.206  22.160  21.863  1.00  0.00     0.070 A 
HETATM   10 CL   LIG     1      22.810  21.286  22.503  1.00  0.00    -0.081 Cl
HETATM   11  C   LIG     1      25.278  22.504  22.713  1.00  0.00     0.021 A 
ENDROOT
BRANCH  11  12
HETATM   12  C   LIG     1      25.228  22.157  24.149  1.00  0.00    -0.022 A 
HETATM   13  C   LIG     1      24.711  23.073  25.079  1.00  0.00     0.012 A 
HETATM   14  C   LIG     1      24.665  22.743  26.437  1.00  0.00     0.001 A 
HETATM   15  C   LIG     1      25.133  21.499  26.872  1.00  0.00     0.000 A 
HETATM   16  C   LIG     1      25.649  20.584  25.951  1.00  0.00     0.001 A 
HETATM   17  C   LIG     1      25.696  20.910  24.592  1.00  0.00     0.012 A 
ENDBRANCH  11  12
TORSDOF 1
ENDMDL
MODEL 17
REMARK VINA RESULT:      -4.0     12.441     15.205
REMARK  1 active torsions:
REMARK  status: ('A' for Active; 'I' for Inactive)
REMARK    1  A    between atoms: C_11  and  C_12 
ROOT
HETATM    1 CL   LIG     1      22.809  21.300  22.529  1.00  0.00    -0.081 Cl
HETATM    2  C   LIG     1      24.212  22.144  21.861  1.00  0.00     0.070 A 
HETATM    3  C   LIG     1      24.248  22.464  20.493  1.00  0.00     0.080 A 
HETATM    4 CL   LIG     1      22.881  22.049  19.454  1.00  0.00    -0.081 Cl
HETATM    5  C   LIG     1      25.370  23.112  19.951  1.00  0.00     0.081 A 
HETATM    6 CL   LIG     1      25.412  23.512  18.231  1.00  0.00    -0.081 Cl
HETATM    7  C   LIG     1      26.460  23.440  20.774  1.00  0.00     0.080 A 
HETATM    8 CL   LIG     1      27.868  24.257  20.089  1.00  0.00    -0.081 Cl
HETATM    9  C   LIG     1      26.429  23.122  22.143  1.00  0.00     0.070 A 
HETATM   10 CL   LIG     1      27.791  23.568  23.178  1.00  0.00    -0.081 Cl
HETATM   11  C   LIG     1      25.304  22.472  22.691  1.00  0.00     0.021 A 
ENDROOT
BRANCH  11  12
HETATM   12  C   LIG     1      25.269  22.137  24.131  1.00  0.00    -0.022 A 
HETATM   13  C   LIG     1      25.715  20.882  24.574  1.00  0.00     0.012 A 
HETATM   14  C   LIG     1      25.681  20.566  25.936  1.00  0.00     0.001 A 
HETATM   15  C   LIG     1      25.202  21.500  26.860  1.00  0.00     0.000 A 
HETATM   16  C   LIG     1      24.757  22.751  26.424  1.00  0.00     0.001 A 
HETATM   17  C   LIG     1      24.790  23.070  25.063  1.00  0.00     0.012 A 
ENDBRANCH  11  12
TORSDOF 1
ENDMDL
MODEL 18
REMARK VINA RESULT:      -4.0      8.879     11.816
REMARK  1 active torsions:
REMARK  status: ('A' for Active; 'I' for Inactive)
REMARK    1  A    between atoms: C_11  and  C_12 
ROOT
HETATM    1 CL   LIG     1      18.987  22.692  34.166  1.00  0.00    -0.081 Cl
HETATM    2  C   LIG     1      20.646  22.088  34.266  1.00  0.00     0.070 A 
HETATM    3  C   LIG     1      21.549  22.676  35.168  1.00  0.00     0.080 A 
HETATM    4 CL   LIG     1      21.017  23.996  36.215  1.00  0.00    -0.081 Cl
HETATM    5  C   LIG     1      22.876  22.219  35.234  1.00  0.00     0.081 A 
HETATM    6 CL   LIG     1      24.009  22.961  36.368  1.00  0.00    -0.081 Cl
HETATM    7  C   LIG     1      23.302  21.172  34.400  1.00  0.00     0.080 A 
HETATM    8 CL   LIG     1      24.970  20.597  34.489  1.00  0.00    -0.081 Cl
HETATM    9  C   LIG     1      22.402  20.579  33.498  1.00  0.00     0.070 A 
HETATM   10 CL   LIG     1      22.940  19.241  32.475  1.00  0.00    -0.081 Cl
HETATM   11  C   LIG     1      21.070  21.036  33.427  1.00  0.00     0.021 A 
ENDROOT
BRANCH  11  12
HETATM   12  C   LIG     1      20.121  20.415  32.479  1.00  0.00    -0.022 A 
HETATM   13  C   LIG     1      19.814  21.054  31.268  1.00  0.00     0.012 A 
HETATM   14  C   LIG     1      18.916  20.465  30.372  1.00  0.00     0.001 A 
HETATM   15  C   LIG     1      18.323  19.237  30.680  1.00  0.00     0.000 A 
HETATM   16  C   LIG     1      18.626  18.596  31.885  1.00  0.00     0.001 A 
HETATM   17  C   LIG     1      19.523  19.182  32.783  1.00  0.00     0.012 A 
ENDBRANCH  11  12
TORSDOF 1
ENDMDL
MODEL 19
REMARK VINA RESULT:      -4.0     15.274     17.254
REMARK  1 active torsions:
REMARK  status: ('A' for Active; 'I' for Inactive)
REMARK    1  A    between atoms: C_11  and  C_12 
ROOT
HETATM    1 CL   LIG     1      24.531  22.802  22.960  1.00  0.00    -0.081 Cl
HETATM    2  C   LIG     1      24.503  21.762  21.531  1.00  0.00     0.070 A 
HETATM    3  C   LIG     1      23.654  20.641  21.501  1.00  0.00     0.080 A 
HETATM    4 CL   LIG     1      22.602  20.294  22.876  1.00  0.00    -0.081 Cl
HETATM    5  C   LIG     1      23.645  19.795  20.379  1.00  0.00     0.081 A 
HETATM    6 CL   LIG     1      22.579  18.388  20.344  1.00  0.00    -0.081 Cl
HETATM    7  C   LIG     1      24.483  20.067  19.285  1.00  0.00     0.080 A 
HETATM    8 CL   LIG     1      24.466  19.003  17.875  1.00  0.00    -0.081 Cl
HETATM    9  C   LIG     1      25.332  21.187  19.310  1.00  0.00     0.070 A 
HETATM   10 CL   LIG     1      26.361  21.539  17.916  1.00  0.00    -0.081 Cl
HETATM   11  C   LIG     1      25.345  22.038  20.434  1.00  0.00     0.021 A 
ENDROOT
BRANCH  11  12
HETATM   12  C   LIG     1      26.238  23.217  20.463  1.00  0.00    -0.022 A 
HETATM   13  C   LIG     1      27.477  23.147  21.119  1.00  0.00     0.012 A 
HETATM   14  C   LIG     1      28.320  24.263  21.146  1.00  0.00     0.001 A 
HETATM   15  C   LIG     1      27.931  25.450  20.518  1.00  0.00     0.000 A 
HETATM   16  C   LIG     1      26.698  25.525  19.864  1.00  0.00     0.001 A 
HETATM   17  C   LIG     1      25.852  24.411  19.835  1.00  0.00     0.012 A 
ENDBRANCH  11  12
TORSDOF 1
ENDMDL
MODEL 20
REMARK VINA RESULT:      -3.9     15.784     16.842
REMARK  1 active torsions:
REMARK  status: ('A' for Active; 'I' for Inactive)
REMARK    1  A    between atoms: C_11  and  C_12 
ROOT
HETATM    1 CL   LIG     1      28.103  20.957  19.912  1.00  0.00    -0.081 Cl
HETATM    2  C   LIG     1      26.557  20.843  20.763  1.00  0.00     0.070 A 
HETATM    3  C   LIG     1      26.178  19.628  21.360  1.00  0.00     0.080 A 
HETATM    4 CL   LIG     1      27.257  18.232  21.282  1.00  0.00    -0.081 Cl
HETATM    5  C   LIG     1      24.939  19.522  22.016  1.00  0.00     0.081 A 
HETATM    6 CL   LIG     1      24.465  17.994  22.764  1.00  0.00    -0.081 Cl
HETATM    7  C   LIG     1      24.078  20.630  22.076  1.00  0.00     0.080 A 
HETATM    8 CL   LIG     1      22.524  20.494  22.904  1.00  0.00    -0.081 Cl
HETATM    9  C   LIG     1      24.454  21.847  21.482  1.00  0.00     0.070 A 
HETATM   10 CL   LIG     1      23.377  23.245  21.591  1.00  0.00    -0.081 Cl
HETATM   11  C   LIG     1      25.695  21.957  20.822  1.00  0.00     0.021 A 
ENDROOT
BRANCH  11  12
HETATM   12  C   LIG     1      26.092  23.237  20.196  1.00  0.00    -0.022 A 
HETATM   13  C   LIG     1      26.849  24.171  20.920  1.00  0.00     0.012 A 
HETATM   14  C   LIG     1      27.224  25.381  20.328  1.00  0.00     0.001 A 
HETATM   15  C   LIG     1      26.846  25.662  19.011  1.00  0.00     0.000 A 
HETATM   16  C   LIG     1      26.093  24.735  18.285  1.00  0.00     0.001 A 
HETATM   17  C   LIG     1      25.716  23.524  18.875  1.00  0.00     0.012 A 
ENDBRANCH  11  12
TORSDOF 1
ENDMDL
