MODEL 1
REMARK VINA RESULT:      -6.9      0.000      0.000
REMARK  8 active torsions:
REMARK  status: ('A' for Active; 'I' for Inactive)
REMARK    1  A    between atoms: C_2  and  N_4 
REMARK    2  A    between atoms: N_4  and  C_5 
REMARK    3  A    between atoms: C_5  and  C_6 
REMARK    4  A    between atoms: C_6  and  C_7 
REMARK    5  A    between atoms: C_6  and  O_16 
REMARK    6  A    between atoms: C_9  and  C_10 
REMARK    7  A    between atoms: C_10  and  O_11 
REMARK    8  A    between atoms: C_12  and  O_13 
ROOT
HETATM    1  C   LIG     1      15.876  32.275  15.124  1.00  0.00    -0.027 A 
HETATM    2  C   LIG     1      15.427  31.119  14.462  1.00  0.00     0.022 A 
HETATM    3  C   LIG     1      14.304  30.412  14.923  1.00  0.00    -0.001 A 
HETATM    4  C   LIG     1      13.633  30.855  16.076  1.00  0.00     0.074 A 
HETATM    5  C   LIG     1      14.070  32.011  16.735  1.00  0.00     0.038 A 
HETATM    6  C   LIG     1      15.178  32.718  16.263  1.00  0.00     0.012 A 
ENDROOT
BRANCH   1   7
HETATM    7  C   LIG     1      17.092  33.010  14.584  1.00  0.00     0.179 C 
BRANCH   7   8
HETATM    8  C   LIG     1      17.226  32.813  13.060  1.00  0.00     0.306 C 
BRANCH   8   9
HETATM    9  N   LIG     1      17.751  34.044  12.443  1.00  0.00     0.094 N 
HETATM   10  H   LIG     1      17.027  34.382  11.765  1.00  0.00     0.317 HD
BRANCH   9  11
HETATM   11  C   LIG     1      19.047  33.895  11.732  1.00  0.00     0.147 C 
HETATM   12  C   LIG     1      19.232  32.470  11.162  1.00  0.00     0.048 C 
HETATM   13  C   LIG     1      20.223  34.247  12.669  1.00  0.00     0.048 C 
HETATM   14  C   LIG     1      19.061  34.896  10.558  1.00  0.00     0.048 C 
ENDBRANCH   9  11
ENDBRANCH   8   9
ENDBRANCH   7   8
BRANCH   7  15
HETATM   15  O   LIG     1      18.274  32.635  15.252  1.00  0.00    -0.389 OA
HETATM   16  H   LIG     1      18.718  31.923  14.721  1.00  0.00     0.210 HD
ENDBRANCH   7  15
ENDBRANCH   1   7
BRANCH   3  17
HETATM   17  C   LIG     1      13.869  29.155  14.215  1.00  0.00     0.205 C 
BRANCH  17  18
HETATM   18  O   LIG     1      12.478  29.155  14.044  1.00  0.00    -0.396 OA
HETATM   19  H   LIG     1      12.099  29.659  14.811  1.00  0.00     0.209 HD
ENDBRANCH  17  18
ENDBRANCH   3  17
BRANCH   4  20
HETATM   20  O   LIG     1      12.535  30.147  16.565  1.00  0.00    -0.360 OA
HETATM   21  H   LIG     1      11.710  29.990  15.998  1.00  0.00     0.217 HD
ENDBRANCH   4  20
TORSDOF 8
ENDMDL
MODEL 2
REMARK VINA RESULT:      -6.9      9.090     11.738
REMARK  8 active torsions:
REMARK  status: ('A' for Active; 'I' for Inactive)
REMARK    1  A    between atoms: C_2  and  N_4 
REMARK    2  A    between atoms: N_4  and  C_5 
REMARK    3  A    between atoms: C_5  and  C_6 
REMARK    4  A    between atoms: C_6  and  C_7 
REMARK    5  A    between atoms: C_6  and  O_16 
REMARK    6  A    between atoms: C_9  and  C_10 
REMARK    7  A    between atoms: C_10  and  O_11 
REMARK    8  A    between atoms: C_12  and  O_13 
ROOT
HETATM    1  C   LIG     1      17.264  37.869  22.366  1.00  0.00    -0.027 A 
HETATM    2  C   LIG     1      18.241  38.639  21.710  1.00  0.00     0.022 A 
HETATM    3  C   LIG     1      18.828  38.195  20.514  1.00  0.00    -0.001 A 
HETATM    4  C   LIG     1      18.451  36.952  19.977  1.00  0.00     0.074 A 
HETATM    5  C   LIG     1      17.473  36.184  20.621  1.00  0.00     0.038 A 
HETATM    6  C   LIG     1      16.881  36.637  21.802  1.00  0.00     0.012 A 
ENDROOT
BRANCH   1   7
HETATM    7  C   LIG     1      16.654  38.393  23.655  1.00  0.00     0.179 C 
BRANCH   7   8
HETATM    8  C   LIG     1      17.484  37.956  24.879  1.00  0.00     0.306 C 
BRANCH   8   9
HETATM    9  N   LIG     1      16.790  36.867  25.589  1.00  0.00     0.094 N 
HETATM   10  H   LIG     1      16.501  37.242  26.523  1.00  0.00     0.317 HD
BRANCH   9  11
HETATM   11  C   LIG     1      17.589  35.631  25.792  1.00  0.00     0.147 C 
HETATM   12  C   LIG     1      18.978  35.934  26.398  1.00  0.00     0.048 C 
HETATM   13  C   LIG     1      17.749  34.864  24.460  1.00  0.00     0.048 C 
HETATM   14  C   LIG     1      16.816  34.722  26.770  1.00  0.00     0.048 C 
ENDBRANCH   9  11
ENDBRANCH   8   9
ENDBRANCH   7   8
BRANCH   7  15
HETATM   15  O   LIG     1      15.304  38.013  23.793  1.00  0.00    -0.389 OA
HETATM   16  H   LIG     1      14.913  38.525  24.549  1.00  0.00     0.210 HD
ENDBRANCH   7  15
ENDBRANCH   1   7
BRANCH   3  17
HETATM   17  C   LIG     1      19.898  39.025  19.852  1.00  0.00     0.205 C 
BRANCH  17  18
HETATM   18  O   LIG     1      19.479  39.422  18.576  1.00  0.00    -0.396 OA
HETATM   19  H   LIG     1      20.302  39.558  18.037  1.00  0.00     0.209 HD
ENDBRANCH  17  18
ENDBRANCH   3  17
BRANCH   4  20
HETATM   20  O   LIG     1      19.046  36.482  18.807  1.00  0.00    -0.360 OA
HETATM   21  H   LIG     1      19.637  35.659  18.805  1.00  0.00     0.217 HD
ENDBRANCH   4  20
TORSDOF 8
ENDMDL
MODEL 3
REMARK VINA RESULT:      -6.8      8.539     10.048
REMARK  8 active torsions:
REMARK  status: ('A' for Active; 'I' for Inactive)
REMARK    1  A    between atoms: C_2  and  N_4 
REMARK    2  A    between atoms: N_4  and  C_5 
REMARK    3  A    between atoms: C_5  and  C_6 
REMARK    4  A    between atoms: C_6  and  C_7 
REMARK    5  A    between atoms: C_6  and  O_16 
REMARK    6  A    between atoms: C_9  and  C_10 
REMARK    7  A    between atoms: C_10  and  O_11 
REMARK    8  A    between atoms: C_12  and  O_13 
ROOT
HETATM    1  C   LIG     1      16.837  36.124  22.249  1.00  0.00    -0.027 A 
HETATM    2  C   LIG     1      17.207  35.259  23.294  1.00  0.00     0.022 A 
HETATM    3  C   LIG     1      17.315  35.726  24.614  1.00  0.00    -0.001 A 
HETATM    4  C   LIG     1      17.073  37.084  24.890  1.00  0.00     0.074 A 
HETATM    5  C   LIG     1      16.696  37.948  23.855  1.00  0.00     0.038 A 
HETATM    6  C   LIG     1      16.575  37.474  22.546  1.00  0.00     0.012 A 
ENDROOT
BRANCH   1   7
HETATM    7  C   LIG     1      16.727  35.571  20.837  1.00  0.00     0.179 C 
BRANCH   7   8
HETATM    8  C   LIG     1      17.332  36.551  19.811  1.00  0.00     0.306 C 
BRANCH   8   9
HETATM    9  N   LIG     1      18.747  36.803  20.134  1.00  0.00     0.094 N 
HETATM   10  H   LIG     1      18.853  36.684  21.170  1.00  0.00     0.317 HD
BRANCH   9  11
HETATM   11  C   LIG     1      19.258  38.143  19.746  1.00  0.00     0.147 C 
HETATM   12  C   LIG     1      18.881  39.226  20.783  1.00  0.00     0.048 C 
HETATM   13  C   LIG     1      18.732  38.540  18.350  1.00  0.00     0.048 C 
HETATM   14  C   LIG     1      20.797  38.057  19.666  1.00  0.00     0.048 C 
ENDBRANCH   9  11
ENDBRANCH   8   9
ENDBRANCH   7   8
BRANCH   7  15
HETATM   15  O   LIG     1      15.400  35.238  20.502  1.00  0.00    -0.389 OA
HETATM   16  H   LIG     1      15.386  34.930  19.558  1.00  0.00     0.210 HD
ENDBRANCH   7  15
ENDBRANCH   1   7
BRANCH   3  17
HETATM   17  C   LIG     1      17.749  34.785  25.708  1.00  0.00     0.205 C 
BRANCH  17  18
HETATM   18  O   LIG     1      16.661  34.468  26.531  1.00  0.00    -0.396 OA
HETATM   19  H   LIG     1      17.038  34.074  27.360  1.00  0.00     0.209 HD
ENDBRANCH  17  18
ENDBRANCH   3  17
BRANCH   4  20
HETATM   20  O   LIG     1      17.207  37.570  26.190  1.00  0.00    -0.360 OA
HETATM   21  H   LIG     1      17.382  38.551  26.375  1.00  0.00     0.217 HD
ENDBRANCH   4  20
TORSDOF 8
ENDMDL
MODEL 4
REMARK VINA RESULT:      -6.7      3.760      5.967
REMARK  8 active torsions:
REMARK  status: ('A' for Active; 'I' for Inactive)
REMARK    1  A    between atoms: C_2  and  N_4 
REMARK    2  A    between atoms: N_4  and  C_5 
REMARK    3  A    between atoms: C_5  and  C_6 
REMARK    4  A    between atoms: C_6  and  C_7 
REMARK    5  A    between atoms: C_6  and  O_16 
REMARK    6  A    between atoms: C_9  and  C_10 
REMARK    7  A    between atoms: C_10  and  O_11 
REMARK    8  A    between atoms: C_12  and  O_13 
ROOT
HETATM    1  C   LIG     1      14.619  32.358  16.486  1.00  0.00    -0.027 A 
HETATM    2  C   LIG     1      15.211  31.802  15.338  1.00  0.00     0.022 A 
HETATM    3  C   LIG     1      14.613  30.721  14.669  1.00  0.00    -0.001 A 
HETATM    4  C   LIG     1      13.418  30.174  15.167  1.00  0.00     0.074 A 
HETATM    5  C   LIG     1      12.819  30.730  16.304  1.00  0.00     0.038 A 
HETATM    6  C   LIG     1      13.410  31.814  16.957  1.00  0.00     0.012 A 
ENDROOT
BRANCH   1   7
HETATM    7  C   LIG     1      15.300  33.530  17.173  1.00  0.00     0.179 C 
BRANCH   7   8
HETATM    8  C   LIG     1      15.275  33.363  18.706  1.00  0.00     0.306 C 
BRANCH   8   9
HETATM    9  N   LIG     1      15.695  34.619  19.352  1.00  0.00     0.094 N 
HETATM   10  H   LIG     1      16.714  34.748  19.143  1.00  0.00     0.317 HD
BRANCH   9  11
HETATM   11  C   LIG     1      15.493  34.675  20.823  1.00  0.00     0.147 C 
HETATM   12  C   LIG     1      14.660  35.908  21.244  1.00  0.00     0.048 C 
HETATM   13  C   LIG     1      16.851  34.678  21.558  1.00  0.00     0.048 C 
HETATM   14  C   LIG     1      14.730  33.402  21.245  1.00  0.00     0.048 C 
ENDBRANCH   9  11
ENDBRANCH   8   9
ENDBRANCH   7   8
BRANCH   7  15
HETATM   15  O   LIG     1      14.744  34.765  16.786  1.00  0.00    -0.389 OA
HETATM   16  H   LIG     1      15.262  35.490  17.224  1.00  0.00     0.210 HD
ENDBRANCH   7  15
ENDBRANCH   1   7
BRANCH   3  17
HETATM   17  C   LIG     1      15.289  30.121  13.463  1.00  0.00     0.205 C 
BRANCH  17  18
HETATM   18  O   LIG     1      15.323  28.725  13.574  1.00  0.00    -0.396 OA
HETATM   19  H   LIG     1      16.141  28.502  14.091  1.00  0.00     0.209 HD
ENDBRANCH  17  18
ENDBRANCH   3  17
BRANCH   4  20
HETATM   20  O   LIG     1      12.828  29.081  14.531  1.00  0.00    -0.360 OA
HETATM   21  H   LIG     1      12.099  29.201  13.837  1.00  0.00     0.217 HD
ENDBRANCH   4  20
TORSDOF 8
ENDMDL
MODEL 5
REMARK VINA RESULT:      -6.6      7.750     10.156
REMARK  8 active torsions:
REMARK  status: ('A' for Active; 'I' for Inactive)
REMARK    1  A    between atoms: C_2  and  N_4 
REMARK    2  A    between atoms: N_4  and  C_5 
REMARK    3  A    between atoms: C_5  and  C_6 
REMARK    4  A    between atoms: C_6  and  C_7 
REMARK    5  A    between atoms: C_6  and  O_16 
REMARK    6  A    between atoms: C_9  and  C_10 
REMARK    7  A    between atoms: C_10  and  O_11 
REMARK    8  A    between atoms: C_12  and  O_13 
ROOT
HETATM    1  C   LIG     1      16.846  36.286  22.304  1.00  0.00    -0.027 A 
HETATM    2  C   LIG     1      16.890  35.409  23.402  1.00  0.00     0.022 A 
HETATM    3  C   LIG     1      17.242  35.871  24.681  1.00  0.00    -0.001 A 
HETATM    4  C   LIG     1      17.576  37.225  24.861  1.00  0.00     0.074 A 
HETATM    5  C   LIG     1      17.525  38.104  23.772  1.00  0.00     0.038 A 
HETATM    6  C   LIG     1      17.160  37.642  22.506  1.00  0.00     0.012 A 
ENDROOT
BRANCH   1   7
HETATM    7  C   LIG     1      16.455  35.741  20.940  1.00  0.00     0.179 C 
BRANCH   7   8
HETATM    8  C   LIG     1      15.985  34.275  21.043  1.00  0.00     0.306 C 
BRANCH   8   9
HETATM    9  N   LIG     1      15.617  33.774  19.708  1.00  0.00     0.094 N 
HETATM   10  H   LIG     1      14.867  34.403  19.337  1.00  0.00     0.317 HD
BRANCH   9  11
HETATM   11  C   LIG     1      15.134  32.369  19.668  1.00  0.00     0.147 C 
HETATM   12  C   LIG     1      14.456  32.030  18.321  1.00  0.00     0.048 C 
HETATM   13  C   LIG     1      14.158  32.099  20.834  1.00  0.00     0.048 C 
HETATM   14  C   LIG     1      16.354  31.443  19.849  1.00  0.00     0.048 C 
ENDBRANCH   9  11
ENDBRANCH   8   9
ENDBRANCH   7   8
BRANCH   7  15
HETATM   15  O   LIG     1      17.494  35.877  19.999  1.00  0.00    -0.389 OA
HETATM   16  H   LIG     1      17.915  36.767  20.129  1.00  0.00     0.210 HD
ENDBRANCH   7  15
ENDBRANCH   1   7
BRANCH   3  17
HETATM   17  C   LIG     1      17.317  34.901  25.833  1.00  0.00     0.205 C 
BRANCH  17  18
HETATM   18  O   LIG     1      18.642  34.772  26.268  1.00  0.00    -0.396 OA
HETATM   19  H   LIG     1      18.760  33.824  26.537  1.00  0.00     0.209 HD
ENDBRANCH  17  18
ENDBRANCH   3  17
BRANCH   4  20
HETATM   20  O   LIG     1      17.957  37.693  26.118  1.00  0.00    -0.360 OA
HETATM   21  H   LIG     1      18.365  38.612  26.241  1.00  0.00     0.217 HD
ENDBRANCH   4  20
TORSDOF 8
ENDMDL
MODEL 6
REMARK VINA RESULT:      -6.5      0.981      2.318
REMARK  8 active torsions:
REMARK  status: ('A' for Active; 'I' for Inactive)
REMARK    1  A    between atoms: C_2  and  N_4 
REMARK    2  A    between atoms: N_4  and  C_5 
REMARK    3  A    between atoms: C_5  and  C_6 
REMARK    4  A    between atoms: C_6  and  C_7 
REMARK    5  A    between atoms: C_6  and  O_16 
REMARK    6  A    between atoms: C_9  and  C_10 
REMARK    7  A    between atoms: C_10  and  O_11 
REMARK    8  A    between atoms: C_12  and  O_13 
ROOT
HETATM    1  C   LIG     1      16.073  32.091  14.655  1.00  0.00    -0.027 A 
HETATM    2  C   LIG     1      15.195  32.213  15.747  1.00  0.00     0.022 A 
HETATM    3  C   LIG     1      14.106  31.340  15.899  1.00  0.00    -0.001 A 
HETATM    4  C   LIG     1      13.878  30.343  14.934  1.00  0.00     0.074 A 
HETATM    5  C   LIG     1      14.753  30.211  13.849  1.00  0.00     0.038 A 
HETATM    6  C   LIG     1      15.843  31.073  13.711  1.00  0.00     0.012 A 
ENDROOT
BRANCH   1   7
HETATM    7  C   LIG     1      17.241  33.056  14.536  1.00  0.00     0.179 C 
BRANCH   7   8
HETATM    8  C   LIG     1      17.601  33.309  13.057  1.00  0.00     0.306 C 
BRANCH   8   9
HETATM    9  N   LIG     1      18.882  34.032  12.972  1.00  0.00     0.094 N 
HETATM   10  H   LIG     1      18.690  35.032  13.218  1.00  0.00     0.317 HD
BRANCH   9  11
HETATM   11  C   LIG     1      19.553  33.980  11.647  1.00  0.00     0.147 C 
HETATM   12  C   LIG     1      18.919  34.967  10.640  1.00  0.00     0.048 C 
HETATM   13  C   LIG     1      19.515  32.546  11.076  1.00  0.00     0.048 C 
HETATM   14  C   LIG     1      21.032  34.370  11.849  1.00  0.00     0.048 C 
ENDBRANCH   9  11
ENDBRANCH   8   9
ENDBRANCH   7   8
BRANCH   7  15
HETATM   15  O   LIG     1      18.364  32.619  15.265  1.00  0.00    -0.389 OA
HETATM   16  H   LIG     1      18.359  33.077  16.146  1.00  0.00     0.210 HD
ENDBRANCH   7  15
ENDBRANCH   1   7
BRANCH   3  17
HETATM   17  C   LIG     1      13.161  31.517  17.060  1.00  0.00     0.205 C 
BRANCH  17  18
HETATM   18  O   LIG     1      13.876  31.539  18.264  1.00  0.00    -0.396 OA
HETATM   19  H   LIG     1      13.225  31.778  18.975  1.00  0.00     0.209 HD
ENDBRANCH  17  18
ENDBRANCH   3  17
BRANCH   4  20
HETATM   20  O   LIG     1      12.783  29.487  15.054  1.00  0.00    -0.360 OA
HETATM   21  H   LIG     1      11.866  29.746  14.707  1.00  0.00     0.217 HD
ENDBRANCH   4  20
TORSDOF 8
ENDMDL
MODEL 7
REMARK VINA RESULT:      -6.5      6.241      8.826
REMARK  8 active torsions:
REMARK  status: ('A' for Active; 'I' for Inactive)
REMARK    1  A    between atoms: C_2  and  N_4 
REMARK    2  A    between atoms: N_4  and  C_5 
REMARK    3  A    between atoms: C_5  and  C_6 
REMARK    4  A    between atoms: C_6  and  C_7 
REMARK    5  A    between atoms: C_6  and  O_16 
REMARK    6  A    between atoms: C_9  and  C_10 
REMARK    7  A    between atoms: C_10  and  O_11 
REMARK    8  A    between atoms: C_12  and  O_13 
ROOT
HETATM    1  C   LIG     1      16.644  35.934  21.095  1.00  0.00    -0.027 A 
HETATM    2  C   LIG     1      17.664  36.386  20.238  1.00  0.00     0.022 A 
HETATM    3  C   LIG     1      18.380  37.560  20.524  1.00  0.00    -0.001 A 
HETATM    4  C   LIG     1      18.057  38.306  21.671  1.00  0.00     0.074 A 
HETATM    5  C   LIG     1      17.048  37.857  22.532  1.00  0.00     0.038 A 
HETATM    6  C   LIG     1      16.349  36.681  22.250  1.00  0.00     0.012 A 
ENDROOT
BRANCH   1   7
HETATM    7  C   LIG     1      15.900  34.656  20.747  1.00  0.00     0.179 C 
BRANCH   7   8
HETATM    8  C   LIG     1      15.620  34.573  19.232  1.00  0.00     0.306 C 
BRANCH   8   9
HETATM    9  N   LIG     1      15.430  33.167  18.835  1.00  0.00     0.094 N 
HETATM   10  H   LIG     1      16.351  32.684  18.958  1.00  0.00     0.317 HD
BRANCH   9  11
HETATM   11  C   LIG     1      14.957  32.958  17.442  1.00  0.00     0.147 C 
HETATM   12  C   LIG     1      13.785  31.953  17.376  1.00  0.00     0.048 C 
HETATM   13  C   LIG     1      16.116  32.480  16.542  1.00  0.00     0.048 C 
HETATM   14  C   LIG     1      14.467  34.318  16.900  1.00  0.00     0.048 C 
ENDBRANCH   9  11
ENDBRANCH   8   9
ENDBRANCH   7   8
BRANCH   7  15
HETATM   15  O   LIG     1      14.714  34.515  21.492  1.00  0.00    -0.389 OA
HETATM   16  H   LIG     1      14.814  33.729  22.090  1.00  0.00     0.210 HD
ENDBRANCH   7  15
ENDBRANCH   1   7
BRANCH   3  17
HETATM   17  C   LIG     1      19.443  38.039  19.569  1.00  0.00     0.205 C 
BRANCH  17  18
HETATM   18  O   LIG     1      19.209  39.375  19.218  1.00  0.00    -0.396 OA
HETATM   19  H   LIG     1      19.400  39.450  18.247  1.00  0.00     0.209 HD
ENDBRANCH  17  18
ENDBRANCH   3  17
BRANCH   4  20
HETATM   20  O   LIG     1      18.738  39.490  21.952  1.00  0.00    -0.360 OA
HETATM   21  H   LIG     1      18.247  40.368  22.080  1.00  0.00     0.217 HD
ENDBRANCH   4  20
TORSDOF 8
ENDMDL
MODEL 8
REMARK VINA RESULT:      -6.2      3.751      6.424
REMARK  8 active torsions:
REMARK  status: ('A' for Active; 'I' for Inactive)
REMARK    1  A    between atoms: C_2  and  N_4 
REMARK    2  A    between atoms: N_4  and  C_5 
REMARK    3  A    between atoms: C_5  and  C_6 
REMARK    4  A    between atoms: C_6  and  C_7 
REMARK    5  A    between atoms: C_6  and  O_16 
REMARK    6  A    between atoms: C_9  and  C_10 
REMARK    7  A    between atoms: C_10  and  O_11 
REMARK    8  A    between atoms: C_12  and  O_13 
ROOT
HETATM    1  C   LIG     1      14.699  31.973  16.991  1.00  0.00    -0.027 A 
HETATM    2  C   LIG     1      15.688  32.639  16.246  1.00  0.00     0.022 A 
HETATM    3  C   LIG     1      15.998  32.238  14.936  1.00  0.00    -0.001 A 
HETATM    4  C   LIG     1      15.326  31.141  14.370  1.00  0.00     0.074 A 
HETATM    5  C   LIG     1      14.334  30.479  15.104  1.00  0.00     0.038 A 
HETATM    6  C   LIG     1      14.019  30.891  16.401  1.00  0.00     0.012 A 
ENDROOT
BRANCH   1   7
HETATM    7  C   LIG     1      14.395  32.446  18.403  1.00  0.00     0.179 C 
BRANCH   7   8
HETATM    8  C   LIG     1      15.449  33.462  18.886  1.00  0.00     0.306 C 
BRANCH   8   9
HETATM    9  N   LIG     1      15.358  33.621  20.348  1.00  0.00     0.094 N 
HETATM   10  H   LIG     1      14.352  33.495  20.610  1.00  0.00     0.317 HD
BRANCH   9  11
HETATM   11  C   LIG     1      15.835  34.925  20.876  1.00  0.00     0.147 C 
HETATM   12  C   LIG     1      16.781  34.746  22.086  1.00  0.00     0.048 C 
HETATM   13  C   LIG     1      14.640  35.822  21.266  1.00  0.00     0.048 C 
HETATM   14  C   LIG     1      16.612  35.637  19.749  1.00  0.00     0.048 C 
ENDBRANCH   9  11
ENDBRANCH   8   9
ENDBRANCH   7   8
BRANCH   7  15
HETATM   15  O   LIG     1      14.274  31.371  19.305  1.00  0.00    -0.389 OA
HETATM   16  H   LIG     1      15.097  30.819  19.244  1.00  0.00     0.210 HD
ENDBRANCH   7  15
ENDBRANCH   1   7
BRANCH   3  17
HETATM   17  C   LIG     1      17.088  32.948  14.175  1.00  0.00     0.205 C 
BRANCH  17  18
HETATM   18  O   LIG     1      16.609  33.370  12.928  1.00  0.00    -0.396 OA
HETATM   19  H   LIG     1      15.628  33.487  13.027  1.00  0.00     0.209 HD
ENDBRANCH  17  18
ENDBRANCH   3  17
BRANCH   4  20
HETATM   20  O   LIG     1      15.643  30.711  13.082  1.00  0.00    -0.360 OA
HETATM   21  H   LIG     1      15.384  31.250  12.263  1.00  0.00     0.217 HD
ENDBRANCH   4  20
TORSDOF 8
ENDMDL
MODEL 9
REMARK VINA RESULT:      -6.0      8.544     10.168
REMARK  8 active torsions:
REMARK  status: ('A' for Active; 'I' for Inactive)
REMARK    1  A    between atoms: C_2  and  N_4 
REMARK    2  A    between atoms: N_4  and  C_5 
REMARK    3  A    between atoms: C_5  and  C_6 
REMARK    4  A    between atoms: C_6  and  C_7 
REMARK    5  A    between atoms: C_6  and  O_16 
REMARK    6  A    between atoms: C_9  and  C_10 
REMARK    7  A    between atoms: C_10  and  O_11 
REMARK    8  A    between atoms: C_12  and  O_13 
ROOT
HETATM    1  C   LIG     1      17.153  35.774  22.405  1.00  0.00    -0.027 A 
HETATM    2  C   LIG     1      17.178  37.100  22.874  1.00  0.00     0.022 A 
HETATM    3  C   LIG     1      17.272  37.379  24.247  1.00  0.00    -0.001 A 
HETATM    4  C   LIG     1      17.319  36.317  25.168  1.00  0.00     0.074 A 
HETATM    5  C   LIG     1      17.303  34.995  24.707  1.00  0.00     0.038 A 
HETATM    6  C   LIG     1      17.224  34.724  23.339  1.00  0.00     0.012 A 
ENDROOT
BRANCH   1   7
HETATM    7  C   LIG     1      17.055  35.522  20.910  1.00  0.00     0.179 C 
BRANCH   7   8
HETATM    8  C   LIG     1      17.342  36.810  20.111  1.00  0.00     0.306 C 
BRANCH   8   9
HETATM    9  N   LIG     1      18.783  36.904  19.818  1.00  0.00     0.094 N 
HETATM   10  H   LIG     1      19.293  36.489  20.633  1.00  0.00     0.317 HD
BRANCH   9  11
HETATM   11  C   LIG     1      19.293  38.279  19.579  1.00  0.00     0.147 C 
HETATM   12  C   LIG     1      20.838  38.332  19.591  1.00  0.00     0.048 C 
HETATM   13  C   LIG     1      18.721  39.259  20.626  1.00  0.00     0.048 C 
HETATM   14  C   LIG     1      18.799  38.733  18.189  1.00  0.00     0.048 C 
ENDBRANCH   9  11
ENDBRANCH   8   9
ENDBRANCH   7   8
BRANCH   7  15
HETATM   15  O   LIG     1      15.814  34.964  20.548  1.00  0.00    -0.389 OA
HETATM   16  H   LIG     1      15.908  33.976  20.537  1.00  0.00     0.210 HD
ENDBRANCH   7  15
ENDBRANCH   1   7
BRANCH   3  17
HETATM   17  C   LIG     1      17.261  38.809  24.723  1.00  0.00     0.205 C 
BRANCH  17  18
HETATM   18  O   LIG     1      16.843  39.657  23.689  1.00  0.00    -0.396 OA
HETATM   19  H   LIG     1      15.945  39.993  23.944  1.00  0.00     0.209 HD
ENDBRANCH  17  18
ENDBRANCH   3  17
BRANCH   4  20
HETATM   20  O   LIG     1      17.382  36.577  26.537  1.00  0.00    -0.360 OA
HETATM   21  H   LIG     1      16.712  36.178  27.184  1.00  0.00     0.217 HD
ENDBRANCH   4  20
TORSDOF 8
ENDMDL
MODEL 10
REMARK VINA RESULT:      -5.9      7.836     10.320
REMARK  8 active torsions:
REMARK  status: ('A' for Active; 'I' for Inactive)
REMARK    1  A    between atoms: C_2  and  N_4 
REMARK    2  A    between atoms: N_4  and  C_5 
REMARK    3  A    between atoms: C_5  and  C_6 
REMARK    4  A    between atoms: C_6  and  C_7 
REMARK    5  A    between atoms: C_6  and  O_16 
REMARK    6  A    between atoms: C_9  and  C_10 
REMARK    7  A    between atoms: C_10  and  O_11 
REMARK    8  A    between atoms: C_12  and  O_13 
ROOT
HETATM    1  C   LIG     1      16.657  35.934  22.412  1.00  0.00    -0.027 A 
HETATM    2  C   LIG     1      16.937  37.221  22.904  1.00  0.00     0.022 A 
HETATM    3  C   LIG     1      17.425  37.406  24.208  1.00  0.00    -0.001 A 
HETATM    4  C   LIG     1      17.615  36.289  25.041  1.00  0.00     0.074 A 
HETATM    5  C   LIG     1      17.345  35.004  24.554  1.00  0.00     0.038 A 
HETATM    6  C   LIG     1      16.874  34.825  23.251  1.00  0.00     0.012 A 
ENDROOT
BRANCH   1   7
HETATM    7  C   LIG     1      16.135  35.784  20.993  1.00  0.00     0.179 C 
BRANCH   7   8
HETATM    8  C   LIG     1      15.204  34.560  20.872  1.00  0.00     0.306 C 
BRANCH   8   9
HETATM    9  N   LIG     1      15.626  33.722  19.736  1.00  0.00     0.094 N 
HETATM   10  H   LIG     1      15.253  34.171  18.866  1.00  0.00     0.317 HD
BRANCH   9  11
HETATM   11  C   LIG     1      15.168  32.309  19.785  1.00  0.00     0.147 C 
HETATM   12  C   LIG     1      14.137  32.075  20.912  1.00  0.00     0.048 C 
HETATM   13  C   LIG     1      16.370  31.356  19.960  1.00  0.00     0.048 C 
HETATM   14  C   LIG     1      14.498  31.982  18.434  1.00  0.00     0.048 C 
ENDBRANCH   9  11
ENDBRANCH   8   9
ENDBRANCH   7   8
BRANCH   7  15
HETATM   15  O   LIG     1      17.179  35.724  20.050  1.00  0.00    -0.389 OA
HETATM   16  H   LIG     1      16.982  36.376  19.327  1.00  0.00     0.210 HD
ENDBRANCH   7  15
ENDBRANCH   1   7
BRANCH   3  17
HETATM   17  C   LIG     1      17.682  38.799  24.721  1.00  0.00     0.205 C 
BRANCH  17  18
HETATM   18  O   LIG     1      17.115  38.957  25.992  1.00  0.00    -0.396 OA
HETATM   19  H   LIG     1      16.859  38.050  26.303  1.00  0.00     0.209 HD
ENDBRANCH  17  18
ENDBRANCH   3  17
BRANCH   4  20
HETATM   20  O   LIG     1      18.070  36.458  26.349  1.00  0.00    -0.360 OA
HETATM   21  H   LIG     1      18.274  37.376  26.726  1.00  0.00     0.217 HD
ENDBRANCH   4  20
TORSDOF 8
ENDMDL
MODEL 11
REMARK VINA RESULT:      -5.9      1.871      2.982
REMARK  8 active torsions:
REMARK  status: ('A' for Active; 'I' for Inactive)
REMARK    1  A    between atoms: C_2  and  N_4 
REMARK    2  A    between atoms: N_4  and  C_5 
REMARK    3  A    between atoms: C_5  and  C_6 
REMARK    4  A    between atoms: C_6  and  C_7 
REMARK    5  A    between atoms: C_6  and  O_16 
REMARK    6  A    between atoms: C_9  and  C_10 
REMARK    7  A    between atoms: C_10  and  O_11 
REMARK    8  A    between atoms: C_12  and  O_13 
ROOT
HETATM    1  C   LIG     1      15.924  32.384  14.720  1.00  0.00    -0.027 A 
HETATM    2  C   LIG     1      15.945  33.355  15.737  1.00  0.00     0.022 A 
HETATM    3  C   LIG     1      15.199  33.184  16.915  1.00  0.00    -0.001 A 
HETATM    4  C   LIG     1      14.403  32.035  17.069  1.00  0.00     0.074 A 
HETATM    5  C   LIG     1      14.385  31.061  16.063  1.00  0.00     0.038 A 
HETATM    6  C   LIG     1      15.140  31.229  14.901  1.00  0.00     0.012 A 
ENDROOT
BRANCH   1   7
HETATM    7  C   LIG     1      16.752  32.610  13.465  1.00  0.00     0.179 C 
BRANCH   7   8
HETATM    8  C   LIG     1      18.085  33.310  13.801  1.00  0.00     0.306 C 
BRANCH   8   9
HETATM    9  N   LIG     1      18.403  34.303  12.761  1.00  0.00     0.094 N 
HETATM   10  H   LIG     1      17.543  34.425  12.176  1.00  0.00     0.317 HD
BRANCH   9  11
HETATM   11  C   LIG     1      19.544  33.952  11.875  1.00  0.00     0.147 C 
HETATM   12  C   LIG     1      19.380  32.546  11.253  1.00  0.00     0.048 C 
HETATM   13  C   LIG     1      20.877  34.035  12.650  1.00  0.00     0.048 C 
HETATM   14  C   LIG     1      19.595  34.989  10.734  1.00  0.00     0.048 C 
ENDBRANCH   9  11
ENDBRANCH   8   9
ENDBRANCH   7   8
BRANCH   7  15
HETATM   15  O   LIG     1      16.037  33.322  12.483  1.00  0.00    -0.389 OA
HETATM   16  H   LIG     1      16.429  34.232  12.412  1.00  0.00     0.210 HD
ENDBRANCH   7  15
ENDBRANCH   1   7
BRANCH   3  17
HETATM   17  C   LIG     1      15.212  34.258  17.971  1.00  0.00     0.205 C 
BRANCH  17  18
HETATM   18  O   LIG     1      15.461  33.694  19.229  1.00  0.00    -0.396 OA
HETATM   19  H   LIG     1      14.575  33.519  19.641  1.00  0.00     0.209 HD
ENDBRANCH  17  18
ENDBRANCH   3  17
BRANCH   4  20
HETATM   20  O   LIG     1      13.633  31.865  18.219  1.00  0.00    -0.360 OA
HETATM   21  H   LIG     1      13.938  31.269  18.980  1.00  0.00     0.217 HD
ENDBRANCH   4  20
TORSDOF 8
ENDMDL
MODEL 12
REMARK VINA RESULT:      -5.8      1.628      2.126
REMARK  8 active torsions:
REMARK  status: ('A' for Active; 'I' for Inactive)
REMARK    1  A    between atoms: C_2  and  N_4 
REMARK    2  A    between atoms: N_4  and  C_5 
REMARK    3  A    between atoms: C_5  and  C_6 
REMARK    4  A    between atoms: C_6  and  C_7 
REMARK    5  A    between atoms: C_6  and  O_16 
REMARK    6  A    between atoms: C_9  and  C_10 
REMARK    7  A    between atoms: C_10  and  O_11 
REMARK    8  A    between atoms: C_12  and  O_13 
ROOT
HETATM    1  C   LIG     1      16.515  32.634  13.901  1.00  0.00    -0.027 A 
HETATM    2  C   LIG     1      15.740  31.494  13.620  1.00  0.00     0.022 A 
HETATM    3  C   LIG     1      14.914  30.923  14.601  1.00  0.00    -0.001 A 
HETATM    4  C   LIG     1      14.879  31.485  15.890  1.00  0.00     0.074 A 
HETATM    5  C   LIG     1      15.642  32.624  16.173  1.00  0.00     0.038 A 
HETATM    6  C   LIG     1      16.450  33.197  15.189  1.00  0.00     0.012 A 
ENDROOT
BRANCH   1   7
HETATM    7  C   LIG     1      17.391  33.220  12.805  1.00  0.00     0.179 C 
BRANCH   7   8
HETATM    8  C   LIG     1      18.818  33.490  13.322  1.00  0.00     0.306 C 
BRANCH   8   9
HETATM    9  N   LIG     1      19.463  34.522  12.492  1.00  0.00     0.094 N 
HETATM   10  H   LIG     1      18.783  34.781  11.738  1.00  0.00     0.317 HD
BRANCH   9  11
HETATM   11  C   LIG     1      20.750  34.122  11.866  1.00  0.00     0.147 C 
HETATM   12  C   LIG     1      21.119  35.032  10.673  1.00  0.00     0.048 C 
HETATM   13  C   LIG     1      20.695  32.647  11.410  1.00  0.00     0.048 C 
HETATM   14  C   LIG     1      21.855  34.244  12.936  1.00  0.00     0.048 C 
ENDBRANCH   9  11
ENDBRANCH   8   9
ENDBRANCH   7   8
BRANCH   7  15
HETATM   15  O   LIG     1      16.825  34.380  12.242  1.00  0.00    -0.389 OA
HETATM   16  H   LIG     1      15.847  34.363  12.413  1.00  0.00     0.210 HD
ENDBRANCH   7  15
ENDBRANCH   1   7
BRANCH   3  17
HETATM   17  C   LIG     1      14.123  29.681  14.282  1.00  0.00     0.205 C 
BRANCH  17  18
HETATM   18  O   LIG     1      14.877  28.824  13.471  1.00  0.00    -0.396 OA
HETATM   19  H   LIG     1      15.797  28.818  13.844  1.00  0.00     0.209 HD
ENDBRANCH  17  18
ENDBRANCH   3  17
BRANCH   4  20
HETATM   20  O   LIG     1      14.087  30.911  16.884  1.00  0.00    -0.360 OA
HETATM   21  H   LIG     1      14.061  29.908  17.030  1.00  0.00     0.217 HD
ENDBRANCH   4  20
TORSDOF 8
ENDMDL
MODEL 13
REMARK VINA RESULT:      -5.7      3.630      6.684
REMARK  8 active torsions:
REMARK  status: ('A' for Active; 'I' for Inactive)
REMARK    1  A    between atoms: C_2  and  N_4 
REMARK    2  A    between atoms: N_4  and  C_5 
REMARK    3  A    between atoms: C_5  and  C_6 
REMARK    4  A    between atoms: C_6  and  C_7 
REMARK    5  A    between atoms: C_6  and  O_16 
REMARK    6  A    between atoms: C_9  and  C_10 
REMARK    7  A    between atoms: C_10  and  O_11 
REMARK    8  A    between atoms: C_12  and  O_13 
ROOT
HETATM    1  C   LIG     1      14.889  29.709  14.203  1.00  0.00    -0.027 A 
HETATM    2  C   LIG     1      13.966  30.056  15.206  1.00  0.00     0.022 A 
HETATM    3  C   LIG     1      14.041  31.298  15.857  1.00  0.00    -0.001 A 
HETATM    4  C   LIG     1      15.067  32.197  15.519  1.00  0.00     0.074 A 
HETATM    5  C   LIG     1      15.984  31.860  14.515  1.00  0.00     0.038 A 
HETATM    6  C   LIG     1      15.896  30.630  13.860  1.00  0.00     0.012 A 
ENDROOT
BRANCH   1   7
HETATM    7  C   LIG     1      14.765  28.356  13.522  1.00  0.00     0.179 C 
BRANCH   7   8
HETATM    8  C   LIG     1      13.367  27.747  13.752  1.00  0.00     0.306 C 
BRANCH   8   9
HETATM    9  N   LIG     1      13.069  26.767  12.693  1.00  0.00     0.094 N 
HETATM   10  H   LIG     1      13.675  27.004  11.873  1.00  0.00     0.317 HD
BRANCH   9  11
HETATM   11  C   LIG     1      11.651  26.722  12.250  1.00  0.00     0.147 C 
HETATM   12  C   LIG     1      10.872  27.985  12.681  1.00  0.00     0.048 C 
HETATM   13  C   LIG     1      10.953  25.457  12.795  1.00  0.00     0.048 C 
HETATM   14  C   LIG     1      11.639  26.641  10.709  1.00  0.00     0.048 C 
ENDBRANCH   9  11
ENDBRANCH   8   9
ENDBRANCH   7   8
BRANCH   7  15
HETATM   15  O   LIG     1      15.780  27.466  13.926  1.00  0.00    -0.389 OA
HETATM   16  H   LIG     1      16.625  27.738  13.481  1.00  0.00     0.210 HD
ENDBRANCH   7  15
ENDBRANCH   1   7
BRANCH   3  17
HETATM   17  C   LIG     1      13.060  31.629  16.953  1.00  0.00     0.205 C 
BRANCH  17  18
HETATM   18  O   LIG     1      13.744  31.914  18.142  1.00  0.00    -0.396 OA
HETATM   19  H   LIG     1      14.694  31.671  17.987  1.00  0.00     0.209 HD
ENDBRANCH  17  18
ENDBRANCH   3  17
BRANCH   4  20
HETATM   20  O   LIG     1      15.174  33.422  16.178  1.00  0.00    -0.360 OA
HETATM   21  H   LIG     1      15.177  34.299  15.671  1.00  0.00     0.217 HD
ENDBRANCH   4  20
TORSDOF 8
ENDMDL
MODEL 14
REMARK VINA RESULT:      -5.6      2.958      6.506
REMARK  8 active torsions:
REMARK  status: ('A' for Active; 'I' for Inactive)
REMARK    1  A    between atoms: C_2  and  N_4 
REMARK    2  A    between atoms: N_4  and  C_5 
REMARK    3  A    between atoms: C_5  and  C_6 
REMARK    4  A    between atoms: C_6  and  C_7 
REMARK    5  A    between atoms: C_6  and  O_16 
REMARK    6  A    between atoms: C_9  and  C_10 
REMARK    7  A    between atoms: C_10  and  O_11 
REMARK    8  A    between atoms: C_12  and  O_13 
ROOT
HETATM    1  C   LIG     1      14.497  31.460  15.690  1.00  0.00    -0.027 A 
HETATM    2  C   LIG     1      15.411  32.525  15.777  1.00  0.00     0.022 A 
HETATM    3  C   LIG     1      16.344  32.762  14.755  1.00  0.00    -0.001 A 
HETATM    4  C   LIG     1      16.379  31.908  13.638  1.00  0.00     0.074 A 
HETATM    5  C   LIG     1      15.465  30.851  13.542  1.00  0.00     0.038 A 
HETATM    6  C   LIG     1      14.530  30.629  14.555  1.00  0.00     0.012 A 
ENDROOT
BRANCH   1   7
HETATM    7  C   LIG     1      13.503  31.246  16.820  1.00  0.00     0.179 C 
BRANCH   7   8
HETATM    8  C   LIG     1      14.227  31.097  18.174  1.00  0.00     0.306 C 
BRANCH   8   9
HETATM    9  N   LIG     1      13.908  32.246  19.039  1.00  0.00     0.094 N 
HETATM   10  H   LIG     1      13.538  33.006  18.420  1.00  0.00     0.317 HD
BRANCH   9  11
HETATM   11  C   LIG     1      15.046  32.779  19.832  1.00  0.00     0.147 C 
HETATM   12  C   LIG     1      14.627  33.132  21.277  1.00  0.00     0.048 C 
HETATM   13  C   LIG     1      15.655  34.018  19.140  1.00  0.00     0.048 C 
HETATM   14  C   LIG     1      16.135  31.687  19.890  1.00  0.00     0.048 C 
ENDBRANCH   9  11
ENDBRANCH   8   9
ENDBRANCH   7   8
BRANCH   7  15
HETATM   15  O   LIG     1      12.652  30.150  16.574  1.00  0.00    -0.389 OA
HETATM   16  H   LIG     1      13.028  29.356  17.037  1.00  0.00     0.210 HD
ENDBRANCH   7  15
ENDBRANCH   1   7
BRANCH   3  17
HETATM   17  C   LIG     1      17.335  33.889  14.892  1.00  0.00     0.205 C 
BRANCH  17  18
HETATM   18  O   LIG     1      16.868  34.831  15.818  1.00  0.00    -0.396 OA
HETATM   19  H   LIG     1      16.612  35.636  15.298  1.00  0.00     0.209 HD
ENDBRANCH  17  18
ENDBRANCH   3  17
BRANCH   4  20
HETATM   20  O   LIG     1      17.319  32.112  12.628  1.00  0.00    -0.360 OA
HETATM   21  H   LIG     1      18.185  32.610  12.801  1.00  0.00     0.217 HD
ENDBRANCH   4  20
TORSDOF 8
ENDMDL
MODEL 15
REMARK VINA RESULT:      -5.5      6.994      9.277
REMARK  8 active torsions:
REMARK  status: ('A' for Active; 'I' for Inactive)
REMARK    1  A    between atoms: C_2  and  N_4 
REMARK    2  A    between atoms: N_4  and  C_5 
REMARK    3  A    between atoms: C_5  and  C_6 
REMARK    4  A    between atoms: C_6  and  C_7 
REMARK    5  A    between atoms: C_6  and  O_16 
REMARK    6  A    between atoms: C_9  and  C_10 
REMARK    7  A    between atoms: C_10  and  O_11 
REMARK    8  A    between atoms: C_12  and  O_13 
ROOT
HETATM    1  C   LIG     1      16.594  35.900  21.476  1.00  0.00    -0.027 A 
HETATM    2  C   LIG     1      16.850  37.163  22.038  1.00  0.00     0.022 A 
HETATM    3  C   LIG     1      17.223  37.292  23.386  1.00  0.00    -0.001 A 
HETATM    4  C   LIG     1      17.319  36.143  24.191  1.00  0.00     0.074 A 
HETATM    5  C   LIG     1      17.073  34.881  23.634  1.00  0.00     0.038 A 
HETATM    6  C   LIG     1      16.717  34.758  22.289  1.00  0.00     0.012 A 
ENDROOT
BRANCH   1   7
HETATM    7  C   LIG     1      16.198  35.810  20.011  1.00  0.00     0.179 C 
BRANCH   7   8
HETATM    8  C   LIG     1      15.542  34.450  19.698  1.00  0.00     0.306 C 
BRANCH   8   9
HETATM    9  N   LIG     1      15.292  34.338  18.250  1.00  0.00     0.094 N 
HETATM   10  H   LIG     1      14.433  34.901  18.040  1.00  0.00     0.317 HD
BRANCH   9  11
HETATM   11  C   LIG     1      15.098  32.954  17.744  1.00  0.00     0.147 C 
HETATM   12  C   LIG     1      13.671  32.737  17.191  1.00  0.00     0.048 C 
HETATM   13  C   LIG     1      15.397  31.924  18.855  1.00  0.00     0.048 C 
HETATM   14  C   LIG     1      16.107  32.723  16.601  1.00  0.00     0.048 C 
ENDBRANCH   9  11
ENDBRANCH   8   9
ENDBRANCH   7   8
BRANCH   7  15
HETATM   15  O   LIG     1      17.287  36.059  19.154  1.00  0.00    -0.389 OA
HETATM   16  H   LIG     1      17.528  37.020  19.229  1.00  0.00     0.210 HD
ENDBRANCH   7  15
ENDBRANCH   1   7
BRANCH   3  17
HETATM   17  C   LIG     1      17.456  38.661  23.970  1.00  0.00     0.205 C 
BRANCH  17  18
HETATM   18  O   LIG     1      16.787  38.782  25.195  1.00  0.00    -0.396 OA
HETATM   19  H   LIG     1      16.811  37.886  25.621  1.00  0.00     0.209 HD
ENDBRANCH  17  18
ENDBRANCH   3  17
BRANCH   4  20
HETATM   20  O   LIG     1      17.658  36.256  25.539  1.00  0.00    -0.360 OA
HETATM   21  H   LIG     1      17.665  35.451  26.154  1.00  0.00     0.217 HD
ENDBRANCH   4  20
TORSDOF 8
ENDMDL
MODEL 16
REMARK VINA RESULT:      -5.4      1.401      2.097
REMARK  8 active torsions:
REMARK  status: ('A' for Active; 'I' for Inactive)
REMARK    1  A    between atoms: C_2  and  N_4 
REMARK    2  A    between atoms: N_4  and  C_5 
REMARK    3  A    between atoms: C_5  and  C_6 
REMARK    4  A    between atoms: C_6  and  C_7 
REMARK    5  A    between atoms: C_6  and  O_16 
REMARK    6  A    between atoms: C_9  and  C_10 
REMARK    7  A    between atoms: C_10  and  O_11 
REMARK    8  A    between atoms: C_12  and  O_13 
ROOT
HETATM    1  C   LIG     1      16.531  32.786  14.723  1.00  0.00    -0.027 A 
HETATM    2  C   LIG     1      15.580  31.750  14.763  1.00  0.00     0.022 A 
HETATM    3  C   LIG     1      14.580  31.726  15.749  1.00  0.00    -0.001 A 
HETATM    4  C   LIG     1      14.543  32.739  16.724  1.00  0.00     0.074 A 
HETATM    5  C   LIG     1      15.482  33.777  16.683  1.00  0.00     0.038 A 
HETATM    6  C   LIG     1      16.465  33.804  15.692  1.00  0.00     0.012 A 
ENDROOT
BRANCH   1   7
HETATM    7  C   LIG     1      17.591  32.773  13.634  1.00  0.00     0.179 C 
BRANCH   7   8
HETATM    8  C   LIG     1      17.942  34.206  13.187  1.00  0.00     0.306 C 
BRANCH   8   9
HETATM    9  N   LIG     1      18.144  34.238  11.728  1.00  0.00     0.094 N 
HETATM   10  H   LIG     1      17.620  33.426  11.325  1.00  0.00     0.317 HD
BRANCH   9  11
HETATM   11  C   LIG     1      19.560  34.169  11.281  1.00  0.00     0.147 C 
HETATM   12  C   LIG     1      20.545  34.334  12.460  1.00  0.00     0.048 C 
HETATM   13  C   LIG     1      19.841  35.239  10.203  1.00  0.00     0.048 C 
HETATM   14  C   LIG     1      19.788  32.783  10.642  1.00  0.00     0.048 C 
ENDBRANCH   9  11
ENDBRANCH   8   9
ENDBRANCH   7   8
BRANCH   7  15
HETATM   15  O   LIG     1      17.211  31.975  12.537  1.00  0.00    -0.389 OA
HETATM   16  H   LIG     1      18.034  31.600  12.126  1.00  0.00     0.210 HD
ENDBRANCH   7  15
ENDBRANCH   1   7
BRANCH   3  17
HETATM   17  C   LIG     1      13.597  30.584  15.790  1.00  0.00     0.205 C 
BRANCH  17  18
HETATM   18  O   LIG     1      13.334  30.222  17.117  1.00  0.00    -0.396 OA
HETATM   19  H   LIG     1      14.192  29.902  17.499  1.00  0.00     0.209 HD
ENDBRANCH  17  18
ENDBRANCH   3  17
BRANCH   4  20
HETATM   20  O   LIG     1      13.575  32.712  17.728  1.00  0.00    -0.360 OA
HETATM   21  H   LIG     1      12.679  32.259  17.589  1.00  0.00     0.217 HD
ENDBRANCH   4  20
TORSDOF 8
ENDMDL
MODEL 17
REMARK VINA RESULT:      -5.2      5.406      8.111
REMARK  8 active torsions:
REMARK  status: ('A' for Active; 'I' for Inactive)
REMARK    1  A    between atoms: C_2  and  N_4 
REMARK    2  A    between atoms: N_4  and  C_5 
REMARK    3  A    between atoms: C_5  and  C_6 
REMARK    4  A    between atoms: C_6  and  C_7 
REMARK    5  A    between atoms: C_6  and  O_16 
REMARK    6  A    between atoms: C_9  and  C_10 
REMARK    7  A    between atoms: C_10  and  O_11 
REMARK    8  A    between atoms: C_12  and  O_13 
ROOT
HETATM    1  C   LIG     1      15.758  34.749  19.909  1.00  0.00    -0.027 A 
HETATM    2  C   LIG     1      16.697  35.790  19.811  1.00  0.00     0.022 A 
HETATM    3  C   LIG     1      17.242  36.382  20.963  1.00  0.00    -0.001 A 
HETATM    4  C   LIG     1      16.824  35.942  22.231  1.00  0.00     0.074 A 
HETATM    5  C   LIG     1      15.895  34.899  22.334  1.00  0.00     0.038 A 
HETATM    6  C   LIG     1      15.368  34.304  21.186  1.00  0.00     0.012 A 
ENDROOT
BRANCH   1   7
HETATM    7  C   LIG     1      15.200  34.136  18.634  1.00  0.00     0.179 C 
BRANCH   7   8
HETATM    8  C   LIG     1      15.378  32.603  18.634  1.00  0.00     0.306 C 
BRANCH   8   9
HETATM    9  N   LIG     1      14.081  31.950  18.389  1.00  0.00     0.094 N 
HETATM   10  H   LIG     1      14.107  31.021  18.873  1.00  0.00     0.317 HD
BRANCH   9  11
HETATM   11  C   LIG     1      13.734  31.741  16.959  1.00  0.00     0.147 C 
HETATM   12  C   LIG     1      14.962  31.919  16.037  1.00  0.00     0.048 C 
HETATM   13  C   LIG     1      12.605  32.702  16.529  1.00  0.00     0.048 C 
HETATM   14  C   LIG     1      13.211  30.298  16.805  1.00  0.00     0.048 C 
ENDBRANCH   9  11
ENDBRANCH   8   9
ENDBRANCH   7   8
BRANCH   7  15
HETATM   15  O   LIG     1      15.763  34.714  17.480  1.00  0.00    -0.389 OA
HETATM   16  H   LIG     1      15.084  35.312  17.070  1.00  0.00     0.210 HD
ENDBRANCH   7  15
ENDBRANCH   1   7
BRANCH   3  17
HETATM   17  C   LIG     1      18.219  37.522  20.828  1.00  0.00     0.205 C 
BRANCH  17  18
HETATM   18  O   LIG     1      17.718  38.664  21.465  1.00  0.00    -0.396 OA
HETATM   19  H   LIG     1      18.078  38.654  22.390  1.00  0.00     0.209 HD
ENDBRANCH  17  18
ENDBRANCH   3  17
BRANCH   4  20
HETATM   20  O   LIG     1      17.332  36.540  23.384  1.00  0.00    -0.360 OA
HETATM   21  H   LIG     1      16.899  37.361  23.791  1.00  0.00     0.217 HD
ENDBRANCH   4  20
TORSDOF 8
ENDMDL
MODEL 18
REMARK VINA RESULT:      -5.1      6.403      8.231
REMARK  8 active torsions:
REMARK  status: ('A' for Active; 'I' for Inactive)
REMARK    1  A    between atoms: C_2  and  N_4 
REMARK    2  A    between atoms: N_4  and  C_5 
REMARK    3  A    between atoms: C_5  and  C_6 
REMARK    4  A    between atoms: C_6  and  C_7 
REMARK    5  A    between atoms: C_6  and  O_16 
REMARK    6  A    between atoms: C_9  and  C_10 
REMARK    7  A    between atoms: C_10  and  O_11 
REMARK    8  A    between atoms: C_12  and  O_13 
ROOT
HETATM    1  C   LIG     1      15.739  34.463  20.502  1.00  0.00    -0.027 A 
HETATM    2  C   LIG     1      15.368  33.107  20.496  1.00  0.00     0.022 A 
HETATM    3  C   LIG     1      15.042  32.452  19.297  1.00  0.00    -0.001 A 
HETATM    4  C   LIG     1      15.065  33.170  18.088  1.00  0.00     0.074 A 
HETATM    5  C   LIG     1      15.443  34.519  18.087  1.00  0.00     0.038 A 
HETATM    6  C   LIG     1      15.780  35.160  19.281  1.00  0.00     0.012 A 
ENDROOT
BRANCH   1   7
HETATM    7  C   LIG     1      16.088  35.126  21.824  1.00  0.00     0.179 C 
BRANCH   7   8
HETATM    8  C   LIG     1      16.110  36.662  21.684  1.00  0.00     0.306 C 
BRANCH   8   9
HETATM    9  N   LIG     1      17.483  37.161  21.874  1.00  0.00     0.094 N 
HETATM   10  H   LIG     1      17.998  36.442  22.435  1.00  0.00     0.317 HD
BRANCH   9  11
HETATM   11  C   LIG     1      17.592  38.476  22.559  1.00  0.00     0.147 C 
HETATM   12  C   LIG     1      18.485  39.463  21.773  1.00  0.00     0.048 C 
HETATM   13  C   LIG     1      18.135  38.297  23.993  1.00  0.00     0.048 C 
HETATM   14  C   LIG     1      16.173  39.075  22.662  1.00  0.00     0.048 C 
ENDBRANCH   9  11
ENDBRANCH   8   9
ENDBRANCH   7   8
BRANCH   7  15
HETATM   15  O   LIG     1      17.302  34.646  22.352  1.00  0.00    -0.389 OA
HETATM   16  H   LIG     1      17.751  34.103  21.652  1.00  0.00     0.210 HD
ENDBRANCH   7  15
ENDBRANCH   1   7
BRANCH   3  17
HETATM   17  C   LIG     1      14.612  31.008  19.325  1.00  0.00     0.205 C 
BRANCH  17  18
HETATM   18  O   LIG     1      14.934  30.434  20.562  1.00  0.00    -0.396 OA
HETATM   19  H   LIG     1      14.073  30.252  21.022  1.00  0.00     0.209 HD
ENDBRANCH  17  18
ENDBRANCH   3  17
BRANCH   4  20
HETATM   20  O   LIG     1      14.715  32.543  16.892  1.00  0.00    -0.360 OA
HETATM   21  H   LIG     1      13.833  32.054  16.788  1.00  0.00     0.217 HD
ENDBRANCH   4  20
TORSDOF 8
ENDMDL
MODEL 19
REMARK VINA RESULT:      -4.8      3.199      4.921
REMARK  8 active torsions:
REMARK  status: ('A' for Active; 'I' for Inactive)
REMARK    1  A    between atoms: C_2  and  N_4 
REMARK    2  A    between atoms: N_4  and  C_5 
REMARK    3  A    between atoms: C_5  and  C_6 
REMARK    4  A    between atoms: C_6  and  C_7 
REMARK    5  A    between atoms: C_6  and  O_16 
REMARK    6  A    between atoms: C_9  and  C_10 
REMARK    7  A    between atoms: C_10  and  O_11 
REMARK    8  A    between atoms: C_12  and  O_13 
ROOT
HETATM    1  C   LIG     1      15.327  29.940  14.082  1.00  0.00    -0.027 A 
HETATM    2  C   LIG     1      13.934  30.129  14.125  1.00  0.00     0.022 A 
HETATM    3  C   LIG     1      13.052  29.044  13.988  1.00  0.00    -0.001 A 
HETATM    4  C   LIG     1      13.570  27.753  13.782  1.00  0.00     0.074 A 
HETATM    5  C   LIG     1      14.956  27.557  13.748  1.00  0.00     0.038 A 
HETATM    6  C   LIG     1      15.828  28.638  13.900  1.00  0.00     0.012 A 
ENDROOT
BRANCH   1   7
HETATM    7  C   LIG     1      16.241  31.143  14.241  1.00  0.00     0.179 C 
BRANCH   7   8
HETATM    8  C   LIG     1      15.544  32.267  15.036  1.00  0.00     0.306 C 
BRANCH   8   9
HETATM    9  N   LIG     1      15.938  32.194  16.453  1.00  0.00     0.094 N 
HETATM   10  H   LIG     1      16.134  31.188  16.669  1.00  0.00     0.317 HD
BRANCH   9  11
HETATM   11  C   LIG     1      14.934  32.710  17.419  1.00  0.00     0.147 C 
HETATM   12  C   LIG     1      15.332  32.407  18.882  1.00  0.00     0.048 C 
HETATM   13  C   LIG     1      13.539  32.119  17.117  1.00  0.00     0.048 C 
HETATM   14  C   LIG     1      14.848  34.240  17.242  1.00  0.00     0.048 C 
ENDBRANCH   9  11
ENDBRANCH   8   9
ENDBRANCH   7   8
BRANCH   7  15
HETATM   15  O   LIG     1      16.713  31.615  13.001  1.00  0.00    -0.389 OA
HETATM   16  H   LIG     1      16.017  31.435  12.315  1.00  0.00     0.210 HD
ENDBRANCH   7  15
ENDBRANCH   1   7
BRANCH   3  17
HETATM   17  C   LIG     1      11.564  29.283  14.000  1.00  0.00     0.205 C 
BRANCH  17  18
HETATM   18  O   LIG     1      10.961  28.622  12.922  1.00  0.00    -0.396 OA
HETATM   19  H   LIG     1      11.586  28.703  12.155  1.00  0.00     0.209 HD
ENDBRANCH  17  18
ENDBRANCH   3  17
BRANCH   4  20
HETATM   20  O   LIG     1      12.708  26.670  13.613  1.00  0.00    -0.360 OA
HETATM   21  H   LIG     1      12.319  26.437  12.707  1.00  0.00     0.217 HD
ENDBRANCH   4  20
TORSDOF 8
ENDMDL
MODEL 20
REMARK VINA RESULT:      -4.6      7.526      9.475
REMARK  8 active torsions:
REMARK  status: ('A' for Active; 'I' for Inactive)
REMARK    1  A    between atoms: C_2  and  N_4 
REMARK    2  A    between atoms: N_4  and  C_5 
REMARK    3  A    between atoms: C_5  and  C_6 
REMARK    4  A    between atoms: C_6  and  C_7 
REMARK    5  A    between atoms: C_6  and  O_16 
REMARK    6  A    between atoms: C_9  and  C_10 
REMARK    7  A    between atoms: C_10  and  O_11 
REMARK    8  A    between atoms: C_12  and  O_13 
ROOT
HETATM    1  C   LIG     1      15.897  35.349  21.079  1.00  0.00    -0.027 A 
HETATM    2  C   LIG     1      15.919  35.419  19.675  1.00  0.00     0.022 A 
HETATM    3  C   LIG     1      15.436  34.359  18.891  1.00  0.00    -0.001 A 
HETATM    4  C   LIG     1      14.944  33.201  19.519  1.00  0.00     0.074 A 
HETATM    5  C   LIG     1      14.912  33.129  20.917  1.00  0.00     0.038 A 
HETATM    6  C   LIG     1      15.380  34.193  21.692  1.00  0.00     0.012 A 
ENDROOT
BRANCH   1   7
HETATM    7  C   LIG     1      16.426  36.524  21.885  1.00  0.00     0.179 C 
BRANCH   7   8
HETATM    8  C   LIG     1      17.112  36.042  23.180  1.00  0.00     0.306 C 
BRANCH   8   9
HETATM    9  N   LIG     1      16.663  36.862  24.318  1.00  0.00     0.094 N 
HETATM   10  H   LIG     1      16.072  37.635  23.928  1.00  0.00     0.317 HD
BRANCH   9  11
HETATM   11  C   LIG     1      17.749  37.454  25.143  1.00  0.00     0.147 C 
HETATM   12  C   LIG     1      18.467  36.388  26.001  1.00  0.00     0.048 C 
HETATM   13  C   LIG     1      17.193  38.576  26.047  1.00  0.00     0.048 C 
HETATM   14  C   LIG     1      18.780  38.086  24.185  1.00  0.00     0.048 C 
ENDBRANCH   9  11
ENDBRANCH   8   9
ENDBRANCH   7   8
BRANCH   7  15
HETATM   15  O   LIG     1      15.420  37.469  22.164  1.00  0.00    -0.389 OA
HETATM   16  H   LIG     1      14.847  37.559  21.357  1.00  0.00     0.210 HD
ENDBRANCH   7  15
ENDBRANCH   1   7
BRANCH   3  17
HETATM   17  C   LIG     1      15.506  34.447  17.388  1.00  0.00     0.205 C 
BRANCH  17  18
HETATM   18  O   LIG     1      14.222  34.343  16.839  1.00  0.00    -0.396 OA
HETATM   19  H   LIG     1      13.996  35.238  16.473  1.00  0.00     0.209 HD
ENDBRANCH  17  18
ENDBRANCH   3  17
BRANCH   4  20
HETATM   20  O   LIG     1      14.490  32.128  18.754  1.00  0.00    -0.360 OA
HETATM   21  H   LIG     1      13.627  32.180  18.225  1.00  0.00     0.217 HD
ENDBRANCH   4  20
TORSDOF 8
ENDMDL
