REMARK  8 active torsions:
REMARK  status: ('A' for Active; 'I' for Inactive)
REMARK    1  A    between atoms: C_2  and  N_4 
REMARK    2  A    between atoms: N_4  and  C_5 
REMARK    3  A    between atoms: C_5  and  C_6 
REMARK    4  A    between atoms: C_6  and  C_7 
REMARK    5  A    between atoms: C_6  and  O_16 
REMARK    6  A    between atoms: C_9  and  C_10 
REMARK    7  A    between atoms: C_10  and  O_11 
REMARK    8  A    between atoms: C_12  and  O_13 
ROOT
HETATM    1  C   LIG     1       1.573  -0.740  -0.618  1.00  0.00    -0.027 A 
HETATM    2  C   LIG     1       2.207   0.515  -0.606  1.00  0.00     0.022 A 
HETATM    3  C   LIG     1       3.503   0.665  -0.086  1.00  0.00    -0.001 A 
HETATM    4  C   LIG     1       4.167  -0.452   0.451  1.00  0.00     0.074 A 
HETATM    5  C   LIG     1       3.544  -1.706   0.434  1.00  0.00     0.038 A 
HETATM    6  C   LIG     1       2.261  -1.852  -0.098  1.00  0.00     0.012 A 
ENDROOT
BRANCH   1   7
HETATM    7  C   LIG     1       0.172  -0.854  -1.196  1.00  0.00     0.179 C 
BRANCH   7   8
HETATM    8  C   LIG     1      -0.861  -0.161  -0.284  1.00  0.00     0.306 C 
BRANCH   8   9
HETATM    9  N   LIG     1      -2.207  -0.285  -0.870  1.00  0.00     0.094 N 
HETATM   10  H   LIG     1      -2.235   0.335  -1.714  1.00  0.00     0.317 HD
BRANCH   9  11
HETATM   11  C   LIG     1      -3.329   0.078   0.034  1.00  0.00     0.147 C 
HETATM   12  C   LIG     1      -3.158   1.496   0.625  1.00  0.00     0.048 C 
HETATM   13  C   LIG     1      -3.465  -0.957   1.172  1.00  0.00     0.048 C 
HETATM   14  C   LIG     1      -4.632   0.046  -0.792  1.00  0.00     0.048 C 
ENDBRANCH   9  11
ENDBRANCH   8   9
ENDBRANCH   7   8
BRANCH   7  15
HETATM   15  O   LIG     1      -0.188  -2.192  -1.448  1.00  0.00    -0.389 OA
HETATM   16  H   LIG     1      -0.442  -2.613  -0.585  1.00  0.00     0.210 HD
ENDBRANCH   7  15
ENDBRANCH   1   7
BRANCH   3  17
HETATM   17  C   LIG     1       4.143   2.029  -0.053  1.00  0.00     0.205 C 
BRANCH  17  18
HETATM   18  O   LIG     1       4.018   2.589   1.225  1.00  0.00    -0.396 OA
HETATM   19  H   LIG     1       3.075   2.886   1.313  1.00  0.00     0.209 HD
ENDBRANCH  17  18
ENDBRANCH   3  17
BRANCH   4  20
HETATM   20  O   LIG     1       5.442  -0.314   0.999  1.00  0.00    -0.360 OA
HETATM   21  H   LIG     1       5.940  -1.105   1.391  1.00  0.00     0.217 HD
ENDBRANCH   4  20
TORSDOF 8
