MODEL 1
REMARK VINA RESULT:      -5.0      0.000      0.000
REMARK  0 active torsions:
REMARK  status: ('A' for Active; 'I' for Inactive)
ROOT
HETATM    1  N   LIG     1      20.515  39.284  19.367  1.00  0.00    -0.191 NA
HETATM    2  C   LIG     1      19.659  38.671  19.847  1.00  0.00     0.103 C 
HETATM    3  C   LIG     1      18.591  37.904  20.447  1.00  0.00     0.091 A 
HETATM    4  C   LIG     1      17.913  36.930  19.690  1.00  0.00     0.080 A 
HETATM    5 CL   LIG     1      18.368  36.640  18.006  1.00  0.00    -0.081 Cl
HETATM    6  C   LIG     1      16.874  36.184  20.273  1.00  0.00     0.080 A 
HETATM    7 CL   LIG     1      16.026  34.962  19.323  1.00  0.00    -0.081 Cl
HETATM    8  C   LIG     1      16.510  36.411  21.613  1.00  0.00     0.080 A 
HETATM    9 CL   LIG     1      15.202  35.470  22.340  1.00  0.00    -0.081 Cl
HETATM   10  C   LIG     1      17.187  37.385  22.370  1.00  0.00     0.091 A 
HETATM   11  C   LIG     1      16.813  37.618  23.745  1.00  0.00     0.103 C 
HETATM   12  N   LIG     1      16.512  37.805  24.848  1.00  0.00    -0.191 NA
HETATM   13  C   LIG     1      18.228  38.132  21.787  1.00  0.00     0.079 A 
HETATM   14 CL   LIG     1      19.079  39.358  22.739  1.00  0.00    -0.081 Cl
ENDROOT
TORSDOF 0
ENDMDL
MODEL 2
REMARK VINA RESULT:      -4.9      6.716      8.866
REMARK  0 active torsions:
REMARK  status: ('A' for Active; 'I' for Inactive)
ROOT
HETATM    1  N   LIG     1      15.342  34.862  18.301  1.00  0.00    -0.191 NA
HETATM    2  C   LIG     1      15.402  34.113  17.421  1.00  0.00     0.103 C 
HETATM    3  C   LIG     1      15.478  33.178  16.321  1.00  0.00     0.091 A 
HETATM    4  C   LIG     1      14.629  32.056  16.293  1.00  0.00     0.080 A 
HETATM    5 CL   LIG     1      13.467  31.789  17.600  1.00  0.00    -0.081 Cl
HETATM    6  C   LIG     1      14.701  31.146  15.224  1.00  0.00     0.080 A 
HETATM    7 CL   LIG     1      13.636  29.740  15.188  1.00  0.00    -0.081 Cl
HETATM    8  C   LIG     1      15.624  31.357  14.182  1.00  0.00     0.080 A 
HETATM    9 CL   LIG     1      15.711  30.209  12.840  1.00  0.00    -0.081 Cl
HETATM   10  C   LIG     1      16.473  32.478  14.210  1.00  0.00     0.091 A 
HETATM   11  C   LIG     1      17.419  32.693  13.141  1.00  0.00     0.103 C 
HETATM   12  N   LIG     1      18.178  32.866  12.284  1.00  0.00    -0.191 NA
HETATM   13  C   LIG     1      16.400  33.390  15.280  1.00  0.00     0.079 A 
HETATM   14 CL   LIG     1      17.469  34.801  15.317  1.00  0.00    -0.081 Cl
ENDROOT
TORSDOF 0
ENDMDL
MODEL 3
REMARK VINA RESULT:      -4.8      0.366      4.058
REMARK  0 active torsions:
REMARK  status: ('A' for Active; 'I' for Inactive)
ROOT
HETATM    1  N   LIG     1      16.822  38.250  25.031  1.00  0.00    -0.191 NA
HETATM    2  C   LIG     1      17.067  37.983  23.932  1.00  0.00     0.103 C 
HETATM    3  C   LIG     1      17.375  37.651  22.559  1.00  0.00     0.091 A 
HETATM    4  C   LIG     1      16.684  36.606  21.917  1.00  0.00     0.080 A 
HETATM    5 CL   LIG     1      15.438  35.700  22.786  1.00  0.00    -0.081 Cl
HETATM    6  C   LIG     1      16.982  36.282  20.582  1.00  0.00     0.080 A 
HETATM    7 CL   LIG     1      16.114  34.973  19.777  1.00  0.00    -0.081 Cl
HETATM    8  C   LIG     1      17.971  37.002  19.887  1.00  0.00     0.080 A 
HETATM    9 CL   LIG     1      18.342  36.590  18.209  1.00  0.00    -0.081 Cl
HETATM   10  C   LIG     1      18.662  38.046  20.529  1.00  0.00     0.091 A 
HETATM   11  C   LIG     1      19.678  38.784  19.815  1.00  0.00     0.103 C 
HETATM   12  N   LIG     1      20.493  39.375  19.243  1.00  0.00    -0.191 NA
HETATM   13  C   LIG     1      18.364  38.371  21.866  1.00  0.00     0.079 A 
HETATM   14 CL   LIG     1      19.234  39.685  22.673  1.00  0.00    -0.081 Cl
ENDROOT
TORSDOF 0
ENDMDL
MODEL 4
REMARK VINA RESULT:      -4.6      2.066      4.604
REMARK  0 active torsions:
REMARK  status: ('A' for Active; 'I' for Inactive)
ROOT
HETATM    1  N   LIG     1      15.726  34.231  19.042  1.00  0.00    -0.191 NA
HETATM    2  C   LIG     1      16.236  35.057  19.671  1.00  0.00     0.103 C 
HETATM    3  C   LIG     1      16.874  36.089  20.456  1.00  0.00     0.091 A 
HETATM    4  C   LIG     1      16.499  36.284  21.799  1.00  0.00     0.080 A 
HETATM    5 CL   LIG     1      15.249  35.267  22.528  1.00  0.00    -0.081 Cl
HETATM    6  C   LIG     1      17.118  37.288  22.564  1.00  0.00     0.080 A 
HETATM    7 CL   LIG     1      16.648  37.531  24.247  1.00  0.00    -0.081 Cl
HETATM    8  C   LIG     1      18.113  38.099  21.987  1.00  0.00     0.080 A 
HETATM    9 CL   LIG     1      18.889  39.359  22.954  1.00  0.00    -0.081 Cl
HETATM   10  C   LIG     1      18.489  37.904  20.645  1.00  0.00     0.091 A 
HETATM   11  C   LIG     1      19.510  38.737  20.054  1.00  0.00     0.103 C 
HETATM   12  N   LIG     1      20.329  39.405  19.580  1.00  0.00    -0.191 NA
HETATM   13  C   LIG     1      17.869  36.899  19.879  1.00  0.00     0.079 A 
HETATM   14 CL   LIG     1      18.341  36.655  18.190  1.00  0.00    -0.081 Cl
ENDROOT
TORSDOF 0
ENDMDL
MODEL 5
REMARK VINA RESULT:      -4.6      2.076      3.661
REMARK  0 active torsions:
REMARK  status: ('A' for Active; 'I' for Inactive)
ROOT
HETATM    1  N   LIG     1      20.383  39.376  19.594  1.00  0.00    -0.191 NA
HETATM    2  C   LIG     1      19.556  38.709  20.050  1.00  0.00     0.103 C 
HETATM    3  C   LIG     1      18.521  37.874  20.618  1.00  0.00     0.091 A 
HETATM    4  C   LIG     1      18.149  38.036  21.966  1.00  0.00     0.080 A 
HETATM    5 CL   LIG     1      18.945  39.259  22.966  1.00  0.00    -0.081 Cl
HETATM    6  C   LIG     1      17.144  37.225  22.520  1.00  0.00     0.080 A 
HETATM    7 CL   LIG     1      16.678  37.428  24.210  1.00  0.00    -0.081 Cl
HETATM    8  C   LIG     1      16.509  36.251  21.728  1.00  0.00     0.080 A 
HETATM    9 CL   LIG     1      15.244  35.234  22.430  1.00  0.00    -0.081 Cl
HETATM   10  C   LIG     1      16.879  36.090  20.380  1.00  0.00     0.091 A 
HETATM   11  C   LIG     1      16.227  35.090  19.567  1.00  0.00     0.103 C 
HETATM   12  N   LIG     1      15.704  34.288  18.916  1.00  0.00    -0.191 NA
HETATM   13  C   LIG     1      17.886  36.901  19.825  1.00  0.00     0.079 A 
HETATM   14 CL   LIG     1      18.354  36.698  18.129  1.00  0.00    -0.081 Cl
ENDROOT
TORSDOF 0
ENDMDL
MODEL 6
REMARK VINA RESULT:      -4.5      2.150      3.697
REMARK  0 active torsions:
REMARK  status: ('A' for Active; 'I' for Inactive)
ROOT
HETATM    1  N   LIG     1      16.111  33.736  20.418  1.00  0.00    -0.191 NA
HETATM    2  C   LIG     1      16.558  34.749  20.751  1.00  0.00     0.103 C 
HETATM    3  C   LIG     1      17.115  36.017  21.168  1.00  0.00     0.091 A 
HETATM    4  C   LIG     1      17.805  36.820  20.240  1.00  0.00     0.080 A 
HETATM    5 CL   LIG     1      17.990  36.282  18.565  1.00  0.00    -0.081 Cl
HETATM    6  C   LIG     1      18.348  38.052  20.644  1.00  0.00     0.080 A 
HETATM    7 CL   LIG     1      19.212  39.059  19.480  1.00  0.00    -0.081 Cl
HETATM    8  C   LIG     1      18.203  38.482  21.975  1.00  0.00     0.080 A 
HETATM    9 CL   LIG     1      18.888  40.033  22.477  1.00  0.00    -0.081 Cl
HETATM   10  C   LIG     1      17.513  37.680  22.902  1.00  0.00     0.091 A 
HETATM   11  C   LIG     1      17.364  38.123  24.269  1.00  0.00     0.103 C 
HETATM   12  N   LIG     1      17.245  38.478  25.365  1.00  0.00    -0.191 NA
HETATM   13  C   LIG     1      16.969  36.446  22.499  1.00  0.00     0.079 A 
HETATM   14 CL   LIG     1      16.102  35.435  23.666  1.00  0.00    -0.081 Cl
ENDROOT
TORSDOF 0
ENDMDL
MODEL 7
REMARK VINA RESULT:      -4.4      7.553      9.848
REMARK  0 active torsions:
REMARK  status: ('A' for Active; 'I' for Inactive)
ROOT
HETATM    1  N   LIG     1      13.162  28.958  14.693  1.00  0.00    -0.191 NA
HETATM    2  C   LIG     1      13.828  29.895  14.828  1.00  0.00     0.103 C 
HETATM    3  C   LIG     1      14.662  31.064  14.995  1.00  0.00     0.091 A 
HETATM    4  C   LIG     1      14.481  31.901  16.113  1.00  0.00     0.080 A 
HETATM    5 CL   LIG     1      13.239  31.524  17.313  1.00  0.00    -0.081 Cl
HETATM    6  C   LIG     1      15.291  33.038  16.276  1.00  0.00     0.080 A 
HETATM    7 CL   LIG     1      15.066  34.087  17.678  1.00  0.00    -0.081 Cl
HETATM    8  C   LIG     1      16.281  33.341  15.323  1.00  0.00     0.080 A 
HETATM    9 CL   LIG     1      17.296  34.773  15.534  1.00  0.00    -0.081 Cl
HETATM   10  C   LIG     1      16.461  32.505  14.207  1.00  0.00     0.091 A 
HETATM   11  C   LIG     1      17.477  32.816  13.228  1.00  0.00     0.103 C 
HETATM   12  N   LIG     1      18.291  33.066  12.444  1.00  0.00    -0.191 NA
HETATM   13  C   LIG     1      15.651  31.365  14.042  1.00  0.00     0.079 A 
HETATM   14 CL   LIG     1      15.876  30.313  12.636  1.00  0.00    -0.081 Cl
ENDROOT
TORSDOF 0
ENDMDL
MODEL 8
REMARK VINA RESULT:      -4.3      7.154      8.870
REMARK  0 active torsions:
REMARK  status: ('A' for Active; 'I' for Inactive)
ROOT
HETATM    1  N   LIG     1      13.230  29.161  14.890  1.00  0.00    -0.191 NA
HETATM    2  C   LIG     1      13.921  30.086  14.959  1.00  0.00     0.103 C 
HETATM    3  C   LIG     1      14.784  31.242  15.046  1.00  0.00     0.091 A 
HETATM    4  C   LIG     1      15.713  31.505  14.021  1.00  0.00     0.080 A 
HETATM    5 CL   LIG     1      15.824  30.424  12.626  1.00  0.00    -0.081 Cl
HETATM    6  C   LIG     1      16.553  32.629  14.105  1.00  0.00     0.080 A 
HETATM    7 CL   LIG     1      17.717  32.958  12.820  1.00  0.00    -0.081 Cl
HETATM    8  C   LIG     1      16.467  33.491  15.214  1.00  0.00     0.080 A 
HETATM    9 CL   LIG     1      17.527  34.903  15.314  1.00  0.00    -0.081 Cl
HETATM   10  C   LIG     1      15.539  33.229  16.238  1.00  0.00     0.091 A 
HETATM   11  C   LIG     1      15.451  34.114  17.376  1.00  0.00     0.103 C 
HETATM   12  N   LIG     1      15.381  34.824  18.288  1.00  0.00    -0.191 NA
HETATM   13  C   LIG     1      14.697  32.104  16.155  1.00  0.00     0.079 A 
HETATM   14 CL   LIG     1      13.530  31.773  17.445  1.00  0.00    -0.081 Cl
ENDROOT
TORSDOF 0
ENDMDL
MODEL 9
REMARK VINA RESULT:      -3.7     16.301     16.357
REMARK  0 active torsions:
REMARK  status: ('A' for Active; 'I' for Inactive)
ROOT
HETATM    1  N   LIG     1      28.371  24.659  20.062  1.00  0.00    -0.191 NA
HETATM    2  C   LIG     1      27.416  24.123  20.434  1.00  0.00     0.103 C 
HETATM    3  C   LIG     1      26.222  23.453  20.900  1.00  0.00     0.091 A 
HETATM    4  C   LIG     1      25.226  23.073  19.981  1.00  0.00     0.080 A 
HETATM    5 CL   LIG     1      25.432  23.412  18.257  1.00  0.00    -0.081 Cl
HETATM    6  C   LIG     1      24.065  22.422  20.432  1.00  0.00     0.080 A 
HETATM    7 CL   LIG     1      22.816  21.945  19.280  1.00  0.00    -0.081 Cl
HETATM    8  C   LIG     1      23.898  22.151  21.803  1.00  0.00     0.080 A 
HETATM    9 CL   LIG     1      22.435  21.332  22.365  1.00  0.00    -0.081 Cl
HETATM   10  C   LIG     1      24.893  22.530  22.721  1.00  0.00     0.091 A 
HETATM   11  C   LIG     1      24.721  22.252  24.128  1.00  0.00     0.103 C 
HETATM   12  N   LIG     1      24.583  22.028  25.256  1.00  0.00    -0.191 NA
HETATM   13  C   LIG     1      26.057  23.182  22.270  1.00  0.00     0.079 A 
HETATM   14 CL   LIG     1      27.310  23.661  23.426  1.00  0.00    -0.081 Cl
ENDROOT
TORSDOF 0
ENDMDL
MODEL 10
REMARK VINA RESULT:      -3.7     16.288     16.841
REMARK  0 active torsions:
REMARK  status: ('A' for Active; 'I' for Inactive)
ROOT
HETATM    1  N   LIG     1      24.608  21.990  25.247  1.00  0.00    -0.191 NA
HETATM    2  C   LIG     1      24.738  22.225  24.122  1.00  0.00     0.103 C 
HETATM    3  C   LIG     1      24.901  22.519  22.716  1.00  0.00     0.091 A 
HETATM    4  C   LIG     1      23.903  22.141  21.798  1.00  0.00     0.080 A 
HETATM    5 CL   LIG     1      22.449  21.308  22.362  1.00  0.00    -0.081 Cl
HETATM    6  C   LIG     1      24.061  22.426  20.431  1.00  0.00     0.080 A 
HETATM    7 CL   LIG     1      22.810  21.953  19.281  1.00  0.00    -0.081 Cl
HETATM    8  C   LIG     1      25.217  23.090  19.980  1.00  0.00     0.080 A 
HETATM    9 CL   LIG     1      25.410  23.446  18.259  1.00  0.00    -0.081 Cl
HETATM   10  C   LIG     1      26.214  23.468  20.897  1.00  0.00     0.091 A 
HETATM   11  C   LIG     1      27.401  24.149  20.432  1.00  0.00     0.103 C 
HETATM   12  N   LIG     1      28.352  24.694  20.060  1.00  0.00    -0.191 NA
HETATM   13  C   LIG     1      26.057  23.182  22.266  1.00  0.00     0.079 A 
HETATM   14 CL   LIG     1      27.313  23.658  23.421  1.00  0.00    -0.081 Cl
ENDROOT
TORSDOF 0
ENDMDL
MODEL 11
REMARK VINA RESULT:      -3.6     16.356     16.733
REMARK  0 active torsions:
REMARK  status: ('A' for Active; 'I' for Inactive)
ROOT
HETATM    1  N   LIG     1      28.468  25.040  20.436  1.00  0.00    -0.191 NA
HETATM    2  C   LIG     1      27.542  24.399  20.701  1.00  0.00     0.103 C 
HETATM    3  C   LIG     1      26.385  23.598  21.031  1.00  0.00     0.091 A 
HETATM    4  C   LIG     1      26.135  23.243  22.370  1.00  0.00     0.080 A 
HETATM    5 CL   LIG     1      27.233  23.776  23.649  1.00  0.00    -0.081 Cl
HETATM    6  C   LIG     1      25.010  22.464  22.692  1.00  0.00     0.080 A 
HETATM    7 CL   LIG     1      24.696  22.020  24.371  1.00  0.00    -0.081 Cl
HETATM    8  C   LIG     1      24.134  22.039  21.676  1.00  0.00     0.080 A 
HETATM    9 CL   LIG     1      22.721  21.060  22.088  1.00  0.00    -0.081 Cl
HETATM   10  C   LIG     1      24.384  22.394  20.338  1.00  0.00     0.091 A 
HETATM   11  C   LIG     1      23.484  21.957  19.296  1.00  0.00     0.103 C 
HETATM   12  N   LIG     1      22.763  21.606  18.461  1.00  0.00    -0.191 NA
HETATM   13  C   LIG     1      25.510  23.174  20.014  1.00  0.00     0.079 A 
HETATM   14 CL   LIG     1      25.825  23.620  18.330  1.00  0.00    -0.081 Cl
ENDROOT
TORSDOF 0
ENDMDL
MODEL 12
REMARK VINA RESULT:      -3.5     15.743     16.673
REMARK  0 active torsions:
REMARK  status: ('A' for Active; 'I' for Inactive)
ROOT
HETATM    1  N   LIG     1      23.831  21.939  19.505  1.00  0.00    -0.191 NA
HETATM    2  C   LIG     1      24.706  22.583  19.903  1.00  0.00     0.103 C 
HETATM    3  C   LIG     1      25.800  23.388  20.399  1.00  0.00     0.091 A 
HETATM    4  C   LIG     1      26.319  23.151  21.685  1.00  0.00     0.080 A 
HETATM    5 CL   LIG     1      25.637  21.869  22.696  1.00  0.00    -0.081 Cl
HETATM    6  C   LIG     1      27.382  23.932  22.169  1.00  0.00     0.080 A 
HETATM    7 CL   LIG     1      28.034  23.634  23.782  1.00  0.00    -0.081 Cl
HETATM    8  C   LIG     1      27.927  24.953  21.368  1.00  0.00     0.080 A 
HETATM    9 CL   LIG     1      29.265  25.933  21.981  1.00  0.00    -0.081 Cl
HETATM   10  C   LIG     1      27.408  25.189  20.082  1.00  0.00     0.091 A 
HETATM   11  C   LIG     1      27.968  26.237  19.260  1.00  0.00     0.103 C 
HETATM   12  N   LIG     1      28.417  27.077  18.601  1.00  0.00    -0.191 NA
HETATM   13  C   LIG     1      26.343  24.407  19.597  1.00  0.00     0.079 A 
HETATM   14 CL   LIG     1      25.689  24.706  17.978  1.00  0.00    -0.081 Cl
ENDROOT
TORSDOF 0
ENDMDL
MODEL 13
REMARK VINA RESULT:      -3.4     16.255     16.834
REMARK  0 active torsions:
REMARK  status: ('A' for Active; 'I' for Inactive)
ROOT
HETATM    1  N   LIG     1      27.450  23.705  25.051  1.00  0.00    -0.191 NA
HETATM    2  C   LIG     1      26.775  23.429  24.154  1.00  0.00     0.103 C 
HETATM    3  C   LIG     1      25.931  23.085  23.031  1.00  0.00     0.091 A 
HETATM    4  C   LIG     1      24.764  22.324  23.237  1.00  0.00     0.080 A 
HETATM    5 CL   LIG     1      24.327  21.791  24.865  1.00  0.00    -0.081 Cl
HETATM    6  C   LIG     1      23.943  21.988  22.146  1.00  0.00     0.080 A 
HETATM    7 CL   LIG     1      22.480  21.036  22.404  1.00  0.00    -0.081 Cl
HETATM    8  C   LIG     1      24.288  22.411  20.849  1.00  0.00     0.080 A 
HETATM    9 CL   LIG     1      23.252  21.985  19.481  1.00  0.00    -0.081 Cl
HETATM   10  C   LIG     1      25.454  23.171  20.644  1.00  0.00     0.091 A 
HETATM   11  C   LIG     1      25.807  23.605  19.312  1.00  0.00     0.103 C 
HETATM   12  N   LIG     1      26.090  23.952  18.244  1.00  0.00    -0.191 NA
HETATM   13  C   LIG     1      26.276  23.508  21.735  1.00  0.00     0.079 A 
HETATM   14 CL   LIG     1      27.745  24.464  21.477  1.00  0.00    -0.081 Cl
ENDROOT
TORSDOF 0
ENDMDL
MODEL 14
REMARK VINA RESULT:      -3.4     16.657     17.560
REMARK  0 active torsions:
REMARK  status: ('A' for Active; 'I' for Inactive)
ROOT
HETATM    1  N   LIG     1      30.043  23.221  14.058  1.00  0.00    -0.191 NA
HETATM    2  C   LIG     1      29.607  23.654  15.038  1.00  0.00     0.103 C 
HETATM    3  C   LIG     1      29.060  24.195  16.263  1.00  0.00     0.091 A 
HETATM    4  C   LIG     1      29.185  25.569  16.542  1.00  0.00     0.080 A 
HETATM    5 CL   LIG     1      30.007  26.636  15.397  1.00  0.00    -0.081 Cl
HETATM    6  C   LIG     1      28.654  26.095  17.732  1.00  0.00     0.080 A 
HETATM    7 CL   LIG     1      28.810  27.818  18.082  1.00  0.00    -0.081 Cl
HETATM    8  C   LIG     1      27.999  25.249  18.646  1.00  0.00     0.080 A 
HETATM    9 CL   LIG     1      27.334  25.916  20.141  1.00  0.00    -0.081 Cl
HETATM   10  C   LIG     1      27.874  23.876  18.367  1.00  0.00     0.091 A 
HETATM   11  C   LIG     1      27.201  23.007  19.305  1.00  0.00     0.103 C 
HETATM   12  N   LIG     1      26.662  22.311  20.057  1.00  0.00    -0.191 NA
HETATM   13  C   LIG     1      28.405  23.348  17.175  1.00  0.00     0.079 A 
HETATM   14 CL   LIG     1      28.249  21.619  16.824  1.00  0.00    -0.081 Cl
ENDROOT
TORSDOF 0
ENDMDL
MODEL 15
REMARK VINA RESULT:      -3.3     17.143     18.043
REMARK  0 active torsions:
REMARK  status: ('A' for Active; 'I' for Inactive)
ROOT
HETATM    1  N   LIG     1      25.824  24.288  20.170  1.00  0.00    -0.191 NA
HETATM    2  C   LIG     1      25.265  23.285  20.312  1.00  0.00     0.103 C 
HETATM    3  C   LIG     1      24.566  22.032  20.489  1.00  0.00     0.091 A 
HETATM    4  C   LIG     1      24.069  21.678  21.757  1.00  0.00     0.080 A 
HETATM    5 CL   LIG     1      24.296  22.763  23.135  1.00  0.00    -0.081 Cl
HETATM    6  C   LIG     1      23.389  20.460  21.930  1.00  0.00     0.080 A 
HETATM    7 CL   LIG     1      22.765  20.016  23.520  1.00  0.00    -0.081 Cl
HETATM    8  C   LIG     1      23.206  19.594  20.836  1.00  0.00     0.080 A 
HETATM    9 CL   LIG     1      22.350  18.063  21.060  1.00  0.00    -0.081 Cl
HETATM   10  C   LIG     1      23.703  19.948  19.569  1.00  0.00     0.091 A 
HETATM   11  C   LIG     1      23.515  19.059  18.446  1.00  0.00     0.103 C 
HETATM   12  N   LIG     1      23.364  18.346  17.546  1.00  0.00    -0.191 NA
HETATM   13  C   LIG     1      24.384  21.168  19.394  1.00  0.00     0.079 A 
HETATM   14 CL   LIG     1      25.010  21.613  17.799  1.00  0.00    -0.081 Cl
ENDROOT
TORSDOF 0
ENDMDL
MODEL 16
REMARK VINA RESULT:      -3.3     16.911     17.547
REMARK  0 active torsions:
REMARK  status: ('A' for Active; 'I' for Inactive)
ROOT
HETATM    1  N   LIG     1      27.222  24.616  25.200  1.00  0.00    -0.191 NA
HETATM    2  C   LIG     1      26.434  23.815  24.925  1.00  0.00     0.103 C 
HETATM    3  C   LIG     1      25.449  22.814  24.581  1.00  0.00     0.091 A 
HETATM    4  C   LIG     1      24.686  22.201  25.594  1.00  0.00     0.080 A 
HETATM    5 CL   LIG     1      24.929  22.656  27.286  1.00  0.00    -0.081 Cl
HETATM    6  C   LIG     1      23.729  21.228  25.261  1.00  0.00     0.080 A 
HETATM    7 CL   LIG     1      22.772  20.461  26.530  1.00  0.00    -0.081 Cl
HETATM    8  C   LIG     1      23.533  20.864  23.916  1.00  0.00     0.080 A 
HETATM    9 CL   LIG     1      22.327  19.639  23.503  1.00  0.00    -0.081 Cl
HETATM   10  C   LIG     1      24.295  21.476  22.904  1.00  0.00     0.091 A 
HETATM   11  C   LIG     1      24.093  21.103  21.523  1.00  0.00     0.103 C 
HETATM   12  N   LIG     1      23.932  20.803  20.416  1.00  0.00    -0.191 NA
HETATM   13  C   LIG     1      25.254  22.451  23.236  1.00  0.00     0.079 A 
HETATM   14 CL   LIG     1      26.214  23.221  21.963  1.00  0.00    -0.081 Cl
ENDROOT
TORSDOF 0
ENDMDL
MODEL 17
REMARK VINA RESULT:      -3.3     15.784     16.145
REMARK  0 active torsions:
REMARK  status: ('A' for Active; 'I' for Inactive)
ROOT
HETATM    1  N   LIG     1      28.449  26.999  18.634  1.00  0.00    -0.191 NA
HETATM    2  C   LIG     1      27.986  26.168  19.291  1.00  0.00     0.103 C 
HETATM    3  C   LIG     1      27.410  25.128  20.114  1.00  0.00     0.091 A 
HETATM    4  C   LIG     1      26.359  24.336  19.612  1.00  0.00     0.080 A 
HETATM    5 CL   LIG     1      25.746  24.610  17.976  1.00  0.00    -0.081 Cl
HETATM    6  C   LIG     1      25.797  23.325  20.410  1.00  0.00     0.080 A 
HETATM    7 CL   LIG     1      24.482  22.332  19.780  1.00  0.00    -0.081 Cl
HETATM    8  C   LIG     1      26.284  23.105  21.712  1.00  0.00     0.080 A 
HETATM    9 CL   LIG     1      25.573  21.832  22.712  1.00  0.00    -0.081 Cl
HETATM   10  C   LIG     1      27.333  23.896  22.214  1.00  0.00     0.091 A 
HETATM   11  C   LIG     1      27.832  23.669  23.551  1.00  0.00     0.103 C 
HETATM   12  N   LIG     1      28.231  23.488  24.622  1.00  0.00    -0.191 NA
HETATM   13  C   LIG     1      27.897  24.909  21.415  1.00  0.00     0.079 A 
HETATM   14 CL   LIG     1      29.217  25.905  22.047  1.00  0.00    -0.081 Cl
ENDROOT
TORSDOF 0
ENDMDL
MODEL 18
REMARK VINA RESULT:      -3.3     16.004     16.697
REMARK  0 active torsions:
REMARK  status: ('A' for Active; 'I' for Inactive)
ROOT
HETATM    1  N   LIG     1      28.603  23.730  24.600  1.00  0.00    -0.191 NA
HETATM    2  C   LIG     1      28.148  23.882  23.548  1.00  0.00     0.103 C 
HETATM    3  C   LIG     1      27.579  24.070  22.232  1.00  0.00     0.091 A 
HETATM    4  C   LIG     1      28.104  25.055  21.374  1.00  0.00     0.080 A 
HETATM    5 CL   LIG     1      29.461  26.060  21.901  1.00  0.00    -0.081 Cl
HETATM    6  C   LIG     1      27.552  25.239  20.095  1.00  0.00     0.080 A 
HETATM    7 CL   LIG     1      28.211  26.472  19.018  1.00  0.00    -0.081 Cl
HETATM    8  C   LIG     1      26.473  24.441  19.672  1.00  0.00     0.080 A 
HETATM    9 CL   LIG     1      25.782  24.678  18.062  1.00  0.00    -0.081 Cl
HETATM   10  C   LIG     1      25.948  23.457  20.530  1.00  0.00     0.091 A 
HETATM   11  C   LIG     1      24.840  22.638  20.095  1.00  0.00     0.103 C 
HETATM   12  N   LIG     1      23.952  21.982  19.747  1.00  0.00    -0.191 NA
HETATM   13  C   LIG     1      26.501  23.272  21.811  1.00  0.00     0.079 A 
HETATM   14 CL   LIG     1      25.839  22.034  22.891  1.00  0.00    -0.081 Cl
ENDROOT
TORSDOF 0
ENDMDL
MODEL 19
REMARK VINA RESULT:      -3.2     16.906     17.260
REMARK  0 active torsions:
REMARK  status: ('A' for Active; 'I' for Inactive)
ROOT
HETATM    1  N   LIG     1      28.660  25.283  26.336  1.00  0.00    -0.191 NA
HETATM    2  C   LIG     1      27.810  24.622  25.914  1.00  0.00     0.103 C 
HETATM    3  C   LIG     1      26.747  23.797  25.385  1.00  0.00     0.091 A 
HETATM    4  C   LIG     1      25.769  23.271  26.250  1.00  0.00     0.080 A 
HETATM    5 CL   LIG     1      25.836  23.620  27.982  1.00  0.00    -0.081 Cl
HETATM    6  C   LIG     1      24.736  22.468  25.737  1.00  0.00     0.080 A 
HETATM    7 CL   LIG     1      23.509  21.810  26.822  1.00  0.00    -0.081 Cl
HETATM    8  C   LIG     1      24.680  22.188  24.359  1.00  0.00     0.080 A 
HETATM    9 CL   LIG     1      23.378  21.177  23.720  1.00  0.00    -0.081 Cl
HETATM   10  C   LIG     1      25.657  22.713  23.495  1.00  0.00     0.091 A 
HETATM   11  C   LIG     1      25.599  22.426  22.080  1.00  0.00     0.103 C 
HETATM   12  N   LIG     1      25.552  22.195  20.947  1.00  0.00    -0.191 NA
HETATM   13  C   LIG     1      26.692  23.518  24.007  1.00  0.00     0.079 A 
HETATM   14 CL   LIG     1      27.923  24.178  22.919  1.00  0.00    -0.081 Cl
ENDROOT
TORSDOF 0
ENDMDL
MODEL 20
REMARK VINA RESULT:      -3.2     17.252     17.930
REMARK  0 active torsions:
REMARK  status: ('A' for Active; 'I' for Inactive)
ROOT
HETATM    1  N   LIG     1      26.952  25.516  29.735  1.00  0.00    -0.191 NA
HETATM    2  C   LIG     1      27.371  26.397  30.357  1.00  0.00     0.103 C 
HETATM    3  C   LIG     1      27.894  27.498  31.134  1.00  0.00     0.091 A 
HETATM    4  C   LIG     1      28.815  28.392  30.556  1.00  0.00     0.080 A 
HETATM    5 CL   LIG     1      29.333  28.172  28.879  1.00  0.00    -0.081 Cl
HETATM    6  C   LIG     1      29.324  29.462  31.311  1.00  0.00     0.080 A 
HETATM    7 CL   LIG     1      30.478  30.583  30.586  1.00  0.00    -0.081 Cl
HETATM    8  C   LIG     1      28.914  29.641  32.645  1.00  0.00     0.080 A 
HETATM    9 CL   LIG     1      29.557  30.989  33.590  1.00  0.00    -0.081 Cl
HETATM   10  C   LIG     1      27.993  28.747  33.223  1.00  0.00     0.091 A 
HETATM   11  C   LIG     1      27.573  28.931  34.593  1.00  0.00     0.103 C 
HETATM   12  N   LIG     1      27.236  29.078  35.691  1.00  0.00    -0.191 NA
HETATM   13  C   LIG     1      27.483  27.675  32.468  1.00  0.00     0.079 A 
HETATM   14 CL   LIG     1      26.325  26.550  33.195  1.00  0.00    -0.081 Cl
ENDROOT
TORSDOF 0
ENDMDL
