REMARK  0 active torsions:
REMARK  status: ('A' for Active; 'I' for Inactive)
ROOT
HETATM    1  N   LIG     1      -3.354  -1.959  -0.033  1.00  0.00    -0.191 NA
HETATM    2  C   LIG     1      -2.391  -1.318  -0.021  1.00  0.00     0.103 C 
HETATM    3  C   LIG     1      -1.187  -0.518  -0.005  1.00  0.00     0.091 A 
HETATM    4  C   LIG     1      -1.277   0.886   0.045  1.00  0.00     0.080 A 
HETATM    5 CL   LIG     1      -2.860   1.673   0.091  1.00  0.00    -0.081 Cl
HETATM    6  C   LIG     1      -0.107   1.665   0.060  1.00  0.00     0.080 A 
HETATM    7 CL   LIG     1      -0.220   3.425   0.124  1.00  0.00    -0.081 Cl
HETATM    8  C   LIG     1       1.154   1.042   0.024  1.00  0.00     0.080 A 
HETATM    9 CL   LIG     1       2.622   2.027   0.043  1.00  0.00    -0.081 Cl
HETATM   10  C   LIG     1       1.244  -0.361  -0.026  1.00  0.00     0.091 A 
HETATM   11  C   LIG     1       2.539  -1.000  -0.063  1.00  0.00     0.103 C 
HETATM   12  N   LIG     1       3.577  -1.512  -0.093  1.00  0.00    -0.191 NA
HETATM   13  C   LIG     1       0.073  -1.142  -0.041  1.00  0.00     0.079 A 
HETATM   14 CL   LIG     1       0.186  -2.908  -0.105  1.00  0.00    -0.081 Cl
ENDROOT
TORSDOF 0
