MODEL 1
REMARK VINA RESULT:      -6.7      0.000      0.000
REMARK  0 active torsions:
REMARK  status: ('A' for Active; 'I' for Inactive)
ROOT
HETATM    1  C   LIG     1      26.378  23.535  21.865  1.00  0.00    -0.002 A 
HETATM    2  C   LIG     1      27.019  23.843  23.091  1.00  0.00    -0.024 A 
HETATM    3  C   LIG     1      28.144  24.676  23.099  1.00  0.00     0.013 A 
HETATM    4  C   LIG     1      28.638  25.204  21.906  1.00  0.00     0.013 A 
HETATM    5  C   LIG     1      26.524  23.312  24.289  1.00  0.00     0.013 A 
HETATM    6  C   LIG     1      25.403  22.482  24.284  1.00  0.00     0.013 A 
HETATM    7  C   LIG     1      24.759  22.169  23.079  1.00  0.00    -0.024 A 
HETATM    8  C   LIG     1      23.634  21.335  23.077  1.00  0.00     0.013 A 
HETATM    9  C   LIG     1      22.992  21.023  21.878  1.00  0.00     0.013 A 
HETATM   10  C   LIG     1      23.465  21.540  20.663  1.00  0.00    -0.024 A 
HETATM   11  C   LIG     1      22.813  21.219  19.469  1.00  0.00     0.012 A 
HETATM   12  C   LIG     1      23.279  21.728  18.262  1.00  0.00     0.002 A 
HETATM   13  C   LIG     1      24.397  22.562  18.225  1.00  0.00     0.013 A 
HETATM   14  C   LIG     1      25.248  22.697  21.860  1.00  0.00    -0.002 A 
HETATM   15  C   LIG     1      24.604  22.386  20.643  1.00  0.00    -0.003 A 
HETATM   16  C   LIG     1      25.087  22.912  19.413  1.00  0.00    -0.013 A 
HETATM   17  C   LIG     1      26.236  23.763  19.419  1.00  0.00    -0.013 A 
HETATM   18  C   LIG     1      26.873  24.066  20.654  1.00  0.00    -0.003 A 
HETATM   19  C   LIG     1      28.014  24.908  20.686  1.00  0.00    -0.024 A 
HETATM   20  C   LIG     1      28.519  25.444  19.497  1.00  0.00     0.012 A 
HETATM   21  C   LIG     1      27.904  25.153  18.285  1.00  0.00     0.002 A 
HETATM   22  C   LIG     1      26.780  24.327  18.237  1.00  0.00     0.013 A 
ENDROOT
TORSDOF 0
ENDMDL
MODEL 2
REMARK VINA RESULT:      -6.7      0.074      4.544
REMARK  0 active torsions:
REMARK  status: ('A' for Active; 'I' for Inactive)
ROOT
HETATM    1  C   LIG     1      25.211  22.696  21.887  1.00  0.00    -0.002 A 
HETATM    2  C   LIG     1      24.733  22.165  23.111  1.00  0.00    -0.024 A 
HETATM    3  C   LIG     1      23.626  21.307  23.113  1.00  0.00     0.013 A 
HETATM    4  C   LIG     1      22.992  20.974  21.917  1.00  0.00     0.013 A 
HETATM    5  C   LIG     1      25.370  22.500  24.313  1.00  0.00     0.013 A 
HETATM    6  C   LIG     1      26.473  23.354  24.313  1.00  0.00     0.013 A 
HETATM    7  C   LIG     1      26.957  23.887  23.111  1.00  0.00    -0.024 A 
HETATM    8  C   LIG     1      28.064  24.744  23.114  1.00  0.00     0.013 A 
HETATM    9  C   LIG     1      28.547  25.274  21.918  1.00  0.00     0.013 A 
HETATM   10  C   LIG     1      27.931  24.956  20.700  1.00  0.00    -0.024 A 
HETATM   11  C   LIG     1      28.424  25.495  19.507  1.00  0.00     0.012 A 
HETATM   12  C   LIG     1      27.815  25.183  18.297  1.00  0.00     0.002 A 
HETATM   13  C   LIG     1      26.710  24.333  18.254  1.00  0.00     0.013 A 
HETATM   14  C   LIG     1      26.324  23.558  21.888  1.00  0.00    -0.002 A 
HETATM   15  C   LIG     1      26.807  24.090  20.674  1.00  0.00    -0.003 A 
HETATM   16  C   LIG     1      26.177  23.765  19.440  1.00  0.00    -0.013 A 
HETATM   17  C   LIG     1      25.047  22.889  19.439  1.00  0.00    -0.013 A 
HETATM   18  C   LIG     1      24.573  22.362  20.673  1.00  0.00    -0.003 A 
HETATM   19  C   LIG     1      23.454  21.491  20.699  1.00  0.00    -0.024 A 
HETATM   20  C   LIG     1      22.809  21.149  19.506  1.00  0.00     0.012 A 
HETATM   21  C   LIG     1      23.264  21.660  18.296  1.00  0.00     0.002 A 
HETATM   22  C   LIG     1      24.365  22.517  18.254  1.00  0.00     0.013 A 
ENDROOT
TORSDOF 0
ENDMDL
MODEL 3
REMARK VINA RESULT:      -6.5      0.823      4.143
REMARK  0 active torsions:
REMARK  status: ('A' for Active; 'I' for Inactive)
ROOT
HETATM    1  C   LIG     1      26.093  23.389  21.042  1.00  0.00    -0.002 A 
HETATM    2  C   LIG     1      27.084  24.213  20.454  1.00  0.00    -0.024 A 
HETATM    3  C   LIG     1      27.079  24.430  19.071  1.00  0.00     0.013 A 
HETATM    4  C   LIG     1      26.102  23.841  18.270  1.00  0.00     0.013 A 
HETATM    5  C   LIG     1      28.066  24.806  21.259  1.00  0.00     0.013 A 
HETATM    6  C   LIG     1      28.074  24.591  22.637  1.00  0.00     0.013 A 
HETATM    7  C   LIG     1      27.099  23.778  23.233  1.00  0.00    -0.024 A 
HETATM    8  C   LIG     1      27.110  23.563  24.617  1.00  0.00     0.013 A 
HETATM    9  C   LIG     1      26.140  22.756  25.211  1.00  0.00     0.013 A 
HETATM   10  C   LIG     1      25.145  22.150  24.431  1.00  0.00    -0.024 A 
HETATM   11  C   LIG     1      24.179  21.342  25.038  1.00  0.00     0.012 A 
HETATM   12  C   LIG     1      23.191  20.738  24.268  1.00  0.00     0.002 A 
HETATM   13  C   LIG     1      23.149  20.929  22.887  1.00  0.00     0.013 A 
HETATM   14  C   LIG     1      26.101  23.172  22.433  1.00  0.00    -0.002 A 
HETATM   15  C   LIG     1      25.117  22.353  23.027  1.00  0.00    -0.003 A 
HETATM   16  C   LIG     1      24.109  21.740  22.231  1.00  0.00    -0.013 A 
HETATM   17  C   LIG     1      24.101  21.961  20.818  1.00  0.00    -0.013 A 
HETATM   18  C   LIG     1      25.101  22.789  20.236  1.00  0.00    -0.003 A 
HETATM   19  C   LIG     1      25.115  23.024  18.837  1.00  0.00    -0.024 A 
HETATM   20  C   LIG     1      24.141  22.438  18.023  1.00  0.00     0.012 A 
HETATM   21  C   LIG     1      23.160  21.627  18.582  1.00  0.00     0.002 A 
HETATM   22  C   LIG     1      23.133  21.387  19.957  1.00  0.00     0.013 A 
ENDROOT
TORSDOF 0
ENDMDL
MODEL 4
REMARK VINA RESULT:      -6.5      0.902      4.471
REMARK  0 active torsions:
REMARK  status: ('A' for Active; 'I' for Inactive)
ROOT
HETATM    1  C   LIG     1      25.763  22.808  22.642  1.00  0.00    -0.002 A 
HETATM    2  C   LIG     1      26.686  23.335  23.579  1.00  0.00    -0.024 A 
HETATM    3  C   LIG     1      26.561  23.014  24.937  1.00  0.00     0.013 A 
HETATM    4  C   LIG     1      25.533  22.177  25.370  1.00  0.00     0.013 A 
HETATM    5  C   LIG     1      27.718  24.176  23.144  1.00  0.00     0.013 A 
HETATM    6  C   LIG     1      27.844  24.498  21.793  1.00  0.00     0.013 A 
HETATM    7  C   LIG     1      26.939  23.984  20.855  1.00  0.00    -0.024 A 
HETATM    8  C   LIG     1      27.068  24.309  19.498  1.00  0.00     0.013 A 
HETATM    9  C   LIG     1      26.168  23.797  18.563  1.00  0.00     0.013 A 
HETATM   10  C   LIG     1      25.124  22.953  18.970  1.00  0.00    -0.024 A 
HETATM   11  C   LIG     1      24.228  22.447  18.023  1.00  0.00     0.012 A 
HETATM   12  C   LIG     1      23.191  21.610  18.422  1.00  0.00     0.002 A 
HETATM   13  C   LIG     1      23.032  21.265  19.764  1.00  0.00     0.013 A 
HETATM   14  C   LIG     1      25.890  23.133  21.279  1.00  0.00    -0.002 A 
HETATM   15  C   LIG     1      24.975  22.611  20.339  1.00  0.00    -0.003 A 
HETATM   16  C   LIG     1      23.918  21.756  20.756  1.00  0.00    -0.013 A 
HETATM   17  C   LIG     1      23.789  21.425  22.141  1.00  0.00    -0.013 A 
HETATM   18  C   LIG     1      24.720  21.960  23.076  1.00  0.00    -0.003 A 
HETATM   19  C   LIG     1      24.613  21.648  24.455  1.00  0.00    -0.024 A 
HETATM   20  C   LIG     1      23.587  20.810  24.902  1.00  0.00     0.012 A 
HETATM   21  C   LIG     1      22.672  20.283  23.998  1.00  0.00     0.002 A 
HETATM   22  C   LIG     1      22.765  20.581  22.637  1.00  0.00     0.013 A 
ENDROOT
TORSDOF 0
ENDMDL
MODEL 5
REMARK VINA RESULT:      -6.3      0.790      4.006
REMARK  0 active torsions:
REMARK  status: ('A' for Active; 'I' for Inactive)
ROOT
HETATM    1  C   LIG     1      25.107  22.584  22.471  1.00  0.00    -0.002 A 
HETATM    2  C   LIG     1      24.223  21.877  23.323  1.00  0.00    -0.024 A 
HETATM    3  C   LIG     1      24.442  21.874  24.706  1.00  0.00     0.013 A 
HETATM    4  C   LIG     1      25.525  22.563  25.249  1.00  0.00     0.013 A 
HETATM    5  C   LIG     1      23.135  21.183  22.778  1.00  0.00     0.013 A 
HETATM    6  C   LIG     1      22.915  21.185  21.401  1.00  0.00     0.013 A 
HETATM    7  C   LIG     1      23.781  21.880  20.546  1.00  0.00    -0.024 A 
HETATM    8  C   LIG     1      23.559  21.880  19.163  1.00  0.00     0.013 A 
HETATM    9  C   LIG     1      24.419  22.573  18.312  1.00  0.00     0.013 A 
HETATM   10  C   LIG     1      25.516  23.276  18.829  1.00  0.00    -0.024 A 
HETATM   11  C   LIG     1      26.372  23.966  17.964  1.00  0.00     0.012 A 
HETATM   12  C   LIG     1      27.462  24.664  18.473  1.00  0.00     0.002 A 
HETATM   13  C   LIG     1      27.715  24.687  19.845  1.00  0.00     0.013 A 
HETATM   14  C   LIG     1      24.885  22.586  21.082  1.00  0.00    -0.002 A 
HETATM   15  C   LIG     1      25.761  23.289  20.226  1.00  0.00    -0.003 A 
HETATM   16  C   LIG     1      26.873  24.001  20.756  1.00  0.00    -0.013 A 
HETATM   17  C   LIG     1      27.098  23.999  22.168  1.00  0.00    -0.013 A 
HETATM   18  C   LIG     1      26.206  23.285  23.016  1.00  0.00    -0.003 A 
HETATM   19  C   LIG     1      26.408  23.268  24.419  1.00  0.00    -0.024 A 
HETATM   20  C   LIG     1      27.490  23.957  24.976  1.00  0.00     0.012 A 
HETATM   21  C   LIG     1      28.368  24.657  24.156  1.00  0.00     0.002 A 
HETATM   22  C   LIG     1      28.182  24.683  22.773  1.00  0.00     0.013 A 
ENDROOT
TORSDOF 0
ENDMDL
MODEL 6
REMARK VINA RESULT:      -6.3      0.793      4.323
REMARK  0 active torsions:
REMARK  status: ('A' for Active; 'I' for Inactive)
ROOT
HETATM    1  C   LIG     1      24.845  22.550  21.046  1.00  0.00    -0.002 A 
HETATM    2  C   LIG     1      23.736  21.854  20.503  1.00  0.00    -0.024 A 
HETATM    3  C   LIG     1      23.520  21.860  19.119  1.00  0.00     0.013 A 
HETATM    4  C   LIG     1      24.390  22.546  18.274  1.00  0.00     0.013 A 
HETATM    5  C   LIG     1      22.861  21.165  21.353  1.00  0.00     0.013 A 
HETATM    6  C   LIG     1      23.075  21.159  22.731  1.00  0.00     0.013 A 
HETATM    7  C   LIG     1      24.167  21.842  23.282  1.00  0.00    -0.024 A 
HETATM    8  C   LIG     1      24.379  21.834  24.667  1.00  0.00     0.013 A 
HETATM    9  C   LIG     1      25.466  22.513  25.216  1.00  0.00     0.013 A 
HETATM   10  C   LIG     1      26.359  23.211  24.391  1.00  0.00    -0.024 A 
HETATM   11  C   LIG     1      27.444  23.889  24.954  1.00  0.00     0.012 A 
HETATM   12  C   LIG     1      28.332  24.584  24.139  1.00  0.00     0.002 A 
HETATM   13  C   LIG     1      28.153  24.614  22.756  1.00  0.00     0.013 A 
HETATM   14  C   LIG     1      25.060  22.543  22.437  1.00  0.00    -0.002 A 
HETATM   15  C   LIG     1      26.162  23.233  22.986  1.00  0.00    -0.003 A 
HETATM   16  C   LIG     1      27.065  23.941  22.144  1.00  0.00    -0.013 A 
HETATM   17  C   LIG     1      26.847  23.947  20.731  1.00  0.00    -0.013 A 
HETATM   18  C   LIG     1      25.730  23.247  20.194  1.00  0.00    -0.003 A 
HETATM   19  C   LIG     1      25.492  23.238  18.796  1.00  0.00    -0.024 A 
HETATM   20  C   LIG     1      26.358  23.923  17.938  1.00  0.00     0.012 A 
HETATM   21  C   LIG     1      27.451  24.610  18.452  1.00  0.00     0.002 A 
HETATM   22  C   LIG     1      27.699  24.627  19.825  1.00  0.00     0.013 A 
ENDROOT
TORSDOF 0
ENDMDL
MODEL 7
REMARK VINA RESULT:      -6.3      0.772      5.948
REMARK  0 active torsions:
REMARK  status: ('A' for Active; 'I' for Inactive)
ROOT
HETATM    1  C   LIG     1      25.489  23.101  20.480  1.00  0.00    -0.002 A 
HETATM    2  C   LIG     1      25.132  23.034  19.111  1.00  0.00    -0.024 A 
HETATM    3  C   LIG     1      24.037  22.257  18.713  1.00  0.00     0.013 A 
HETATM    4  C   LIG     1      23.296  21.550  19.659  1.00  0.00     0.013 A 
HETATM    5  C   LIG     1      25.877  23.745  18.160  1.00  0.00     0.013 A 
HETATM    6  C   LIG     1      26.969  24.519  18.554  1.00  0.00     0.013 A 
HETATM    7  C   LIG     1      27.333  24.595  19.905  1.00  0.00    -0.024 A 
HETATM    8  C   LIG     1      28.430  25.372  20.297  1.00  0.00     0.013 A 
HETATM    9  C   LIG     1      28.793  25.450  21.641  1.00  0.00     0.013 A 
HETATM   10  C   LIG     1      28.066  24.749  22.615  1.00  0.00    -0.024 A 
HETATM   11  C   LIG     1      28.441  24.834  23.960  1.00  0.00     0.012 A 
HETATM   12  C   LIG     1      27.724  24.141  24.928  1.00  0.00     0.002 A 
HETATM   13  C   LIG     1      26.625  23.356  24.575  1.00  0.00     0.013 A 
HETATM   14  C   LIG     1      26.591  23.882  20.877  1.00  0.00    -0.002 A 
HETATM   15  C   LIG     1      26.952  23.955  22.239  1.00  0.00    -0.003 A 
HETATM   16  C   LIG     1      26.212  23.242  23.224  1.00  0.00    -0.013 A 
HETATM   17  C   LIG     1      25.093  22.449  22.820  1.00  0.00    -0.013 A 
HETATM   18  C   LIG     1      24.742  22.387  21.442  1.00  0.00    -0.003 A 
HETATM   19  C   LIG     1      23.637  21.607  21.017  1.00  0.00    -0.024 A 
HETATM   20  C   LIG     1      22.885  20.893  21.956  1.00  0.00     0.012 A 
HETATM   21  C   LIG     1      23.220  20.947  23.304  1.00  0.00     0.002 A 
HETATM   22  C   LIG     1      24.305  21.711  23.738  1.00  0.00     0.013 A 
ENDROOT
TORSDOF 0
ENDMDL
MODEL 8
REMARK VINA RESULT:      -6.3      0.797      3.946
REMARK  0 active torsions:
REMARK  status: ('A' for Active; 'I' for Inactive)
ROOT
HETATM    1  C   LIG     1      26.508  23.767  20.899  1.00  0.00    -0.002 A 
HETATM    2  C   LIG     1      27.232  24.441  19.884  1.00  0.00    -0.024 A 
HETATM    3  C   LIG     1      28.337  25.230  20.225  1.00  0.00     0.013 A 
HETATM    4  C   LIG     1      28.728  25.356  21.557  1.00  0.00     0.013 A 
HETATM    5  C   LIG     1      26.838  24.315  18.545  1.00  0.00     0.013 A 
HETATM    6  C   LIG     1      25.738  23.529  18.204  1.00  0.00     0.013 A 
HETATM    7  C   LIG     1      25.012  22.857  19.196  1.00  0.00    -0.024 A 
HETATM    8  C   LIG     1      23.907  22.068  18.851  1.00  0.00     0.013 A 
HETATM    9  C   LIG     1      23.185  21.398  19.837  1.00  0.00     0.013 A 
HETATM   10  C   LIG     1      23.555  21.505  21.186  1.00  0.00    -0.024 A 
HETATM   11  C   LIG     1      22.822  20.828  22.166  1.00  0.00     0.012 A 
HETATM   12  C   LIG     1      23.186  20.932  23.504  1.00  0.00     0.002 A 
HETATM   13  C   LIG     1      24.280  21.708  23.886  1.00  0.00     0.013 A 
HETATM   14  C   LIG     1      25.397  22.974  20.554  1.00  0.00    -0.002 A 
HETATM   15  C   LIG     1      24.671  22.299  21.558  1.00  0.00    -0.003 A 
HETATM   16  C   LIG     1      25.050  22.411  22.925  1.00  0.00    -0.013 A 
HETATM   17  C   LIG     1      26.179  23.216  23.275  1.00  0.00    -0.013 A 
HETATM   18  C   LIG     1      26.899  23.890  22.249  1.00  0.00    -0.003 A 
HETATM   19  C   LIG     1      28.022  24.695  22.571  1.00  0.00    -0.024 A 
HETATM   20  C   LIG     1      28.425  24.829  23.903  1.00  0.00     0.012 A 
HETATM   21  C   LIG     1      27.727  24.175  24.912  1.00  0.00     0.002 A 
HETATM   22  C   LIG     1      26.621  23.379  24.611  1.00  0.00     0.013 A 
ENDROOT
TORSDOF 0
ENDMDL
MODEL 9
REMARK VINA RESULT:      -6.1      2.524      5.127
REMARK  0 active torsions:
REMARK  status: ('A' for Active; 'I' for Inactive)
ROOT
HETATM    1  C   LIG     1      25.994  21.865  18.610  1.00  0.00    -0.002 A 
HETATM    2  C   LIG     1      27.203  22.585  18.774  1.00  0.00    -0.024 A 
HETATM    3  C   LIG     1      27.318  23.527  19.803  1.00  0.00     0.013 A 
HETATM    4  C   LIG     1      26.250  23.760  20.667  1.00  0.00     0.013 A 
HETATM    5  C   LIG     1      28.277  22.352  17.905  1.00  0.00     0.013 A 
HETATM    6  C   LIG     1      28.164  21.414  16.879  1.00  0.00     0.013 A 
HETATM    7  C   LIG     1      26.974  20.694  16.705  1.00  0.00    -0.024 A 
HETATM    8  C   LIG     1      26.864  19.753  15.673  1.00  0.00     0.013 A 
HETATM    9  C   LIG     1      25.680  19.036  15.499  1.00  0.00     0.013 A 
HETATM   10  C   LIG     1      24.589  19.248  16.353  1.00  0.00    -0.024 A 
HETATM   11  C   LIG     1      23.407  18.523  16.168  1.00  0.00     0.012 A 
HETATM   12  C   LIG     1      22.322  18.731  17.012  1.00  0.00     0.002 A 
HETATM   13  C   LIG     1      22.396  19.660  18.050  1.00  0.00     0.013 A 
HETATM   14  C   LIG     1      25.880  20.919  17.574  1.00  0.00    -0.002 A 
HETATM   15  C   LIG     1      24.679  20.197  17.404  1.00  0.00    -0.003 A 
HETATM   16  C   LIG     1      23.574  20.416  18.273  1.00  0.00    -0.013 A 
HETATM   17  C   LIG     1      23.690  21.377  19.325  1.00  0.00    -0.013 A 
HETATM   18  C   LIG     1      24.908  22.097  19.482  1.00  0.00    -0.003 A 
HETATM   19  C   LIG     1      25.047  23.055  20.518  1.00  0.00    -0.024 A 
HETATM   20  C   LIG     1      23.983  23.298  21.391  1.00  0.00     0.012 A 
HETATM   21  C   LIG     1      22.789  22.601  21.246  1.00  0.00     0.002 A 
HETATM   22  C   LIG     1      22.636  21.654  20.232  1.00  0.00     0.013 A 
ENDROOT
TORSDOF 0
ENDMDL
MODEL 10
REMARK VINA RESULT:      -5.9      0.989      2.181
REMARK  0 active torsions:
REMARK  status: ('A' for Active; 'I' for Inactive)
ROOT
HETATM    1  C   LIG     1      25.911  23.041  23.305  1.00  0.00    -0.002 A 
HETATM    2  C   LIG     1      25.852  22.878  24.712  1.00  0.00    -0.024 A 
HETATM    3  C   LIG     1      26.810  23.496  25.525  1.00  0.00     0.013 A 
HETATM    4  C   LIG     1      27.821  24.270  24.958  1.00  0.00     0.013 A 
HETATM    5  C   LIG     1      24.836  22.100  25.282  1.00  0.00     0.013 A 
HETATM    6  C   LIG     1      23.881  21.484  24.473  1.00  0.00     0.013 A 
HETATM    7  C   LIG     1      23.927  21.636  23.081  1.00  0.00    -0.024 A 
HETATM    8  C   LIG     1      22.967  21.016  22.271  1.00  0.00     0.013 A 
HETATM    9  C   LIG     1      23.011  21.167  20.886  1.00  0.00     0.013 A 
HETATM   10  C   LIG     1      24.016  21.940  20.287  1.00  0.00    -0.024 A 
HETATM   11  C   LIG     1      24.050  22.084  18.896  1.00  0.00     0.012 A 
HETATM   12  C   LIG     1      25.046  22.849  18.298  1.00  0.00     0.002 A 
HETATM   13  C   LIG     1      26.018  23.481  19.073  1.00  0.00     0.013 A 
HETATM   14  C   LIG     1      24.948  22.419  22.490  1.00  0.00    -0.002 A 
HETATM   15  C   LIG     1      24.999  22.576  21.088  1.00  0.00    -0.003 A 
HETATM   16  C   LIG     1      26.021  23.362  20.485  1.00  0.00    -0.013 A 
HETATM   17  C   LIG     1      27.000  23.994  21.314  1.00  0.00    -0.013 A 
HETATM   18  C   LIG     1      26.933  23.824  22.726  1.00  0.00    -0.003 A 
HETATM   19  C   LIG     1      27.892  24.440  23.569  1.00  0.00    -0.024 A 
HETATM   20  C   LIG     1      28.911  25.219  23.012  1.00  0.00     0.012 A 
HETATM   21  C   LIG     1      28.986  25.391  21.635  1.00  0.00     0.002 A 
HETATM   22  C   LIG     1      28.049  24.791  20.792  1.00  0.00     0.013 A 
ENDROOT
TORSDOF 0
ENDMDL
MODEL 11
REMARK VINA RESULT:      -5.8      1.993      5.656
REMARK  0 active torsions:
REMARK  status: ('A' for Active; 'I' for Inactive)
ROOT
HETATM    1  C   LIG     1      24.313  21.652  24.361  1.00  0.00    -0.002 A 
HETATM    2  C   LIG     1      23.252  20.738  24.572  1.00  0.00    -0.024 A 
HETATM    3  C   LIG     1      22.624  20.135  23.474  1.00  0.00     0.013 A 
HETATM    4  C   LIG     1      23.039  20.430  22.177  1.00  0.00     0.013 A 
HETATM    5  C   LIG     1      22.834  20.442  25.876  1.00  0.00     0.013 A 
HETATM    6  C   LIG     1      23.457  21.041  26.970  1.00  0.00     0.013 A 
HETATM    7  C   LIG     1      24.508  21.947  26.777  1.00  0.00    -0.024 A 
HETATM    8  C   LIG     1      25.132  22.548  27.878  1.00  0.00     0.013 A 
HETATM    9  C   LIG     1      26.179  23.450  27.688  1.00  0.00     0.013 A 
HETATM   10  C   LIG     1      26.619  23.766  26.394  1.00  0.00    -0.024 A 
HETATM   11  C   LIG     1      27.669  24.672  26.216  1.00  0.00     0.012 A 
HETATM   12  C   LIG     1      28.108  24.988  24.935  1.00  0.00     0.002 A 
HETATM   13  C   LIG     1      27.511  24.409  23.815  1.00  0.00     0.013 A 
HETATM   14  C   LIG     1      24.942  22.257  25.466  1.00  0.00    -0.002 A 
HETATM   15  C   LIG     1      26.000  23.169  25.265  1.00  0.00    -0.003 A 
HETATM   16  C   LIG     1      26.443  23.486  23.950  1.00  0.00    -0.013 A 
HETATM   17  C   LIG     1      25.804  22.871  22.829  1.00  0.00    -0.013 A 
HETATM   18  C   LIG     1      24.738  21.955  23.049  1.00  0.00    -0.003 A 
HETATM   19  C   LIG     1      24.088  21.332  21.953  1.00  0.00    -0.024 A 
HETATM   20  C   LIG     1      24.496  21.619  20.647  1.00  0.00     0.012 A 
HETATM   21  C   LIG     1      25.535  22.514  20.421  1.00  0.00     0.002 A 
HETATM   22  C   LIG     1      26.185  23.134  21.489  1.00  0.00     0.013 A 
ENDROOT
TORSDOF 0
ENDMDL
MODEL 12
REMARK VINA RESULT:      -5.8      1.875      5.606
REMARK  0 active torsions:
REMARK  status: ('A' for Active; 'I' for Inactive)
ROOT
HETATM    1  C   LIG     1      24.932  22.244  25.087  1.00  0.00    -0.002 A 
HETATM    2  C   LIG     1      24.353  21.868  26.324  1.00  0.00    -0.024 A 
HETATM    3  C   LIG     1      23.286  20.961  26.347  1.00  0.00     0.013 A 
HETATM    4  C   LIG     1      22.791  20.427  25.159  1.00  0.00     0.013 A 
HETATM    5  C   LIG     1      24.850  22.405  27.519  1.00  0.00     0.013 A 
HETATM    6  C   LIG     1      25.912  23.309  27.498  1.00  0.00     0.013 A 
HETATM    7  C   LIG     1      26.494  23.690  26.282  1.00  0.00    -0.024 A 
HETATM    8  C   LIG     1      27.561  24.598  26.264  1.00  0.00     0.013 A 
HETATM    9  C   LIG     1      28.142  24.978  25.055  1.00  0.00     0.013 A 
HETATM   10  C   LIG     1      27.666  24.456  23.843  1.00  0.00    -0.024 A 
HETATM   11  C   LIG     1      28.256  24.846  22.637  1.00  0.00     0.012 A 
HETATM   12  C   LIG     1      27.786  24.332  21.433  1.00  0.00     0.002 A 
HETATM   13  C   LIG     1      26.726  23.425  21.412  1.00  0.00     0.013 A 
HETATM   14  C   LIG     1      26.003  23.156  25.067  1.00  0.00    -0.002 A 
HETATM   15  C   LIG     1      26.586  23.536  23.838  1.00  0.00    -0.003 A 
HETATM   16  C   LIG     1      26.099  23.005  22.611  1.00  0.00    -0.013 A 
HETATM   17  C   LIG     1      25.010  22.078  22.633  1.00  0.00    -0.013 A 
HETATM   18  C   LIG     1      24.434  21.707  23.880  1.00  0.00    -0.003 A 
HETATM   19  C   LIG     1      23.354  20.789  23.927  1.00  0.00    -0.024 A 
HETATM   20  C   LIG     1      22.848  20.246  22.742  1.00  0.00     0.012 A 
HETATM   21  C   LIG     1      23.403  20.603  21.518  1.00  0.00     0.002 A 
HETATM   22  C   LIG     1      24.467  21.504  21.456  1.00  0.00     0.013 A 
ENDROOT
TORSDOF 0
ENDMDL
MODEL 13
REMARK VINA RESULT:      -5.8      1.785      4.065
REMARK  0 active torsions:
REMARK  status: ('A' for Active; 'I' for Inactive)
ROOT
HETATM    1  C   LIG     1      25.328  22.682  25.244  1.00  0.00    -0.002 A 
HETATM    2  C   LIG     1      24.905  22.430  26.573  1.00  0.00    -0.024 A 
HETATM    3  C   LIG     1      25.559  23.055  27.642  1.00  0.00     0.013 A 
HETATM    4  C   LIG     1      26.623  23.924  27.406  1.00  0.00     0.013 A 
HETATM    5  C   LIG     1      23.836  21.556  26.810  1.00  0.00     0.013 A 
HETATM    6  C   LIG     1      23.184  20.933  25.747  1.00  0.00     0.013 A 
HETATM    7  C   LIG     1      23.591  21.173  24.428  1.00  0.00    -0.024 A 
HETATM    8  C   LIG     1      22.935  20.545  23.361  1.00  0.00     0.013 A 
HETATM    9  C   LIG     1      23.339  20.784  22.048  1.00  0.00     0.013 A 
HETATM   10  C   LIG     1      24.406  21.653  21.779  1.00  0.00    -0.024 A 
HETATM   11  C   LIG     1      24.801  21.884  20.458  1.00  0.00     0.012 A 
HETATM   12  C   LIG     1      25.859  22.745  20.187  1.00  0.00     0.002 A 
HETATM   13  C   LIG     1      26.536  23.388  21.223  1.00  0.00     0.013 A 
HETATM   14  C   LIG     1      24.670  22.053  24.171  1.00  0.00    -0.002 A 
HETATM   15  C   LIG     1      25.085  22.299  22.844  1.00  0.00    -0.003 A 
HETATM   16  C   LIG     1      26.168  23.182  22.577  1.00  0.00    -0.013 A 
HETATM   17  C   LIG     1      26.836  23.822  23.667  1.00  0.00    -0.013 A 
HETATM   18  C   LIG     1      26.405  23.561  24.999  1.00  0.00    -0.003 A 
HETATM   19  C   LIG     1      27.052  24.183  26.097  1.00  0.00    -0.024 A 
HETATM   20  C   LIG     1      28.120  25.057  25.873  1.00  0.00     0.012 A 
HETATM   21  C   LIG     1      28.549  25.317  24.577  1.00  0.00     0.002 A 
HETATM   22  C   LIG     1      27.922  24.713  23.485  1.00  0.00     0.013 A 
ENDROOT
TORSDOF 0
ENDMDL
MODEL 14
REMARK VINA RESULT:      -5.7      1.069      6.286
REMARK  0 active torsions:
REMARK  status: ('A' for Active; 'I' for Inactive)
ROOT
HETATM    1  C   LIG     1      25.106  22.580  22.174  1.00  0.00    -0.002 A 
HETATM    2  C   LIG     1      24.360  22.158  21.046  1.00  0.00    -0.024 A 
HETATM    3  C   LIG     1      23.265  21.301  21.216  1.00  0.00     0.013 A 
HETATM    4  C   LIG     1      22.907  20.862  22.489  1.00  0.00     0.013 A 
HETATM    5  C   LIG     1      24.720  22.600  19.766  1.00  0.00     0.013 A 
HETATM    6  C   LIG     1      25.810  23.453  19.595  1.00  0.00     0.013 A 
HETATM    7  C   LIG     1      26.557  23.879  20.701  1.00  0.00    -0.024 A 
HETATM    8  C   LIG     1      27.651  24.736  20.526  1.00  0.00     0.013 A 
HETATM    9  C   LIG     1      28.395  25.161  21.626  1.00  0.00     0.013 A 
HETATM   10  C   LIG     1      28.058  24.736  22.919  1.00  0.00    -0.024 A 
HETATM   11  C   LIG     1      28.812  25.169  24.015  1.00  0.00     0.012 A 
HETATM   12  C   LIG     1      28.482  24.749  25.298  1.00  0.00     0.002 A 
HETATM   13  C   LIG     1      27.399  23.896  25.511  1.00  0.00     0.013 A 
HETATM   14  C   LIG     1      26.206  23.442  22.001  1.00  0.00    -0.002 A 
HETATM   15  C   LIG     1      26.954  23.867  23.119  1.00  0.00    -0.003 A 
HETATM   16  C   LIG     1      26.608  23.433  24.429  1.00  0.00    -0.013 A 
HETATM   17  C   LIG     1      25.491  22.558  24.605  1.00  0.00    -0.013 A 
HETATM   18  C   LIG     1      24.747  22.139  23.466  1.00  0.00    -0.003 A 
HETATM   19  C   LIG     1      23.635  21.271  23.615  1.00  0.00    -0.024 A 
HETATM   20  C   LIG     1      23.265  20.824  24.887  1.00  0.00     0.012 A 
HETATM   21  C   LIG     1      23.985  21.227  26.005  1.00  0.00     0.002 A 
HETATM   22  C   LIG     1      25.081  22.081  25.875  1.00  0.00     0.013 A 
ENDROOT
TORSDOF 0
ENDMDL
MODEL 15
REMARK VINA RESULT:      -5.7      0.988      4.830
REMARK  0 active torsions:
REMARK  status: ('A' for Active; 'I' for Inactive)
ROOT
HETATM    1  C   LIG     1      26.840  23.780  21.676  1.00  0.00    -0.002 A 
HETATM    2  C   LIG     1      26.641  23.523  23.055  1.00  0.00    -0.024 A 
HETATM    3  C   LIG     1      25.558  22.737  23.468  1.00  0.00     0.013 A 
HETATM    4  C   LIG     1      24.674  22.207  22.529  1.00  0.00     0.013 A 
HETATM    5  C   LIG     1      27.529  24.056  23.999  1.00  0.00     0.013 A 
HETATM    6  C   LIG     1      28.608  24.839  23.590  1.00  0.00     0.013 A 
HETATM    7  C   LIG     1      28.817  25.101  22.229  1.00  0.00    -0.024 A 
HETATM    8  C   LIG     1      29.901  25.888  21.821  1.00  0.00     0.013 A 
HETATM    9  C   LIG     1      30.111  26.150  20.467  1.00  0.00     0.013 A 
HETATM   10  C   LIG     1      29.239  25.630  19.500  1.00  0.00    -0.024 A 
HETATM   11  C   LIG     1      29.460  25.900  18.145  1.00  0.00     0.012 A 
HETATM   12  C   LIG     1      28.597  25.387  17.183  1.00  0.00     0.002 A 
HETATM   13  C   LIG     1      27.507  24.599  17.552  1.00  0.00     0.013 A 
HETATM   14  C   LIG     1      27.929  24.570  21.263  1.00  0.00    -0.002 A 
HETATM   15  C   LIG     1      28.134  24.831  19.891  1.00  0.00    -0.003 A 
HETATM   16  C   LIG     1      27.246  24.301  18.913  1.00  0.00    -0.013 A 
HETATM   17  C   LIG     1      26.140  23.498  19.333  1.00  0.00    -0.013 A 
HETATM   18  C   LIG     1      25.948  23.246  20.720  1.00  0.00    -0.003 A 
HETATM   19  C   LIG     1      24.858  22.453  21.161  1.00  0.00    -0.024 A 
HETATM   20  C   LIG     1      23.965  21.915  20.229  1.00  0.00     0.012 A 
HETATM   21  C   LIG     1      24.144  22.157  18.872  1.00  0.00     0.002 A 
HETATM   22  C   LIG     1      25.212  22.934  18.423  1.00  0.00     0.013 A 
ENDROOT
TORSDOF 0
ENDMDL
MODEL 16
REMARK VINA RESULT:      -5.6      1.037      4.727
REMARK  0 active torsions:
REMARK  status: ('A' for Active; 'I' for Inactive)
ROOT
HETATM    1  C   LIG     1      25.884  23.262  22.066  1.00  0.00    -0.002 A 
HETATM    2  C   LIG     1      24.751  22.457  22.345  1.00  0.00    -0.024 A 
HETATM    3  C   LIG     1      23.925  22.030  21.297  1.00  0.00     0.013 A 
HETATM    4  C   LIG     1      24.212  22.393  19.983  1.00  0.00     0.013 A 
HETATM    5  C   LIG     1      24.462  22.092  23.666  1.00  0.00     0.013 A 
HETATM    6  C   LIG     1      25.283  22.516  24.711  1.00  0.00     0.013 A 
HETATM    7  C   LIG     1      26.406  23.313  24.451  1.00  0.00    -0.024 A 
HETATM    8  C   LIG     1      27.229  23.738  25.502  1.00  0.00     0.013 A 
HETATM    9  C   LIG     1      28.348  24.530  25.244  1.00  0.00     0.013 A 
HETATM   10  C   LIG     1      28.662  24.910  23.932  1.00  0.00    -0.024 A 
HETATM   11  C   LIG     1      29.786  25.705  23.686  1.00  0.00     0.012 A 
HETATM   12  C   LIG     1      30.101  26.085  22.386  1.00  0.00     0.002 A 
HETATM   13  C   LIG     1      29.305  25.681  21.314  1.00  0.00     0.013 A 
HETATM   14  C   LIG     1      26.711  23.690  23.121  1.00  0.00    -0.002 A 
HETATM   15  C   LIG     1      27.842  24.491  22.852  1.00  0.00    -0.003 A 
HETATM   16  C   LIG     1      28.156  24.875  21.518  1.00  0.00    -0.013 A 
HETATM   17  C   LIG     1      27.315  24.440  20.448  1.00  0.00    -0.013 A 
HETATM   18  C   LIG     1      26.179  23.633  20.737  1.00  0.00    -0.003 A 
HETATM   19  C   LIG     1      25.329  23.189  19.692  1.00  0.00    -0.024 A 
HETATM   20  C   LIG     1      25.606  23.546  18.368  1.00  0.00     0.012 A 
HETATM   21  C   LIG     1      26.713  24.335  18.076  1.00  0.00     0.002 A 
HETATM   22  C   LIG     1      27.559  24.779  19.093  1.00  0.00     0.013 A 
ENDROOT
TORSDOF 0
ENDMDL
MODEL 17
REMARK VINA RESULT:      -5.5      2.449      5.665
REMARK  0 active torsions:
REMARK  status: ('A' for Active; 'I' for Inactive)
ROOT
HETATM    1  C   LIG     1      25.336  22.350  23.957  1.00  0.00    -0.002 A 
HETATM    2  C   LIG     1      26.008  22.765  22.780  1.00  0.00    -0.024 A 
HETATM    3  C   LIG     1      27.016  23.734  22.859  1.00  0.00     0.013 A 
HETATM    4  C   LIG     1      27.362  24.291  24.089  1.00  0.00     0.013 A 
HETATM    5  C   LIG     1      25.660  22.206  21.544  1.00  0.00     0.013 A 
HETATM    6  C   LIG     1      24.655  21.241  21.463  1.00  0.00     0.013 A 
HETATM    7  C   LIG     1      23.982  20.821  22.618  1.00  0.00    -0.024 A 
HETATM    8  C   LIG     1      22.974  19.853  22.534  1.00  0.00     0.013 A 
HETATM    9  C   LIG     1      22.304  19.433  23.683  1.00  0.00     0.013 A 
HETATM   10  C   LIG     1      22.631  19.975  24.934  1.00  0.00    -0.024 A 
HETATM   11  C   LIG     1      21.951  19.546  26.079  1.00  0.00     0.012 A 
HETATM   12  C   LIG     1      22.271  20.082  27.321  1.00  0.00     0.002 A 
HETATM   13  C   LIG     1      23.270  21.048  27.444  1.00  0.00     0.013 A 
HETATM   14  C   LIG     1      24.322  21.377  23.875  1.00  0.00    -0.002 A 
HETATM   15  C   LIG     1      23.649  20.958  25.042  1.00  0.00    -0.003 A 
HETATM   16  C   LIG     1      23.984  21.511  26.309  1.00  0.00    -0.013 A 
HETATM   17  C   LIG     1      25.013  22.499  26.392  1.00  0.00    -0.013 A 
HETATM   18  C   LIG     1      25.682  22.911  25.205  1.00  0.00    -0.003 A 
HETATM   19  C   LIG     1      26.707  23.890  25.261  1.00  0.00    -0.024 A 
HETATM   20  C   LIG     1      27.064  24.456  26.489  1.00  0.00     0.012 A 
HETATM   21  C   LIG     1      26.416  24.061  27.654  1.00  0.00     0.002 A 
HETATM   22  C   LIG     1      25.406  23.098  27.615  1.00  0.00     0.013 A 
ENDROOT
TORSDOF 0
ENDMDL
MODEL 18
REMARK VINA RESULT:      -5.5      2.846      6.688
REMARK  0 active torsions:
REMARK  status: ('A' for Active; 'I' for Inactive)
ROOT
HETATM    1  C   LIG     1      26.773  24.048  26.328  1.00  0.00    -0.002 A 
HETATM    2  C   LIG     1      26.176  23.683  27.560  1.00  0.00    -0.024 A 
HETATM    3  C   LIG     1      25.130  22.752  27.578  1.00  0.00     0.013 A 
HETATM    4  C   LIG     1      24.674  22.182  26.390  1.00  0.00     0.013 A 
HETATM    5  C   LIG     1      26.633  24.255  28.754  1.00  0.00     0.013 A 
HETATM    6  C   LIG     1      27.675  25.183  28.738  1.00  0.00     0.013 A 
HETATM    7  C   LIG     1      28.275  25.553  27.527  1.00  0.00    -0.024 A 
HETATM    8  C   LIG     1      29.321  26.485  27.514  1.00  0.00     0.013 A 
HETATM    9  C   LIG     1      29.920  26.854  26.310  1.00  0.00     0.013 A 
HETATM   10  C   LIG     1      29.483  26.297  25.099  1.00  0.00    -0.024 A 
HETATM   11  C   LIG     1      30.091  26.676  23.898  1.00  0.00     0.012 A 
HETATM   12  C   LIG     1      29.660  26.127  22.695  1.00  0.00     0.002 A 
HETATM   13  C   LIG     1      28.622  25.196  22.669  1.00  0.00     0.013 A 
HETATM   14  C   LIG     1      27.824  24.984  26.312  1.00  0.00    -0.002 A 
HETATM   15  C   LIG     1      28.425  25.352  25.090  1.00  0.00    -0.003 A 
HETATM   16  C   LIG     1      27.978  24.785  23.864  1.00  0.00    -0.013 A 
HETATM   17  C   LIG     1      26.910  23.834  23.880  1.00  0.00    -0.013 A 
HETATM   18  C   LIG     1      26.315  23.474  25.122  1.00  0.00    -0.003 A 
HETATM   19  C   LIG     1      25.255  22.533  25.164  1.00  0.00    -0.024 A 
HETATM   20  C   LIG     1      24.789  21.955  23.979  1.00  0.00     0.012 A 
HETATM   21  C   LIG     1      25.363  22.300  22.761  1.00  0.00     0.002 A 
HETATM   22  C   LIG     1      26.408  23.224  22.704  1.00  0.00     0.013 A 
ENDROOT
TORSDOF 0
ENDMDL
MODEL 19
REMARK VINA RESULT:      -5.5      2.433      6.718
REMARK  0 active torsions:
REMARK  status: ('A' for Active; 'I' for Inactive)
ROOT
HETATM    1  C   LIG     1      26.370  23.561  25.015  1.00  0.00    -0.002 A 
HETATM    2  C   LIG     1      25.305  22.628  24.989  1.00  0.00    -0.024 A 
HETATM    3  C   LIG     1      24.678  22.253  26.185  1.00  0.00     0.013 A 
HETATM    4  C   LIG     1      25.098  22.795  27.399  1.00  0.00     0.013 A 
HETATM    5  C   LIG     1      24.883  22.083  23.769  1.00  0.00     0.013 A 
HETATM    6  C   LIG     1      25.506  22.455  22.578  1.00  0.00     0.013 A 
HETATM    7  C   LIG     1      26.561  23.377  22.588  1.00  0.00    -0.024 A 
HETATM    8  C   LIG     1      27.185  23.748  21.390  1.00  0.00     0.013 A 
HETATM    9  C   LIG     1      28.234  24.666  21.398  1.00  0.00     0.013 A 
HETATM   10  C   LIG     1      28.678  25.228  22.604  1.00  0.00    -0.024 A 
HETATM   11  C   LIG     1      29.732  26.147  22.599  1.00  0.00     0.012 A 
HETATM   12  C   LIG     1      30.175  26.706  23.792  1.00  0.00     0.002 A 
HETATM   13  C   LIG     1      29.578  26.360  25.005  1.00  0.00     0.013 A 
HETATM   14  C   LIG     1      26.999  23.936  23.812  1.00  0.00    -0.002 A 
HETATM   15  C   LIG     1      28.060  24.865  23.829  1.00  0.00    -0.003 A 
HETATM   16  C   LIG     1      28.507  25.432  25.055  1.00  0.00    -0.013 A 
HETATM   17  C   LIG     1      27.868  25.052  26.276  1.00  0.00    -0.013 A 
HETATM   18  C   LIG     1      26.799  24.113  26.241  1.00  0.00    -0.003 A 
HETATM   19  C   LIG     1      26.150  23.720  27.439  1.00  0.00    -0.024 A 
HETATM   20  C   LIG     1      26.561  24.256  28.664  1.00  0.00     0.012 A 
HETATM   21  C   LIG     1      27.605  25.173  28.708  1.00  0.00     0.002 A 
HETATM   22  C   LIG     1      28.253  25.570  27.538  1.00  0.00     0.013 A 
ENDROOT
TORSDOF 0
ENDMDL
MODEL 20
REMARK VINA RESULT:      -5.4      2.736      6.016
REMARK  0 active torsions:
REMARK  status: ('A' for Active; 'I' for Inactive)
ROOT
HETATM    1  C   LIG     1      24.558  20.887  18.214  1.00  0.00    -0.002 A 
HETATM    2  C   LIG     1      23.261  20.675  18.742  1.00  0.00    -0.024 A 
HETATM    3  C   LIG     1      22.434  19.690  18.186  1.00  0.00     0.013 A 
HETATM    4  C   LIG     1      22.883  18.918  17.115  1.00  0.00     0.013 A 
HETATM    5  C   LIG     1      22.810  21.451  19.818  1.00  0.00     0.013 A 
HETATM    6  C   LIG     1      23.631  22.432  20.373  1.00  0.00     0.013 A 
HETATM    7  C   LIG     1      24.916  22.653  19.861  1.00  0.00    -0.024 A 
HETATM    8  C   LIG     1      25.738  23.640  20.420  1.00  0.00     0.013 A 
HETATM    9  C   LIG     1      27.018  23.860  19.912  1.00  0.00     0.013 A 
HETATM   10  C   LIG     1      27.497  23.098  18.837  1.00  0.00    -0.024 A 
HETATM   11  C   LIG     1      28.782  23.330  18.336  1.00  0.00     0.012 A 
HETATM   12  C   LIG     1      29.260  22.577  17.268  1.00  0.00     0.002 A 
HETATM   13  C   LIG     1      28.469  21.586  16.686  1.00  0.00     0.013 A 
HETATM   14  C   LIG     1      25.386  21.877  18.774  1.00  0.00    -0.002 A 
HETATM   15  C   LIG     1      26.680  22.095  18.254  1.00  0.00    -0.003 A 
HETATM   16  C   LIG     1      27.161  21.320  17.162  1.00  0.00    -0.013 A 
HETATM   17  C   LIG     1      26.320  20.313  16.594  1.00  0.00    -0.013 A 
HETATM   18  C   LIG     1      25.017  20.108  17.130  1.00  0.00    -0.003 A 
HETATM   19  C   LIG     1      24.164  19.116  16.583  1.00  0.00    -0.024 A 
HETATM   20  C   LIG     1      24.602  18.335  15.509  1.00  0.00     0.012 A 
HETATM   21  C   LIG     1      25.872  18.528  14.977  1.00  0.00     0.002 A 
HETATM   22  C   LIG     1      26.724  19.500  15.506  1.00  0.00     0.013 A 
ENDROOT
TORSDOF 0
ENDMDL
