REMARK  0 active torsions:
REMARK  status: ('A' for Active; 'I' for Inactive)
ROOT
HETATM    1  C   LIG     1      -0.874   0.753   0.014  1.00  0.00    -0.002 A 
HETATM    2  C   LIG     1      -1.812   1.815   0.017  1.00  0.00    -0.024 A 
HETATM    3  C   LIG     1      -3.181   1.535   0.111  1.00  0.00     0.013 A 
HETATM    4  C   LIG     1      -3.625   0.217   0.202  1.00  0.00     0.013 A 
HETATM    5  C   LIG     1      -1.366   3.140  -0.075  1.00  0.00     0.013 A 
HETATM    6  C   LIG     1      -0.003   3.421  -0.169  1.00  0.00     0.013 A 
HETATM    7  C   LIG     1       0.936   2.381  -0.173  1.00  0.00    -0.024 A 
HETATM    8  C   LIG     1       2.304   2.666  -0.268  1.00  0.00     0.013 A 
HETATM    9  C   LIG     1       3.240   1.632  -0.271  1.00  0.00     0.013 A 
HETATM   10  C   LIG     1       2.823   0.296  -0.180  1.00  0.00    -0.024 A 
HETATM   11  C   LIG     1       3.771  -0.732  -0.185  1.00  0.00     0.012 A 
HETATM   12  C   LIG     1       3.362  -2.058  -0.096  1.00  0.00     0.002 A 
HETATM   13  C   LIG     1       2.008  -2.380   0.000  1.00  0.00     0.013 A 
HETATM   14  C   LIG     1       0.501   1.037  -0.081  1.00  0.00    -0.002 A 
HETATM   15  C   LIG     1       1.442  -0.015  -0.084  1.00  0.00    -0.003 A 
HETATM   16  C   LIG     1       1.014  -1.369   0.008  1.00  0.00    -0.013 A 
HETATM   17  C   LIG     1      -0.383  -1.657   0.105  1.00  0.00    -0.013 A 
HETATM   18  C   LIG     1      -1.318  -0.584   0.106  1.00  0.00    -0.003 A 
HETATM   19  C   LIG     1      -2.709  -0.844   0.201  1.00  0.00    -0.024 A 
HETATM   20  C   LIG     1      -3.167  -2.162   0.293  1.00  0.00     0.012 A 
HETATM   21  C   LIG     1      -2.262  -3.217   0.292  1.00  0.00     0.002 A 
HETATM   22  C   LIG     1      -0.890  -2.977   0.200  1.00  0.00     0.013 A 
ENDROOT
TORSDOF 0
