REMARK  5 active torsions:
REMARK  status: ('A' for Active; 'I' for Inactive)
REMARK    1  A    between atoms: C_2  and  N_3 
REMARK    2  A    between atoms: N_3  and  C_4 
REMARK    3  A    between atoms: C_6  and  N_7 
REMARK    4  A    between atoms: N_7  and  C_8 
REMARK    5  A    between atoms: N_7  and  C_10 
ROOT
HETATM    1  C   LIG     1       1.520  -0.373  -0.641  1.00  0.00     0.741 A 
HETATM    2  N   LIG     1       0.256  -0.660  -0.237  1.00  0.00     0.130 NA
HETATM    3  C   LIG     1      -0.757   0.223  -0.448  1.00  0.00     0.743 A 
HETATM    4  N   LIG     1      -0.491   1.398  -1.078  1.00  0.00    -0.030 NA
HETATM    5  C   LIG     1       0.769   1.689  -1.486  1.00  0.00     0.259 A 
HETATM    6 CL   LIG     1       1.098   3.206  -2.294  1.00  0.00    -0.040 Cl
HETATM    7  N   LIG     1       1.773   0.805  -1.269  1.00  0.00    -0.030 NA
ENDROOT
BRANCH   3   8
HETATM    8  N   LIG     1      -2.101  -0.089  -0.017  1.00  0.00    -0.214 N 
BRANCH   8   9
HETATM    9  C   LIG     1      -3.200   0.851  -0.287  1.00  0.00     0.137 C 
HETATM   10  C   LIG     1      -3.172   2.012   0.703  1.00  0.00     0.027 C 
ENDBRANCH   8   9
BRANCH   8  11
HETATM   11  C   LIG     1      -2.389  -1.381   0.626  1.00  0.00     0.137 C 
HETATM   12  C   LIG     1      -1.942  -1.369   2.085  1.00  0.00     0.027 C 
ENDBRANCH   8  11
ENDBRANCH   3   8
BRANCH   1  13
HETATM   13  N   LIG     1       2.571  -1.320  -0.410  1.00  0.00    -0.222 N 
HETATM   14  H   LIG     1       2.326  -2.249   0.001  1.00  0.00     0.177 HD
BRANCH  13  15
HETATM   15  C   LIG     1       3.964  -1.066  -0.775  1.00  0.00     0.134 C 
HETATM   16  C   LIG     1       4.601  -0.071   0.190  1.00  0.00     0.027 C 
ENDBRANCH  13  15
ENDBRANCH   1  13
TORSDOF 5
