REMARK  3 active torsions:
REMARK  status: ('A' for Active; 'I' for Inactive)
REMARK    1  A    between atoms: C_2  and  C_4 
REMARK    2  A    between atoms: C_2  and  O_3 
REMARK    3  A    between atoms: C_5  and  O_6 
ROOT
HETATM    1  C   LIG     1      -0.818  -0.560  -0.221  1.00  0.00     0.094 A 
HETATM    2  C   LIG     1       0.460   0.017  -0.016  1.00  0.00     0.108 A 
HETATM    3  C   LIG     1       0.579   1.437  -0.006  1.00  0.00     0.068 A 
HETATM    4 CL   LIG     1       2.085   2.317   0.235  1.00  0.00    -0.081 Cl
HETATM    5  C   LIG     1      -0.557   2.229  -0.195  1.00  0.00     0.028 A 
HETATM    6  C   LIG     1      -1.805   1.651  -0.403  1.00  0.00     0.027 A 
HETATM    7  C   LIG     1      -1.944   0.265  -0.421  1.00  0.00     0.053 A 
HETATM    8 CL   LIG     1      -3.539  -0.397  -0.776  1.00  0.00    -0.083 Cl
ENDROOT
BRANCH   1   9
HETATM    9  C   LIG     1      -0.963  -2.034  -0.231  1.00  0.00     0.180 C 
HETATM   10  O   LIG     1      -0.204  -2.735  -0.952  1.00  0.00    -0.646 OA
BRANCH   9  11
HETATM   11  O   LIG     1      -1.913  -2.666   0.567  1.00  0.00    -0.772 OA
HETATM   12  H   LIG     1      -2.485  -2.145   1.220  1.00  0.00     0.167 HD
ENDBRANCH   9  11
ENDBRANCH   1   9
BRANCH   2  13
HETATM   13  O   LIG     1       1.533  -0.878   0.181  1.00  0.00    -0.353 OA
HETATM   14  C   LIG     1       2.903  -0.567   0.398  1.00  0.00     0.210 C 
ENDBRANCH   2  13
TORSDOF 3
