MODEL 1
REMARK VINA RESULT:      -6.0      0.000      0.000
REMARK  3 active torsions:
REMARK  status: ('A' for Active; 'I' for Inactive)
REMARK    1  A    between atoms: C_2  and  C_4 
REMARK    2  A    between atoms: C_2  and  O_3 
REMARK    3  A    between atoms: C_5  and  O_6 
ROOT
HETATM    1  C   LIG     1      14.495  31.305  15.723  1.00  0.00     0.094 A 
HETATM    2  C   LIG     1      15.512  32.289  15.794  1.00  0.00     0.108 A 
HETATM    3  C   LIG     1      16.394  32.446  14.685  1.00  0.00     0.068 A 
HETATM    4 CL   LIG     1      17.707  33.616  14.604  1.00  0.00    -0.081 Cl
HETATM    5  C   LIG     1      16.240  31.635  13.557  1.00  0.00     0.028 A 
HETATM    6  C   LIG     1      15.242  30.667  13.503  1.00  0.00     0.027 A 
HETATM    7  C   LIG     1      14.372  30.493  14.577  1.00  0.00     0.053 A 
HETATM    8 CL   LIG     1      13.188  29.191  14.473  1.00  0.00    -0.083 Cl
ENDROOT
BRANCH   1   9
HETATM    9  C   LIG     1      13.566  31.129  16.864  1.00  0.00     0.180 C 
HETATM   10  O   LIG     1      12.322  31.145  16.669  1.00  0.00    -0.646 OA
BRANCH   9  11
HETATM   11  O   LIG     1      14.047  30.919  18.153  1.00  0.00    -0.772 OA
HETATM   12  H   LIG     1      13.877  31.586  18.896  1.00  0.00     0.167 HD
ENDBRANCH   9  11
ENDBRANCH   1   9
BRANCH   2  13
HETATM   13  O   LIG     1      15.564  33.061  16.973  1.00  0.00    -0.353 OA
HETATM   14  C   LIG     1      15.071  34.379  17.179  1.00  0.00     0.210 C 
ENDBRANCH   2  13
TORSDOF 3
ENDMDL
MODEL 2
REMARK VINA RESULT:      -5.9      7.516      9.513
REMARK  3 active torsions:
REMARK  status: ('A' for Active; 'I' for Inactive)
REMARK    1  A    between atoms: C_2  and  C_4 
REMARK    2  A    between atoms: C_2  and  O_3 
REMARK    3  A    between atoms: C_5  and  O_6 
ROOT
HETATM    1  C   LIG     1      18.396  37.531  20.491  1.00  0.00     0.094 A 
HETATM    2  C   LIG     1      17.436  37.072  21.427  1.00  0.00     0.108 A 
HETATM    3  C   LIG     1      17.061  37.928  22.502  1.00  0.00     0.068 A 
HETATM    4 CL   LIG     1      15.888  37.519  23.750  1.00  0.00    -0.081 Cl
HETATM    5  C   LIG     1      17.641  39.195  22.614  1.00  0.00     0.028 A 
HETATM    6  C   LIG     1      18.588  39.632  21.693  1.00  0.00     0.027 A 
HETATM    7  C   LIG     1      18.972  38.810  20.636  1.00  0.00     0.053 A 
HETATM    8 CL   LIG     1      20.240  39.394  19.559  1.00  0.00    -0.083 Cl
ENDROOT
BRANCH   1   9
HETATM    9  C   LIG     1      18.796  36.658  19.363  1.00  0.00     0.180 C 
HETATM   10  O   LIG     1      19.919  36.087  19.378  1.00  0.00    -0.646 OA
BRANCH   9  11
HETATM   11  O   LIG     1      17.937  36.434  18.290  1.00  0.00    -0.772 OA
HETATM   12  H   LIG     1      16.954  36.236  18.433  1.00  0.00     0.167 HD
ENDBRANCH   9  11
ENDBRANCH   1   9
BRANCH   2  13
HETATM   13  O   LIG     1      16.905  35.784  21.206  1.00  0.00    -0.353 OA
HETATM   14  C   LIG     1      15.578  35.436  20.834  1.00  0.00     0.210 C 
ENDBRANCH   2  13
TORSDOF 3
ENDMDL
MODEL 3
REMARK VINA RESULT:      -5.7      8.044      9.591
REMARK  3 active torsions:
REMARK  status: ('A' for Active; 'I' for Inactive)
REMARK    1  A    between atoms: C_2  and  C_4 
REMARK    2  A    between atoms: C_2  and  O_3 
REMARK    3  A    between atoms: C_5  and  O_6 
ROOT
HETATM    1  C   LIG     1      17.419  36.945  23.291  1.00  0.00     0.094 A 
HETATM    2  C   LIG     1      17.670  37.402  21.973  1.00  0.00     0.108 A 
HETATM    3  C   LIG     1      17.568  36.476  20.894  1.00  0.00     0.068 A 
HETATM    4 CL   LIG     1      17.844  36.872  19.201  1.00  0.00    -0.081 Cl
HETATM    5  C   LIG     1      17.223  35.146  21.152  1.00  0.00     0.028 A 
HETATM    6  C   LIG     1      16.987  34.708  22.451  1.00  0.00     0.027 A 
HETATM    7  C   LIG     1      17.085  35.595  23.521  1.00  0.00     0.053 A 
HETATM    8 CL   LIG     1      16.858  34.951  25.147  1.00  0.00    -0.083 Cl
ENDROOT
BRANCH   1   9
HETATM    9  C   LIG     1      17.516  37.893  24.425  1.00  0.00     0.180 C 
HETATM   10  O   LIG     1      16.469  38.385  24.924  1.00  0.00    -0.646 OA
BRANCH   9  11
HETATM   11  O   LIG     1      18.751  38.234  24.970  1.00  0.00    -0.772 OA
HETATM   12  H   LIG     1      19.557  38.410  24.383  1.00  0.00     0.167 HD
ENDBRANCH   9  11
ENDBRANCH   1   9
BRANCH   2  13
HETATM   13  O   LIG     1      17.992  38.768  21.828  1.00  0.00    -0.353 OA
HETATM   14  C   LIG     1      19.098  39.338  21.140  1.00  0.00     0.210 C 
ENDBRANCH   2  13
TORSDOF 3
ENDMDL
MODEL 4
REMARK VINA RESULT:      -5.5      0.842      3.510
REMARK  3 active torsions:
REMARK  status: ('A' for Active; 'I' for Inactive)
REMARK    1  A    between atoms: C_2  and  C_4 
REMARK    2  A    between atoms: C_2  and  O_3 
REMARK    3  A    between atoms: C_5  and  O_6 
ROOT
HETATM    1  C   LIG     1      15.419  32.378  15.658  1.00  0.00     0.094 A 
HETATM    2  C   LIG     1      14.479  31.319  15.603  1.00  0.00     0.108 A 
HETATM    3  C   LIG     1      14.491  30.447  14.476  1.00  0.00     0.068 A 
HETATM    4 CL   LIG     1      13.398  29.085  14.247  1.00  0.00    -0.081 Cl
HETATM    5  C   LIG     1      15.422  30.649  13.453  1.00  0.00     0.028 A 
HETATM    6  C   LIG     1      16.335  31.697  13.515  1.00  0.00     0.027 A 
HETATM    7  C   LIG     1      16.339  32.564  14.605  1.00  0.00     0.053 A 
HETATM    8 CL   LIG     1      17.465  33.919  14.574  1.00  0.00    -0.083 Cl
ENDROOT
BRANCH   1   9
HETATM    9  C   LIG     1      15.425  33.292  16.823  1.00  0.00     0.180 C 
HETATM   10  O   LIG     1      15.155  34.512  16.665  1.00  0.00    -0.646 OA
BRANCH   9  11
HETATM   11  O   LIG     1      15.702  32.819  18.103  1.00  0.00    -0.772 OA
HETATM   12  H   LIG     1      15.738  33.443  18.900  1.00  0.00     0.167 HD
ENDBRANCH   9  11
ENDBRANCH   1   9
BRANCH   2  13
HETATM   13  O   LIG     1      13.598  31.199  16.699  1.00  0.00    -0.353 OA
HETATM   14  C   LIG     1      12.270  31.693  16.811  1.00  0.00     0.210 C 
ENDBRANCH   2  13
TORSDOF 3
ENDMDL
MODEL 5
REMARK VINA RESULT:      -5.5      7.540      9.640
REMARK  3 active torsions:
REMARK  status: ('A' for Active; 'I' for Inactive)
REMARK    1  A    between atoms: C_2  and  C_4 
REMARK    2  A    between atoms: C_2  and  O_3 
REMARK    3  A    between atoms: C_5  and  O_6 
ROOT
HETATM    1  C   LIG     1      17.647  37.666  22.411  1.00  0.00     0.094 A 
HETATM    2  C   LIG     1      17.045  36.383  22.392  1.00  0.00     0.108 A 
HETATM    3  C   LIG     1      17.021  35.653  21.168  1.00  0.00     0.068 A 
HETATM    4 CL   LIG     1      16.318  34.052  20.967  1.00  0.00    -0.081 Cl
HETATM    5  C   LIG     1      17.589  36.210  20.018  1.00  0.00     0.028 A 
HETATM    6  C   LIG     1      18.170  37.473  20.048  1.00  0.00     0.027 A 
HETATM    7  C   LIG     1      18.200  38.206  21.232  1.00  0.00     0.053 A 
HETATM    8 CL   LIG     1      18.875  39.834  21.175  1.00  0.00    -0.083 Cl
ENDROOT
BRANCH   1   9
HETATM    9  C   LIG     1      17.684  38.438  23.674  1.00  0.00     0.180 C 
HETATM   10  O   LIG     1      16.838  39.349  23.879  1.00  0.00    -0.646 OA
BRANCH   9  11
HETATM   11  O   LIG     1      18.629  38.158  24.658  1.00  0.00    -0.772 OA
HETATM   12  H   LIG     1      19.372  38.810  24.878  1.00  0.00     0.167 HD
ENDBRANCH   9  11
ENDBRANCH   1   9
BRANCH   2  13
HETATM   13  O   LIG     1      16.519  35.913  23.614  1.00  0.00    -0.353 OA
HETATM   14  C   LIG     1      17.104  34.987  24.520  1.00  0.00     0.210 C 
ENDBRANCH   2  13
TORSDOF 3
ENDMDL
MODEL 6
REMARK VINA RESULT:      -5.5      2.408      4.697
REMARK  3 active torsions:
REMARK  status: ('A' for Active; 'I' for Inactive)
REMARK    1  A    between atoms: C_2  and  C_4 
REMARK    2  A    between atoms: C_2  and  O_3 
REMARK    3  A    between atoms: C_5  and  O_6 
ROOT
HETATM    1  C   LIG     1      15.311  31.815  15.269  1.00  0.00     0.094 A 
HETATM    2  C   LIG     1      14.788  30.690  14.585  1.00  0.00     0.108 A 
HETATM    3  C   LIG     1      13.555  30.129  15.029  1.00  0.00     0.068 A 
HETATM    4 CL   LIG     1      12.764  28.736  14.297  1.00  0.00    -0.081 Cl
HETATM    5  C   LIG     1      12.889  30.695  16.120  1.00  0.00     0.028 A 
HETATM    6  C   LIG     1      13.417  31.795  16.787  1.00  0.00     0.027 A 
HETATM    7  C   LIG     1      14.622  32.357  16.374  1.00  0.00     0.053 A 
HETATM    8 CL   LIG     1      15.274  33.694  17.320  1.00  0.00    -0.083 Cl
ENDROOT
BRANCH   1   9
HETATM    9  C   LIG     1      16.589  32.415  14.821  1.00  0.00     0.180 C 
HETATM   10  O   LIG     1      17.650  32.183  15.459  1.00  0.00    -0.646 OA
BRANCH   9  11
HETATM   11  O   LIG     1      16.645  33.216  13.683  1.00  0.00    -0.772 OA
HETATM   12  H   LIG     1      15.839  33.335  13.081  1.00  0.00     0.167 HD
ENDBRANCH   9  11
ENDBRANCH   1   9
BRANCH   2  13
HETATM   13  O   LIG     1      15.536  30.213  13.488  1.00  0.00    -0.353 OA
HETATM   14  C   LIG     1      15.755  28.863  13.099  1.00  0.00     0.210 C 
ENDBRANCH   2  13
TORSDOF 3
ENDMDL
MODEL 7
REMARK VINA RESULT:      -5.5      2.384      3.342
REMARK  3 active torsions:
REMARK  status: ('A' for Active; 'I' for Inactive)
REMARK    1  A    between atoms: C_2  and  C_4 
REMARK    2  A    between atoms: C_2  and  O_3 
REMARK    3  A    between atoms: C_5  and  O_6 
ROOT
HETATM    1  C   LIG     1      14.889  30.945  15.106  1.00  0.00     0.094 A 
HETATM    2  C   LIG     1      15.446  32.025  15.835  1.00  0.00     0.108 A 
HETATM    3  C   LIG     1      14.650  32.667  16.828  1.00  0.00     0.068 A 
HETATM    4 CL   LIG     1      15.183  34.019  17.822  1.00  0.00    -0.081 Cl
HETATM    5  C   LIG     1      13.346  32.223  17.064  1.00  0.00     0.028 A 
HETATM    6  C   LIG     1      12.807  31.167  16.337  1.00  0.00     0.027 A 
HETATM    7  C   LIG     1      13.566  30.527  15.359  1.00  0.00     0.053 A 
HETATM    8 CL   LIG     1      12.789  29.255  14.418  1.00  0.00    -0.083 Cl
ENDROOT
BRANCH   1   9
HETATM    9  C   LIG     1      15.701  30.262  14.073  1.00  0.00     0.180 C 
HETATM   10  O   LIG     1      15.982  29.040  14.201  1.00  0.00    -0.646 OA
BRANCH   9  11
HETATM   11  O   LIG     1      16.143  30.944  12.942  1.00  0.00    -0.772 OA
HETATM   12  H   LIG     1      15.706  30.807  12.039  1.00  0.00     0.167 HD
ENDBRANCH   9  11
ENDBRANCH   1   9
BRANCH   2  13
HETATM   13  O   LIG     1      16.777  32.376  15.525  1.00  0.00    -0.353 OA
HETATM   14  C   LIG     1      17.244  33.562  14.895  1.00  0.00     0.210 C 
ENDBRANCH   2  13
TORSDOF 3
ENDMDL
MODEL 8
REMARK VINA RESULT:      -5.4      7.742      8.873
REMARK  3 active torsions:
REMARK  status: ('A' for Active; 'I' for Inactive)
REMARK    1  A    between atoms: C_2  and  C_4 
REMARK    2  A    between atoms: C_2  and  O_3 
REMARK    3  A    between atoms: C_5  and  O_6 
ROOT
HETATM    1  C   LIG     1      17.039  37.136  22.020  1.00  0.00     0.094 A 
HETATM    2  C   LIG     1      18.045  38.046  21.609  1.00  0.00     0.108 A 
HETATM    3  C   LIG     1      18.660  37.862  20.336  1.00  0.00     0.068 A 
HETATM    4 CL   LIG     1      19.921  38.895  19.671  1.00  0.00    -0.081 Cl
HETATM    5  C   LIG     1      18.262  36.798  19.522  1.00  0.00     0.028 A 
HETATM    6  C   LIG     1      17.278  35.907  19.940  1.00  0.00     0.027 A 
HETATM    7  C   LIG     1      16.667  36.065  21.181  1.00  0.00     0.053 A 
HETATM    8 CL   LIG     1      15.492  34.849  21.681  1.00  0.00    -0.083 Cl
ENDROOT
BRANCH   1   9
HETATM    9  C   LIG     1      16.385  37.313  23.337  1.00  0.00     0.180 C 
HETATM   10  O   LIG     1      16.841  36.718  24.349  1.00  0.00    -0.646 OA
BRANCH   9  11
HETATM   11  O   LIG     1      15.283  38.152  23.483  1.00  0.00    -0.772 OA
HETATM   12  H   LIG     1      14.466  38.059  22.893  1.00  0.00     0.167 HD
ENDBRANCH   9  11
ENDBRANCH   1   9
BRANCH   2  13
HETATM   13  O   LIG     1      18.354  39.092  22.504  1.00  0.00    -0.353 OA
HETATM   14  C   LIG     1      19.445  39.173  23.412  1.00  0.00     0.210 C 
ENDBRANCH   2  13
TORSDOF 3
ENDMDL
MODEL 9
REMARK VINA RESULT:      -5.3      7.731     10.129
REMARK  3 active torsions:
REMARK  status: ('A' for Active; 'I' for Inactive)
REMARK    1  A    between atoms: C_2  and  C_4 
REMARK    2  A    between atoms: C_2  and  O_3 
REMARK    3  A    between atoms: C_5  and  O_6 
ROOT
HETATM    1  C   LIG     1      17.403  37.547  23.075  1.00  0.00     0.094 A 
HETATM    2  C   LIG     1      17.226  36.645  21.996  1.00  0.00     0.108 A 
HETATM    3  C   LIG     1      16.927  35.282  22.282  1.00  0.00     0.068 A 
HETATM    4 CL   LIG     1      16.677  34.032  21.067  1.00  0.00    -0.081 Cl
HETATM    5  C   LIG     1      16.813  34.861  23.610  1.00  0.00     0.028 A 
HETATM    6  C   LIG     1      16.997  35.754  24.661  1.00  0.00     0.027 A 
HETATM    7  C   LIG     1      17.293  37.091  24.405  1.00  0.00     0.053 A 
HETATM    8 CL   LIG     1      17.598  38.145  25.784  1.00  0.00    -0.083 Cl
ENDROOT
BRANCH   1   9
HETATM    9  C   LIG     1      17.710  38.969  22.798  1.00  0.00     0.180 C 
HETATM   10  O   LIG     1      16.845  39.856  23.032  1.00  0.00    -0.646 OA
BRANCH   9  11
HETATM   11  O   LIG     1      18.954  39.351  22.303  1.00  0.00    -0.772 OA
HETATM   12  H   LIG     1      19.126  40.293  21.976  1.00  0.00     0.167 HD
ENDBRANCH   9  11
ENDBRANCH   1   9
BRANCH   2  13
HETATM   13  O   LIG     1      17.347  37.183  20.697  1.00  0.00    -0.353 OA
HETATM   14  C   LIG     1      18.387  36.964  19.753  1.00  0.00     0.210 C 
ENDBRANCH   2  13
TORSDOF 3
ENDMDL
MODEL 10
REMARK VINA RESULT:      -5.2      6.634      9.065
REMARK  3 active torsions:
REMARK  status: ('A' for Active; 'I' for Inactive)
REMARK    1  A    between atoms: C_2  and  C_4 
REMARK    2  A    between atoms: C_2  and  O_3 
REMARK    3  A    between atoms: C_5  and  O_6 
ROOT
HETATM    1  C   LIG     1      17.257  36.717  22.325  1.00  0.00     0.094 A 
HETATM    2  C   LIG     1      17.640  36.747  20.961  1.00  0.00     0.108 A 
HETATM    3  C   LIG     1      18.270  37.919  20.450  1.00  0.00     0.068 A 
HETATM    4 CL   LIG     1      18.810  38.124  18.786  1.00  0.00    -0.081 Cl
HETATM    5  C   LIG     1      18.497  39.008  21.295  1.00  0.00     0.028 A 
HETATM    6  C   LIG     1      18.109  38.970  22.630  1.00  0.00     0.027 A 
HETATM    7  C   LIG     1      17.488  37.837  23.150  1.00  0.00     0.053 A 
HETATM    8 CL   LIG     1      16.946  37.892  24.827  1.00  0.00    -0.083 Cl
ENDROOT
BRANCH   1   9
HETATM    9  C   LIG     1      16.604  35.507  22.876  1.00  0.00     0.180 C 
HETATM   10  O   LIG     1      17.138  34.887  23.834  1.00  0.00    -0.646 OA
BRANCH   9  11
HETATM   11  O   LIG     1      15.390  35.053  22.367  1.00  0.00    -0.772 OA
HETATM   12  H   LIG     1      14.983  35.457  21.533  1.00  0.00     0.167 HD
ENDBRANCH   9  11
ENDBRANCH   1   9
BRANCH   2  13
HETATM   13  O   LIG     1      17.377  35.584  20.205  1.00  0.00    -0.353 OA
HETATM   14  C   LIG     1      16.231  35.295  19.416  1.00  0.00     0.210 C 
ENDBRANCH   2  13
TORSDOF 3
ENDMDL
MODEL 11
REMARK VINA RESULT:      -5.2      1.735      2.277
REMARK  3 active torsions:
REMARK  status: ('A' for Active; 'I' for Inactive)
REMARK    1  A    between atoms: C_2  and  C_4 
REMARK    2  A    between atoms: C_2  and  O_3 
REMARK    3  A    between atoms: C_5  and  O_6 
ROOT
HETATM    1  C   LIG     1      15.316  32.327  16.012  1.00  0.00     0.094 A 
HETATM    2  C   LIG     1      16.331  32.788  15.136  1.00  0.00     0.108 A 
HETATM    3  C   LIG     1      16.484  32.156  13.868  1.00  0.00     0.068 A 
HETATM    4 CL   LIG     1      17.688  32.602  12.663  1.00  0.00    -0.081 Cl
HETATM    5  C   LIG     1      15.637  31.103  13.512  1.00  0.00     0.028 A 
HETATM    6  C   LIG     1      14.650  30.654  14.383  1.00  0.00     0.027 A 
HETATM    7  C   LIG     1      14.485  31.254  15.629  1.00  0.00     0.053 A 
HETATM    8 CL   LIG     1      13.272  30.577  16.715  1.00  0.00    -0.083 Cl
ENDROOT
BRANCH   1   9
HETATM    9  C   LIG     1      15.139  32.974  17.332  1.00  0.00     0.180 C 
HETATM   10  O   LIG     1      15.539  32.391  18.375  1.00  0.00    -0.646 OA
BRANCH   9  11
HETATM   11  O   LIG     1      14.556  34.234  17.441  1.00  0.00    -0.772 OA
HETATM   12  H   LIG     1      14.850  34.891  18.152  1.00  0.00     0.167 HD
ENDBRANCH   9  11
ENDBRANCH   1   9
BRANCH   2  13
HETATM   13  O   LIG     1      17.116  33.869  15.593  1.00  0.00    -0.353 OA
HETATM   14  C   LIG     1      17.335  35.121  14.956  1.00  0.00     0.210 C 
ENDBRANCH   2  13
TORSDOF 3
ENDMDL
MODEL 12
REMARK VINA RESULT:      -5.1      1.628      3.740
REMARK  3 active torsions:
REMARK  status: ('A' for Active; 'I' for Inactive)
REMARK    1  A    between atoms: C_2  and  C_4 
REMARK    2  A    between atoms: C_2  and  O_3 
REMARK    3  A    between atoms: C_5  and  O_6 
ROOT
HETATM    1  C   LIG     1      15.820  32.482  15.236  1.00  0.00     0.094 A 
HETATM    2  C   LIG     1      14.812  32.010  16.112  1.00  0.00     0.108 A 
HETATM    3  C   LIG     1      14.034  30.882  15.719  1.00  0.00     0.068 A 
HETATM    4 CL   LIG     1      12.746  30.166  16.683  1.00  0.00    -0.081 Cl
HETATM    5  C   LIG     1      14.280  30.265  14.489  1.00  0.00     0.028 A 
HETATM    6  C   LIG     1      15.268  30.743  13.635  1.00  0.00     0.027 A 
HETATM    7  C   LIG     1      16.037  31.847  13.996  1.00  0.00     0.053 A 
HETATM    8 CL   LIG     1      17.211  32.449  12.826  1.00  0.00    -0.083 Cl
ENDROOT
BRANCH   1   9
HETATM    9  C   LIG     1      16.641  33.652  15.627  1.00  0.00     0.180 C 
HETATM   10  O   LIG     1      17.890  33.627  15.459  1.00  0.00    -0.646 OA
BRANCH   9  11
HETATM   11  O   LIG     1      16.052  34.796  16.158  1.00  0.00    -0.772 OA
HETATM   12  H   LIG     1      15.575  35.466  15.568  1.00  0.00     0.167 HD
ENDBRANCH   9  11
ENDBRANCH   1   9
BRANCH   2  13
HETATM   13  O   LIG     1      14.663  32.699  17.334  1.00  0.00    -0.353 OA
HETATM   14  C   LIG     1      14.981  32.239  18.641  1.00  0.00     0.210 C 
ENDBRANCH   2  13
TORSDOF 3
ENDMDL
MODEL 13
REMARK VINA RESULT:      -5.0      7.131      9.332
REMARK  3 active torsions:
REMARK  status: ('A' for Active; 'I' for Inactive)
REMARK    1  A    between atoms: C_2  and  C_4 
REMARK    2  A    between atoms: C_2  and  O_3 
REMARK    3  A    between atoms: C_5  and  O_6 
ROOT
HETATM    1  C   LIG     1      17.470  36.775  21.432  1.00  0.00     0.094 A 
HETATM    2  C   LIG     1      17.225  36.979  22.813  1.00  0.00     0.108 A 
HETATM    3  C   LIG     1      17.689  38.180  23.423  1.00  0.00     0.068 A 
HETATM    4 CL   LIG     1      17.471  38.595  25.120  1.00  0.00    -0.081 Cl
HETATM    5  C   LIG     1      18.371  39.129  22.655  1.00  0.00     0.028 A 
HETATM    6  C   LIG     1      18.612  38.914  21.302  1.00  0.00     0.027 A 
HETATM    7  C   LIG     1      18.171  37.745  20.686  1.00  0.00     0.053 A 
HETATM    8 CL   LIG     1      18.588  37.500  18.991  1.00  0.00    -0.083 Cl
ENDROOT
BRANCH   1   9
HETATM    9  C   LIG     1      16.992  35.534  20.779  1.00  0.00     0.180 C 
HETATM   10  O   LIG     1      16.522  35.580  19.611  1.00  0.00    -0.646 OA
BRANCH   9  11
HETATM   11  O   LIG     1      17.077  34.305  21.427  1.00  0.00    -0.772 OA
HETATM   12  H   LIG     1      17.971  33.884  21.646  1.00  0.00     0.167 HD
ENDBRANCH   9  11
ENDBRANCH   1   9
BRANCH   2  13
HETATM   13  O   LIG     1      16.513  35.963  23.485  1.00  0.00    -0.353 OA
HETATM   14  C   LIG     1      16.975  35.113  24.527  1.00  0.00     0.210 C 
ENDBRANCH   2  13
TORSDOF 3
ENDMDL
MODEL 14
REMARK VINA RESULT:      -5.0      8.908     10.515
REMARK  3 active torsions:
REMARK  status: ('A' for Active; 'I' for Inactive)
REMARK    1  A    between atoms: C_2  and  C_4 
REMARK    2  A    between atoms: C_2  and  O_3 
REMARK    3  A    between atoms: C_5  and  O_6 
ROOT
HETATM    1  C   LIG     1      16.978  37.273  23.199  1.00  0.00     0.094 A 
HETATM    2  C   LIG     1      17.456  37.280  24.533  1.00  0.00     0.108 A 
HETATM    3  C   LIG     1      17.657  36.035  25.196  1.00  0.00     0.068 A 
HETATM    4 CL   LIG     1      18.244  35.859  26.847  1.00  0.00    -0.081 Cl
HETATM    5  C   LIG     1      17.382  34.840  24.525  1.00  0.00     0.028 A 
HETATM    6  C   LIG     1      16.906  34.846  23.218  1.00  0.00     0.027 A 
HETATM    7  C   LIG     1      16.699  36.052  22.552  1.00  0.00     0.053 A 
HETATM    8 CL   LIG     1      16.012  35.987  20.929  1.00  0.00    -0.083 Cl
ENDROOT
BRANCH   1   9
HETATM    9  C   LIG     1      16.767  38.557  22.490  1.00  0.00     0.180 C 
HETATM   10  O   LIG     1      15.645  39.128  22.546  1.00  0.00    -0.646 OA
BRANCH   9  11
HETATM   11  O   LIG     1      17.800  39.162  21.780  1.00  0.00    -0.772 OA
HETATM   12  H   LIG     1      18.168  38.752  20.930  1.00  0.00     0.167 HD
ENDBRANCH   9  11
ENDBRANCH   1   9
BRANCH   2  13
HETATM   13  O   LIG     1      17.716  38.543  25.105  1.00  0.00    -0.353 OA
HETATM   14  C   LIG     1      17.178  39.088  26.302  1.00  0.00     0.210 C 
ENDBRANCH   2  13
TORSDOF 3
ENDMDL
MODEL 15
REMARK VINA RESULT:      -5.0      1.816      3.415
REMARK  3 active torsions:
REMARK  status: ('A' for Active; 'I' for Inactive)
REMARK    1  A    between atoms: C_2  and  C_4 
REMARK    2  A    between atoms: C_2  and  O_3 
REMARK    3  A    between atoms: C_5  and  O_6 
ROOT
HETATM    1  C   LIG     1      14.648  31.963  16.342  1.00  0.00     0.094 A 
HETATM    2  C   LIG     1      14.744  31.046  15.265  1.00  0.00     0.108 A 
HETATM    3  C   LIG     1      15.665  31.316  14.213  1.00  0.00     0.068 A 
HETATM    4 CL   LIG     1      15.912  30.287  12.805  1.00  0.00    -0.081 Cl
HETATM    5  C   LIG     1      16.453  32.470  14.260  1.00  0.00     0.028 A 
HETATM    6  C   LIG     1      16.344  33.366  15.318  1.00  0.00     0.027 A 
HETATM    7  C   LIG     1      15.447  33.124  16.356  1.00  0.00     0.053 A 
HETATM    8 CL   LIG     1      15.301  34.346  17.618  1.00  0.00    -0.083 Cl
ENDROOT
BRANCH   1   9
HETATM    9  C   LIG     1      13.699  31.697  17.447  1.00  0.00     0.180 C 
HETATM   10  O   LIG     1      14.135  31.417  18.596  1.00  0.00    -0.646 OA
BRANCH   9  11
HETATM   11  O   LIG     1      12.323  31.777  17.246  1.00  0.00    -0.772 OA
HETATM   12  H   LIG     1      11.681  31.169  17.739  1.00  0.00     0.167 HD
ENDBRANCH   9  11
ENDBRANCH   1   9
BRANCH   2  13
HETATM   13  O   LIG     1      13.913  29.907  15.330  1.00  0.00    -0.353 OA
HETATM   14  C   LIG     1      12.886  29.521  14.427  1.00  0.00     0.210 C 
ENDBRANCH   2  13
TORSDOF 3
ENDMDL
MODEL 16
REMARK VINA RESULT:      -4.7      6.904      8.659
REMARK  3 active torsions:
REMARK  status: ('A' for Active; 'I' for Inactive)
REMARK    1  A    between atoms: C_2  and  C_4 
REMARK    2  A    between atoms: C_2  and  O_3 
REMARK    3  A    between atoms: C_5  and  O_6 
ROOT
HETATM    1  C   LIG     1      17.521  36.677  20.513  1.00  0.00     0.094 A 
HETATM    2  C   LIG     1      17.799  37.703  21.449  1.00  0.00     0.108 A 
HETATM    3  C   LIG     1      16.926  37.872  22.563  1.00  0.00     0.068 A 
HETATM    4 CL   LIG     1      17.123  39.092  23.817  1.00  0.00    -0.081 Cl
HETATM    5  C   LIG     1      15.822  37.029  22.712  1.00  0.00     0.028 A 
HETATM    6  C   LIG     1      15.555  36.030  21.782  1.00  0.00     0.027 A 
HETATM    7  C   LIG     1      16.392  35.849  20.683  1.00  0.00     0.053 A 
HETATM    8 CL   LIG     1      15.944  34.621  19.500  1.00  0.00    -0.083 Cl
ENDROOT
BRANCH   1   9
HETATM    9  C   LIG     1      18.419  36.483  19.351  1.00  0.00     0.180 C 
HETATM   10  O   LIG     1      17.957  36.557  18.181  1.00  0.00    -0.646 OA
BRANCH   9  11
HETATM   11  O   LIG     1      19.779  36.243  19.528  1.00  0.00    -0.772 OA
HETATM   12  H   LIG     1      20.260  36.529  20.372  1.00  0.00     0.167 HD
ENDBRANCH   9  11
ENDBRANCH   1   9
BRANCH   2  13
HETATM   13  O   LIG     1      18.951  38.483  21.209  1.00  0.00    -0.353 OA
HETATM   14  C   LIG     1      19.076  39.620  20.364  1.00  0.00     0.210 C 
ENDBRANCH   2  13
TORSDOF 3
ENDMDL
MODEL 17
REMARK VINA RESULT:      -4.6      6.038      9.052
REMARK  3 active torsions:
REMARK  status: ('A' for Active; 'I' for Inactive)
REMARK    1  A    between atoms: C_2  and  C_4 
REMARK    2  A    between atoms: C_2  and  O_3 
REMARK    3  A    between atoms: C_5  and  O_6 
ROOT
HETATM    1  C   LIG     1      17.869  37.239  20.651  1.00  0.00     0.094 A 
HETATM    2  C   LIG     1      16.837  36.269  20.609  1.00  0.00     0.108 A 
HETATM    3  C   LIG     1      15.867  36.253  21.653  1.00  0.00     0.068 A 
HETATM    4 CL   LIG     1      14.522  35.122  21.757  1.00  0.00    -0.081 Cl
HETATM    5  C   LIG     1      15.949  37.187  22.690  1.00  0.00     0.028 A 
HETATM    6  C   LIG     1      16.972  38.129  22.724  1.00  0.00     0.027 A 
HETATM    7  C   LIG     1      17.933  38.160  21.716  1.00  0.00     0.053 A 
HETATM    8 CL   LIG     1      19.248  39.324  21.870  1.00  0.00    -0.083 Cl
ENDROOT
BRANCH   1   9
HETATM    9  C   LIG     1      18.885  37.274  19.573  1.00  0.00     0.180 C 
HETATM   10  O   LIG     1      18.897  38.230  18.753  1.00  0.00    -0.646 OA
BRANCH   9  11
HETATM   11  O   LIG     1      19.849  36.276  19.464  1.00  0.00    -0.772 OA
HETATM   12  H   LIG     1      20.634  36.227  20.103  1.00  0.00     0.167 HD
ENDBRANCH   9  11
ENDBRANCH   1   9
BRANCH   2  13
HETATM   13  O   LIG     1      16.842  35.388  19.507  1.00  0.00    -0.353 OA
HETATM   14  C   LIG     1      15.725  34.825  18.832  1.00  0.00     0.210 C 
ENDBRANCH   2  13
TORSDOF 3
ENDMDL
MODEL 18
REMARK VINA RESULT:      -4.5      2.304      3.344
REMARK  3 active torsions:
REMARK  status: ('A' for Active; 'I' for Inactive)
REMARK    1  A    between atoms: C_2  and  C_4 
REMARK    2  A    between atoms: C_2  and  O_3 
REMARK    3  A    between atoms: C_5  and  O_6 
ROOT
HETATM    1  C   LIG     1      14.762  31.683  15.756  1.00  0.00     0.094 A 
HETATM    2  C   LIG     1      15.569  31.065  14.768  1.00  0.00     0.108 A 
HETATM    3  C   LIG     1      15.036  29.964  14.037  1.00  0.00     0.068 A 
HETATM    4 CL   LIG     1      15.898  29.084  12.778  1.00  0.00    -0.081 Cl
HETATM    5  C   LIG     1      13.738  29.518  14.302  1.00  0.00     0.028 A 
HETATM    6  C   LIG     1      12.959  30.128  15.280  1.00  0.00     0.027 A 
HETATM    7  C   LIG     1      13.461  31.203  16.010  1.00  0.00     0.053 A 
HETATM    8 CL   LIG     1      12.450  31.870  17.291  1.00  0.00    -0.083 Cl
ENDROOT
BRANCH   1   9
HETATM    9  C   LIG     1      15.296  32.831  16.525  1.00  0.00     0.180 C 
HETATM   10  O   LIG     1      15.665  32.670  17.719  1.00  0.00    -0.646 OA
BRANCH   9  11
HETATM   11  O   LIG     1      15.423  34.088  15.940  1.00  0.00    -0.772 OA
HETATM   12  H   LIG     1      14.719  34.805  16.071  1.00  0.00     0.167 HD
ENDBRANCH   9  11
ENDBRANCH   1   9
BRANCH   2  13
HETATM   13  O   LIG     1      16.856  31.609  14.573  1.00  0.00    -0.353 OA
HETATM   14  C   LIG     1      17.268  32.550  13.591  1.00  0.00     0.210 C 
ENDBRANCH   2  13
TORSDOF 3
ENDMDL
MODEL 19
REMARK VINA RESULT:      -4.3      8.040      9.572
REMARK  3 active torsions:
REMARK  status: ('A' for Active; 'I' for Inactive)
REMARK    1  A    between atoms: C_2  and  C_4 
REMARK    2  A    between atoms: C_2  and  O_3 
REMARK    3  A    between atoms: C_5  and  O_6 
ROOT
HETATM    1  C   LIG     1      17.139  36.192  22.853  1.00  0.00     0.094 A 
HETATM    2  C   LIG     1      17.506  37.318  22.075  1.00  0.00     0.108 A 
HETATM    3  C   LIG     1      18.003  38.478  22.737  1.00  0.00     0.068 A 
HETATM    4 CL   LIG     1      18.504  39.960  21.927  1.00  0.00    -0.081 Cl
HETATM    5  C   LIG     1      18.120  38.485  24.129  1.00  0.00     0.028 A 
HETATM    6  C   LIG     1      17.749  37.376  24.883  1.00  0.00     0.027 A 
HETATM    7  C   LIG     1      17.257  36.233  24.257  1.00  0.00     0.053 A 
HETATM    8 CL   LIG     1      16.725  34.899  25.281  1.00  0.00    -0.083 Cl
ENDROOT
BRANCH   1   9
HETATM    9  C   LIG     1      16.624  34.976  22.183  1.00  0.00     0.180 C 
HETATM   10  O   LIG     1      17.430  34.145  21.683  1.00  0.00    -0.646 OA
BRANCH   9  11
HETATM   11  O   LIG     1      15.258  34.718  22.117  1.00  0.00    -0.772 OA
HETATM   12  H   LIG     1      14.894  33.925  21.602  1.00  0.00     0.167 HD
ENDBRANCH   9  11
ENDBRANCH   1   9
BRANCH   2  13
HETATM   13  O   LIG     1      17.363  37.194  20.676  1.00  0.00    -0.353 OA
HETATM   14  C   LIG     1      18.383  36.996  19.706  1.00  0.00     0.210 C 
ENDBRANCH   2  13
TORSDOF 3
ENDMDL
MODEL 20
REMARK VINA RESULT:      -4.2      6.613      8.147
REMARK  3 active torsions:
REMARK  status: ('A' for Active; 'I' for Inactive)
REMARK    1  A    between atoms: C_2  and  C_4 
REMARK    2  A    between atoms: C_2  and  O_3 
REMARK    3  A    between atoms: C_5  and  O_6 
ROOT
HETATM    1  C   LIG     1      16.480  36.390  21.164  1.00  0.00     0.094 A 
HETATM    2  C   LIG     1      17.121  37.336  22.001  1.00  0.00     0.108 A 
HETATM    3  C   LIG     1      18.279  38.009  21.516  1.00  0.00     0.068 A 
HETATM    4 CL   LIG     1      19.195  39.211  22.420  1.00  0.00    -0.081 Cl
HETATM    5  C   LIG     1      18.758  37.728  20.233  1.00  0.00     0.028 A 
HETATM    6  C   LIG     1      18.125  36.792  19.423  1.00  0.00     0.027 A 
HETATM    7  C   LIG     1      16.993  36.118  19.878  1.00  0.00     0.053 A 
HETATM    8 CL   LIG     1      16.295  34.883  18.832  1.00  0.00    -0.083 Cl
ENDROOT
BRANCH   1   9
HETATM    9  C   LIG     1      15.272  35.682  21.648  1.00  0.00     0.180 C 
HETATM   10  O   LIG     1      15.346  34.469  21.981  1.00  0.00    -0.646 OA
BRANCH   9  11
HETATM   11  O   LIG     1      14.053  36.344  21.768  1.00  0.00    -0.772 OA
HETATM   12  H   LIG     1      13.409  36.410  20.990  1.00  0.00     0.167 HD
ENDBRANCH   9  11
ENDBRANCH   1   9
BRANCH   2  13
HETATM   13  O   LIG     1      16.541  37.553  23.269  1.00  0.00    -0.353 OA
HETATM   14  C   LIG     1      17.075  37.220  24.544  1.00  0.00     0.210 C 
ENDBRANCH   2  13
TORSDOF 3
ENDMDL
