MODEL 1
REMARK VINA RESULT:      -6.1      0.000      0.000
REMARK  3 active torsions:
REMARK  status: ('A' for Active; 'I' for Inactive)
REMARK    1  A    between atoms: C_2  and  C_3 
REMARK       I    between atoms: C_2  and  N_5 
REMARK    2  A    between atoms: N_5  and  C_6 
REMARK    3  A    between atoms: N_5  and  C_9 
ROOT
HETATM    1  O   LIG     1      17.663  36.312  18.557  1.00  0.00    -0.272 OA
HETATM    2  C   LIG     1      17.912  36.512  19.777  1.00  0.00     0.238 C 
HETATM    3  N   LIG     1      16.944  36.133  20.784  1.00  0.00    -0.313 N 
ENDROOT
BRANCH   3   4
HETATM    4  C   LIG     1      15.740  35.369  20.399  1.00  0.00     0.085 C 
HETATM    5  C   LIG     1      15.959  33.855  20.523  1.00  0.00     0.032 C 
HETATM    6  C   LIG     1      14.533  35.814  21.230  1.00  0.00     0.032 C 
ENDBRANCH   3   4
BRANCH   3   7
HETATM    7  C   LIG     1      17.061  36.672  22.113  1.00  0.00     0.037 A 
HETATM    8  C   LIG     1      17.057  38.061  22.312  1.00  0.00     0.030 A 
HETATM    9  C   LIG     1      17.161  38.586  23.604  1.00  0.00     0.002 A 
HETATM   10  C   LIG     1      17.264  37.726  24.702  1.00  0.00     0.000 A 
HETATM   11  C   LIG     1      17.260  36.342  24.510  1.00  0.00     0.002 A 
HETATM   12  C   LIG     1      17.157  35.815  23.219  1.00  0.00     0.030 A 
ENDBRANCH   3   7
BRANCH   2  13
HETATM   13  C   LIG     1      19.209  37.179  20.136  1.00  0.00     0.217 C 
HETATM   14 CL   LIG     1      19.208  38.861  19.554  1.00  0.00    -0.121 Cl
ENDBRANCH   2  13
TORSDOF 3
ENDMDL
MODEL 2
REMARK VINA RESULT:      -6.0      2.735      3.966
REMARK  3 active torsions:
REMARK  status: ('A' for Active; 'I' for Inactive)
REMARK    1  A    between atoms: C_2  and  C_3 
REMARK       I    between atoms: C_2  and  N_5 
REMARK    2  A    between atoms: N_5  and  C_6 
REMARK    3  A    between atoms: N_5  and  C_9 
ROOT
HETATM    1  O   LIG     1      16.804  35.573  24.708  1.00  0.00    -0.272 OA
HETATM    2  C   LIG     1      17.218  36.473  23.928  1.00  0.00     0.238 C 
HETATM    3  N   LIG     1      16.857  36.438  22.527  1.00  0.00    -0.313 N 
ENDROOT
BRANCH   3   4
HETATM    4  C   LIG     1      15.875  35.446  22.043  1.00  0.00     0.085 C 
HETATM    5  C   LIG     1      14.706  36.112  21.304  1.00  0.00     0.032 C 
HETATM    6  C   LIG     1      16.558  34.404  21.154  1.00  0.00     0.032 C 
ENDBRANCH   3   4
BRANCH   3   7
HETATM    7  C   LIG     1      17.600  37.234  21.587  1.00  0.00     0.037 A 
HETATM    8  C   LIG     1      17.672  38.627  21.745  1.00  0.00     0.030 A 
HETATM    9  C   LIG     1      18.402  39.400  20.837  1.00  0.00     0.002 A 
HETATM   10  C   LIG     1      19.067  38.786  19.771  1.00  0.00     0.000 A 
HETATM   11  C   LIG     1      19.006  37.399  19.614  1.00  0.00     0.002 A 
HETATM   12  C   LIG     1      18.276  36.623  20.520  1.00  0.00     0.030 A 
ENDBRANCH   3   7
BRANCH   2  13
HETATM   13  C   LIG     1      18.115  37.540  24.488  1.00  0.00     0.217 C 
HETATM   14 CL   LIG     1      18.746  37.032  26.074  1.00  0.00    -0.121 Cl
ENDBRANCH   2  13
TORSDOF 3
ENDMDL
MODEL 3
REMARK VINA RESULT:      -5.8      2.407      4.113
REMARK  3 active torsions:
REMARK  status: ('A' for Active; 'I' for Inactive)
REMARK    1  A    between atoms: C_2  and  C_3 
REMARK       I    between atoms: C_2  and  N_5 
REMARK    2  A    between atoms: N_5  and  C_6 
REMARK    3  A    between atoms: N_5  and  C_9 
ROOT
HETATM    1  O   LIG     1      14.818  35.019  22.003  1.00  0.00    -0.272 OA
HETATM    2  C   LIG     1      15.789  35.492  21.352  1.00  0.00     0.238 C 
HETATM    3  N   LIG     1      16.786  36.297  22.025  1.00  0.00    -0.313 N 
ENDROOT
BRANCH   3   4
HETATM    4  C   LIG     1      16.757  36.429  23.497  1.00  0.00     0.085 C 
HETATM    5  C   LIG     1      17.267  35.162  24.196  1.00  0.00     0.032 C 
HETATM    6  C   LIG     1      17.558  37.656  23.941  1.00  0.00     0.032 C 
ENDBRANCH   3   4
BRANCH   3   7
HETATM    7  C   LIG     1      17.674  37.118  21.246  1.00  0.00     0.037 A 
HETATM    8  C   LIG     1      18.505  36.534  20.278  1.00  0.00     0.030 A 
HETATM    9  C   LIG     1      19.361  37.332  19.513  1.00  0.00     0.002 A 
HETATM   10  C   LIG     1      19.387  38.716  19.708  1.00  0.00     0.000 A 
HETATM   11  C   LIG     1      18.556  39.304  20.664  1.00  0.00     0.002 A 
HETATM   12  C   LIG     1      17.699  38.508  21.431  1.00  0.00     0.030 A 
ENDBRANCH   3   7
BRANCH   2  13
HETATM   13  C   LIG     1      15.850  35.227  19.875  1.00  0.00     0.217 C 
HETATM   14 CL   LIG     1      15.488  33.516  19.550  1.00  0.00    -0.121 Cl
ENDBRANCH   2  13
TORSDOF 3
ENDMDL
MODEL 4
REMARK VINA RESULT:      -4.9      6.653      9.189
REMARK  3 active torsions:
REMARK  status: ('A' for Active; 'I' for Inactive)
REMARK    1  A    between atoms: C_2  and  C_3 
REMARK       I    between atoms: C_2  and  N_5 
REMARK    2  A    between atoms: N_5  and  C_6 
REMARK    3  A    between atoms: N_5  and  C_9 
ROOT
HETATM    1  O   LIG     1      15.662  34.271  16.978  1.00  0.00    -0.272 OA
HETATM    2  C   LIG     1      15.328  33.075  16.757  1.00  0.00     0.238 C 
HETATM    3  N   LIG     1      15.703  32.437  15.514  1.00  0.00    -0.313 N 
ENDROOT
BRANCH   3   4
HETATM    4  C   LIG     1      16.613  33.127  14.575  1.00  0.00     0.085 C 
HETATM    5  C   LIG     1      18.088  32.893  14.931  1.00  0.00     0.032 C 
HETATM    6  C   LIG     1      16.326  32.697  13.134  1.00  0.00     0.032 C 
ENDBRANCH   3   4
BRANCH   3   7
HETATM    7  C   LIG     1      15.036  31.228  15.111  1.00  0.00     0.037 A 
HETATM    8  C   LIG     1      13.666  31.062  15.365  1.00  0.00     0.030 A 
HETATM    9  C   LIG     1      13.014  29.891  14.964  1.00  0.00     0.002 A 
HETATM   10  C   LIG     1      13.725  28.885  14.306  1.00  0.00     0.000 A 
HETATM   11  C   LIG     1      15.088  29.048  14.043  1.00  0.00     0.002 A 
HETATM   12  C   LIG     1      15.743  30.217  14.443  1.00  0.00     0.030 A 
ENDBRANCH   3   7
BRANCH   2  13
HETATM   13  C   LIG     1      14.508  32.364  17.796  1.00  0.00     0.217 C 
HETATM   14 CL   LIG     1      15.476  32.117  19.269  1.00  0.00    -0.121 Cl
ENDBRANCH   2  13
TORSDOF 3
ENDMDL
MODEL 5
REMARK VINA RESULT:      -4.9      1.478      2.424
REMARK  3 active torsions:
REMARK  status: ('A' for Active; 'I' for Inactive)
REMARK    1  A    between atoms: C_2  and  C_3 
REMARK       I    between atoms: C_2  and  N_5 
REMARK    2  A    between atoms: N_5  and  C_6 
REMARK    3  A    between atoms: N_5  and  C_9 
ROOT
HETATM    1  O   LIG     1      17.044  37.075  20.300  1.00  0.00    -0.272 OA
HETATM    2  C   LIG     1      17.514  36.955  21.464  1.00  0.00     0.238 C 
HETATM    3  N   LIG     1      16.892  36.050  22.405  1.00  0.00    -0.313 N 
ENDROOT
BRANCH   3   4
HETATM    4  C   LIG     1      15.810  35.148  21.957  1.00  0.00     0.085 C 
HETATM    5  C   LIG     1      14.596  35.928  21.432  1.00  0.00     0.032 C 
HETATM    6  C   LIG     1      16.329  34.170  20.900  1.00  0.00     0.032 C 
ENDBRANCH   3   4
BRANCH   3   7
HETATM    7  C   LIG     1      17.192  36.173  23.808  1.00  0.00     0.037 A 
HETATM    8  C   LIG     1      17.451  35.027  24.575  1.00  0.00     0.030 A 
HETATM    9  C   LIG     1      17.752  35.146  25.935  1.00  0.00     0.002 A 
HETATM   10  C   LIG     1      17.802  36.408  26.533  1.00  0.00     0.000 A 
HETATM   11  C   LIG     1      17.553  37.554  25.771  1.00  0.00     0.002 A 
HETATM   12  C   LIG     1      17.250  37.437  24.411  1.00  0.00     0.030 A 
ENDBRANCH   3   7
BRANCH   2  13
HETATM   13  C   LIG     1      18.698  37.799  21.842  1.00  0.00     0.217 C 
HETATM   14 CL   LIG     1      18.307  39.523  21.633  1.00  0.00    -0.121 Cl
ENDBRANCH   2  13
TORSDOF 3
ENDMDL
MODEL 6
REMARK VINA RESULT:      -4.9      5.015      6.730
REMARK  3 active torsions:
REMARK  status: ('A' for Active; 'I' for Inactive)
REMARK    1  A    between atoms: C_2  and  C_3 
REMARK       I    between atoms: C_2  and  N_5 
REMARK    2  A    between atoms: N_5  and  C_6 
REMARK    3  A    between atoms: N_5  and  C_9 
ROOT
HETATM    1  O   LIG     1      15.697  31.923  13.800  1.00  0.00    -0.272 OA
HETATM    2  C   LIG     1      15.965  32.182  15.005  1.00  0.00     0.238 C 
HETATM    3  N   LIG     1      14.934  32.070  16.014  1.00  0.00    -0.313 N 
ENDROOT
BRANCH   3   4
HETATM    4  C   LIG     1      13.617  31.500  15.664  1.00  0.00     0.085 C 
HETATM    5  C   LIG     1      13.703  29.996  15.374  1.00  0.00     0.032 C 
HETATM    6  C   LIG     1      12.597  31.784  16.771  1.00  0.00     0.032 C 
ENDBRANCH   3   4
BRANCH   3   7
HETATM    7  C   LIG     1      15.131  32.694  17.296  1.00  0.00     0.037 A 
HETATM    8  C   LIG     1      15.300  31.905  18.444  1.00  0.00     0.030 A 
HETATM    9  C   LIG     1      15.501  32.510  19.689  1.00  0.00     0.002 A 
HETATM   10  C   LIG     1      15.540  33.904  19.791  1.00  0.00     0.000 A 
HETATM   11  C   LIG     1      15.380  34.694  18.649  1.00  0.00     0.002 A 
HETATM   12  C   LIG     1      15.178  34.092  17.404  1.00  0.00     0.030 A 
ENDBRANCH   3   7
BRANCH   2  13
HETATM   13  C   LIG     1      17.356  32.638  15.340  1.00  0.00     0.217 C 
HETATM   14 CL   LIG     1      17.650  34.252  14.650  1.00  0.00    -0.121 Cl
ENDBRANCH   2  13
TORSDOF 3
ENDMDL
MODEL 7
REMARK VINA RESULT:      -4.8      6.421      9.023
REMARK  3 active torsions:
REMARK  status: ('A' for Active; 'I' for Inactive)
REMARK    1  A    between atoms: C_2  and  C_3 
REMARK       I    between atoms: C_2  and  N_5 
REMARK    2  A    between atoms: N_5  and  C_6 
REMARK    3  A    between atoms: N_5  and  C_9 
ROOT
HETATM    1  O   LIG     1      17.461  33.750  15.354  1.00  0.00    -0.272 OA
HETATM    2  C   LIG     1      16.620  32.953  14.855  1.00  0.00     0.238 C 
HETATM    3  N   LIG     1      15.595  32.367  15.690  1.00  0.00    -0.313 N 
ENDROOT
BRANCH   3   4
HETATM    4  C   LIG     1      15.431  32.822  17.087  1.00  0.00     0.085 C 
HETATM    5  C   LIG     1      14.795  34.217  17.163  1.00  0.00     0.032 C 
HETATM    6  C   LIG     1      14.615  31.806  17.891  1.00  0.00     0.032 C 
ENDBRANCH   3   4
BRANCH   3   7
HETATM    7  C   LIG     1      14.876  31.212  15.221  1.00  0.00     0.037 A 
HETATM    8  C   LIG     1      13.495  31.103  15.445  1.00  0.00     0.030 A 
HETATM    9  C   LIG     1      12.795  29.986  14.980  1.00  0.00     0.002 A 
HETATM   10  C   LIG     1      13.468  28.976  14.287  1.00  0.00     0.000 A 
HETATM   11  C   LIG     1      14.842  29.083  14.054  1.00  0.00     0.002 A 
HETATM   12  C   LIG     1      15.546  30.199  14.518  1.00  0.00     0.030 A 
ENDBRANCH   3   7
BRANCH   2  13
HETATM   13  C   LIG     1      16.744  32.613  13.397  1.00  0.00     0.217 C 
HETATM   14 CL   LIG     1      18.155  33.442  12.697  1.00  0.00    -0.121 Cl
ENDBRANCH   2  13
TORSDOF 3
ENDMDL
MODEL 8
REMARK VINA RESULT:      -4.6      7.136      9.869
REMARK  3 active torsions:
REMARK  status: ('A' for Active; 'I' for Inactive)
REMARK    1  A    between atoms: C_2  and  C_3 
REMARK       I    between atoms: C_2  and  N_5 
REMARK    2  A    between atoms: N_5  and  C_6 
REMARK    3  A    between atoms: N_5  and  C_9 
ROOT
HETATM    1  O   LIG     1      15.952  33.170  15.860  1.00  0.00    -0.272 OA
HETATM    2  C   LIG     1      15.571  32.242  15.095  1.00  0.00     0.238 C 
HETATM    3  N   LIG     1      14.607  31.270  15.562  1.00  0.00    -0.313 N 
ENDROOT
BRANCH   3   4
HETATM    4  C   LIG     1      13.947  31.455  16.871  1.00  0.00     0.085 C 
HETATM    5  C   LIG     1      14.896  32.072  17.909  1.00  0.00     0.032 C 
HETATM    6  C   LIG     1      12.681  32.303  16.719  1.00  0.00     0.032 C 
ENDBRANCH   3   4
BRANCH   3   7
HETATM    7  C   LIG     1      14.445  30.034  14.843  1.00  0.00     0.037 A 
HETATM    8  C   LIG     1      15.572  29.328  14.395  1.00  0.00     0.030 A 
HETATM    9  C   LIG     1      15.416  28.122  13.705  1.00  0.00     0.002 A 
HETATM   10  C   LIG     1      14.136  27.614  13.464  1.00  0.00     0.000 A 
HETATM   11  C   LIG     1      13.011  28.309  13.915  1.00  0.00     0.002 A 
HETATM   12  C   LIG     1      13.164  29.516  14.605  1.00  0.00     0.030 A 
ENDBRANCH   3   7
BRANCH   2  13
HETATM   13  C   LIG     1      16.175  32.162  13.722  1.00  0.00     0.217 C 
HETATM   14 CL   LIG     1      17.506  33.334  13.574  1.00  0.00    -0.121 Cl
ENDBRANCH   2  13
TORSDOF 3
ENDMDL
MODEL 9
REMARK VINA RESULT:      -4.5      7.799      9.380
REMARK  3 active torsions:
REMARK  status: ('A' for Active; 'I' for Inactive)
REMARK    1  A    between atoms: C_2  and  C_3 
REMARK       I    between atoms: C_2  and  N_5 
REMARK    2  A    between atoms: N_5  and  C_6 
REMARK    3  A    between atoms: N_5  and  C_9 
ROOT
HETATM    1  O   LIG     1      13.326  29.773  14.872  1.00  0.00    -0.272 OA
HETATM    2  C   LIG     1      14.478  30.219  14.619  1.00  0.00     0.238 C 
HETATM    3  N   LIG     1      14.945  31.425  15.270  1.00  0.00    -0.313 N 
ENDROOT
BRANCH   3   4
HETATM    4  C   LIG     1      14.142  32.042  16.345  1.00  0.00     0.085 C 
HETATM    5  C   LIG     1      14.137  31.186  17.619  1.00  0.00     0.032 C 
HETATM    6  C   LIG     1      14.640  33.459  16.643  1.00  0.00     0.032 C 
ENDBRANCH   3   4
BRANCH   3   7
HETATM    7  C   LIG     1      16.084  32.121  14.732  1.00  0.00     0.037 A 
HETATM    8  C   LIG     1      17.199  32.379  15.543  1.00  0.00     0.030 A 
HETATM    9  C   LIG     1      18.310  33.047  15.019  1.00  0.00     0.002 A 
HETATM   10  C   LIG     1      18.314  33.455  13.682  1.00  0.00     0.000 A 
HETATM   11  C   LIG     1      17.209  33.194  12.867  1.00  0.00     0.002 A 
HETATM   12  C   LIG     1      16.097  32.527  13.389  1.00  0.00     0.030 A 
ENDBRANCH   3   7
BRANCH   2  13
HETATM   13  C   LIG     1      15.317  29.488  13.610  1.00  0.00     0.217 C 
HETATM   14 CL   LIG     1      15.046  27.735  13.752  1.00  0.00    -0.121 Cl
ENDBRANCH   2  13
TORSDOF 3
ENDMDL
MODEL 10
REMARK VINA RESULT:      -4.2     14.987     16.809
REMARK  3 active torsions:
REMARK  status: ('A' for Active; 'I' for Inactive)
REMARK    1  A    between atoms: C_2  and  C_3 
REMARK       I    between atoms: C_2  and  N_5 
REMARK    2  A    between atoms: N_5  and  C_6 
REMARK    3  A    between atoms: N_5  and  C_9 
ROOT
HETATM    1  O   LIG     1      26.142  24.050  20.699  1.00  0.00    -0.272 OA
HETATM    2  C   LIG     1      25.548  23.242  19.935  1.00  0.00     0.238 C 
HETATM    3  N   LIG     1      24.283  22.666  20.335  1.00  0.00    -0.313 N 
ENDROOT
BRANCH   3   4
HETATM    4  C   LIG     1      23.608  23.144  21.560  1.00  0.00     0.085 C 
HETATM    5  C   LIG     1      22.082  23.012  21.461  1.00  0.00     0.032 C 
HETATM    6  C   LIG     1      24.140  22.403  22.790  1.00  0.00     0.032 C 
ENDBRANCH   3   4
BRANCH   3   7
HETATM    7  C   LIG     1      23.790  21.500  19.650  1.00  0.00     0.037 A 
HETATM    8  C   LIG     1      24.049  20.220  20.163  1.00  0.00     0.030 A 
HETATM    9  C   LIG     1      23.562  19.087  19.503  1.00  0.00     0.002 A 
HETATM   10  C   LIG     1      22.811  19.228  18.333  1.00  0.00     0.000 A 
HETATM   11  C   LIG     1      22.543  20.501  17.822  1.00  0.00     0.002 A 
HETATM   12  C   LIG     1      23.029  21.636  18.479  1.00  0.00     0.030 A 
ENDBRANCH   3   7
BRANCH   2  13
HETATM   13  C   LIG     1      26.209  22.878  18.636  1.00  0.00     0.217 C 
HETATM   14 CL   LIG     1      26.928  24.327  17.893  1.00  0.00    -0.121 Cl
ENDBRANCH   2  13
TORSDOF 3
ENDMDL
MODEL 11
REMARK VINA RESULT:      -3.9     17.678     18.585
REMARK  3 active torsions:
REMARK  status: ('A' for Active; 'I' for Inactive)
REMARK    1  A    between atoms: C_2  and  C_3 
REMARK       I    between atoms: C_2  and  N_5 
REMARK    2  A    between atoms: N_5  and  C_6 
REMARK    3  A    between atoms: N_5  and  C_9 
ROOT
HETATM    1  O   LIG     1      28.600  27.823  32.369  1.00  0.00    -0.272 OA
HETATM    2  C   LIG     1      27.774  28.341  33.169  1.00  0.00     0.238 C 
HETATM    3  N   LIG     1      28.177  29.449  34.008  1.00  0.00    -0.313 N 
ENDROOT
BRANCH   3   4
HETATM    4  C   LIG     1      29.500  30.078  33.815  1.00  0.00     0.085 C 
HETATM    5  C   LIG     1      29.423  31.304  32.894  1.00  0.00     0.032 C 
HETATM    6  C   LIG     1      30.120  30.449  35.165  1.00  0.00     0.032 C 
ENDBRANCH   3   4
BRANCH   3   7
HETATM    7  C   LIG     1      27.372  29.800  35.148  1.00  0.00     0.037 A 
HETATM    8  C   LIG     1      26.594  30.968  35.128  1.00  0.00     0.030 A 
HETATM    9  C   LIG     1      25.804  31.305  36.232  1.00  0.00     0.002 A 
HETATM   10  C   LIG     1      25.784  30.475  37.357  1.00  0.00     0.000 A 
HETATM   11  C   LIG     1      26.551  29.307  37.379  1.00  0.00     0.002 A 
HETATM   12  C   LIG     1      27.343  28.968  36.277  1.00  0.00     0.030 A 
ENDBRANCH   3   7
BRANCH   2  13
HETATM   13  C   LIG     1      26.394  27.752  33.244  1.00  0.00     0.217 C 
HETATM   14 CL   LIG     1      26.452  26.172  34.061  1.00  0.00    -0.121 Cl
ENDBRANCH   2  13
TORSDOF 3
ENDMDL
MODEL 12
REMARK VINA RESULT:      -3.7     15.619     16.547
REMARK  3 active torsions:
REMARK  status: ('A' for Active; 'I' for Inactive)
REMARK    1  A    between atoms: C_2  and  C_3 
REMARK       I    between atoms: C_2  and  N_5 
REMARK    2  A    between atoms: N_5  and  C_6 
REMARK    3  A    between atoms: N_5  and  C_9 
ROOT
HETATM    1  O   LIG     1      25.854  24.130  18.171  1.00  0.00    -0.272 OA
HETATM    2  C   LIG     1      25.679  23.492  19.245  1.00  0.00     0.238 C 
HETATM    3  N   LIG     1      24.877  22.288  19.249  1.00  0.00    -0.313 N 
ENDROOT
BRANCH   3   4
HETATM    4  C   LIG     1      24.398  21.716  17.973  1.00  0.00     0.085 C 
HETATM    5  C   LIG     1      25.312  20.590  17.472  1.00  0.00     0.032 C 
HETATM    6  C   LIG     1      22.954  21.226  18.114  1.00  0.00     0.032 C 
ENDBRANCH   3   4
BRANCH   3   7
HETATM    7  C   LIG     1      24.388  21.770  20.499  1.00  0.00     0.037 A 
HETATM    8  C   LIG     1      25.040  20.692  21.118  1.00  0.00     0.030 A 
HETATM    9  C   LIG     1      24.571  20.194  22.338  1.00  0.00     0.002 A 
HETATM   10  C   LIG     1      23.454  20.773  22.946  1.00  0.00     0.000 A 
HETATM   11  C   LIG     1      22.805  21.851  22.339  1.00  0.00     0.002 A 
HETATM   12  C   LIG     1      23.272  22.351  21.118  1.00  0.00     0.030 A 
ENDBRANCH   3   7
BRANCH   2  13
HETATM   13  C   LIG     1      26.292  24.040  20.502  1.00  0.00     0.217 C 
HETATM   14 CL   LIG     1      27.032  25.626  20.177  1.00  0.00    -0.121 Cl
ENDBRANCH   2  13
TORSDOF 3
ENDMDL
MODEL 13
REMARK VINA RESULT:      -3.7     15.432     16.686
REMARK  3 active torsions:
REMARK  status: ('A' for Active; 'I' for Inactive)
REMARK    1  A    between atoms: C_2  and  C_3 
REMARK       I    between atoms: C_2  and  N_5 
REMARK    2  A    between atoms: N_5  and  C_6 
REMARK    3  A    between atoms: N_5  and  C_9 
ROOT
HETATM    1  O   LIG     1      23.941  20.500  21.122  1.00  0.00    -0.272 OA
HETATM    2  C   LIG     1      24.326  21.688  20.949  1.00  0.00     0.238 C 
HETATM    3  N   LIG     1      25.381  21.976  20.003  1.00  0.00    -0.313 N 
ENDROOT
BRANCH   3   4
HETATM    4  C   LIG     1      25.896  20.906  19.123  1.00  0.00     0.085 C 
HETATM    5  C   LIG     1      25.199  20.904  17.756  1.00  0.00     0.032 C 
HETATM    6  C   LIG     1      27.414  21.028  18.960  1.00  0.00     0.032 C 
ENDBRANCH   3   4
BRANCH   3   7
HETATM    7  C   LIG     1      26.056  23.246  20.062  1.00  0.00     0.037 A 
HETATM    8  C   LIG     1      26.995  23.497  21.075  1.00  0.00     0.030 A 
HETATM    9  C   LIG     1      27.659  24.727  21.128  1.00  0.00     0.002 A 
HETATM   10  C   LIG     1      27.391  25.708  20.169  1.00  0.00     0.000 A 
HETATM   11  C   LIG     1      26.463  25.460  19.154  1.00  0.00     0.002 A 
HETATM   12  C   LIG     1      25.797  24.231  19.098  1.00  0.00     0.030 A 
ENDBRANCH   3   7
BRANCH   2  13
HETATM   13  C   LIG     1      23.686  22.768  21.775  1.00  0.00     0.217 C 
HETATM   14 CL   LIG     1      22.013  23.038  21.231  1.00  0.00    -0.121 Cl
ENDBRANCH   2  13
TORSDOF 3
ENDMDL
MODEL 14
REMARK VINA RESULT:      -3.6     15.733     17.200
REMARK  3 active torsions:
REMARK  status: ('A' for Active; 'I' for Inactive)
REMARK    1  A    between atoms: C_2  and  C_3 
REMARK       I    between atoms: C_2  and  N_5 
REMARK    2  A    between atoms: N_5  and  C_6 
REMARK    3  A    between atoms: N_5  and  C_9 
ROOT
HETATM    1  O   LIG     1      29.034  22.547  20.151  1.00  0.00    -0.272 OA
HETATM    2  C   LIG     1      27.867  22.138  19.902  1.00  0.00     0.238 C 
HETATM    3  N   LIG     1      26.873  23.055  19.388  1.00  0.00    -0.313 N 
ENDROOT
BRANCH   3   4
HETATM    4  C   LIG     1      27.264  24.427  19.002  1.00  0.00     0.085 C 
HETATM    5  C   LIG     1      27.622  24.522  17.513  1.00  0.00     0.032 C 
HETATM    6  C   LIG     1      26.158  25.422  19.361  1.00  0.00     0.032 C 
ENDBRANCH   3   4
BRANCH   3   7
HETATM    7  C   LIG     1      25.482  22.691  19.442  1.00  0.00     0.037 A 
HETATM    8  C   LIG     1      24.819  22.268  18.280  1.00  0.00     0.030 A 
HETATM    9  C   LIG     1      23.470  21.905  18.334  1.00  0.00     0.002 A 
HETATM   10  C   LIG     1      22.779  21.959  19.547  1.00  0.00     0.000 A 
HETATM   11  C   LIG     1      23.436  22.372  20.710  1.00  0.00     0.002 A 
HETATM   12  C   LIG     1      24.785  22.736  20.659  1.00  0.00     0.030 A 
ENDBRANCH   3   7
BRANCH   2  13
HETATM   13  C   LIG     1      27.544  20.699  20.190  1.00  0.00     0.217 C 
HETATM   14 CL   LIG     1      27.516  19.768  18.674  1.00  0.00    -0.121 Cl
ENDBRANCH   2  13
TORSDOF 3
ENDMDL
MODEL 15
REMARK VINA RESULT:      -3.6     15.979     16.963
REMARK  3 active torsions:
REMARK  status: ('A' for Active; 'I' for Inactive)
REMARK    1  A    between atoms: C_2  and  C_3 
REMARK       I    between atoms: C_2  and  N_5 
REMARK    2  A    between atoms: N_5  and  C_6 
REMARK    3  A    between atoms: N_5  and  C_9 
ROOT
HETATM    1  O   LIG     1      25.138  19.311  19.687  1.00  0.00    -0.272 OA
HETATM    2  C   LIG     1      25.712  20.429  19.788  1.00  0.00     0.238 C 
HETATM    3  N   LIG     1      24.925  21.638  19.902  1.00  0.00    -0.313 N 
ENDROOT
BRANCH   3   4
HETATM    4  C   LIG     1      23.458  21.552  20.061  1.00  0.00     0.085 C 
HETATM    5  C   LIG     1      22.929  22.593  21.057  1.00  0.00     0.032 C 
HETATM    6  C   LIG     1      22.761  21.691  18.705  1.00  0.00     0.032 C 
ENDBRANCH   3   4
BRANCH   3   7
HETATM    7  C   LIG     1      25.549  22.912  19.660  1.00  0.00     0.037 A 
HETATM    8  C   LIG     1      26.144  23.616  20.718  1.00  0.00     0.030 A 
HETATM    9  C   LIG     1      26.760  24.849  20.483  1.00  0.00     0.002 A 
HETATM   10  C   LIG     1      26.788  25.382  19.191  1.00  0.00     0.000 A 
HETATM   11  C   LIG     1      26.204  24.681  18.132  1.00  0.00     0.002 A 
HETATM   12  C   LIG     1      25.587  23.448  18.364  1.00  0.00     0.030 A 
ENDBRANCH   3   7
BRANCH   2  13
HETATM   13  C   LIG     1      27.213  20.462  19.749  1.00  0.00     0.217 C 
HETATM   14 CL   LIG     1      27.863  20.510  21.405  1.00  0.00    -0.121 Cl
ENDBRANCH   2  13
TORSDOF 3
ENDMDL
MODEL 16
REMARK VINA RESULT:      -3.5     15.092     16.370
REMARK  3 active torsions:
REMARK  status: ('A' for Active; 'I' for Inactive)
REMARK    1  A    between atoms: C_2  and  C_3 
REMARK       I    between atoms: C_2  and  N_5 
REMARK    2  A    between atoms: N_5  and  C_6 
REMARK    3  A    between atoms: N_5  and  C_9 
ROOT
HETATM    1  O   LIG     1      22.811  21.179  18.304  1.00  0.00    -0.272 OA
HETATM    2  C   LIG     1      23.923  21.568  18.752  1.00  0.00     0.238 C 
HETATM    3  N   LIG     1      24.000  22.185  20.059  1.00  0.00    -0.313 N 
ENDROOT
BRANCH   3   4
HETATM    4  C   LIG     1      22.809  22.211  20.934  1.00  0.00     0.085 C 
HETATM    5  C   LIG     1      22.828  21.071  21.962  1.00  0.00     0.032 C 
HETATM    6  C   LIG     1      22.684  23.570  21.629  1.00  0.00     0.032 C 
ENDBRANCH   3   4
BRANCH   3   7
HETATM    7  C   LIG     1      25.173  22.938  20.417  1.00  0.00     0.037 A 
HETATM    8  C   LIG     1      25.451  24.154  19.773  1.00  0.00     0.030 A 
HETATM    9  C   LIG     1      26.585  24.892  20.127  1.00  0.00     0.002 A 
HETATM   10  C   LIG     1      27.442  24.422  21.126  1.00  0.00     0.000 A 
HETATM   11  C   LIG     1      27.165  23.216  21.776  1.00  0.00     0.002 A 
HETATM   12  C   LIG     1      26.032  22.475  21.424  1.00  0.00     0.030 A 
ENDBRANCH   3   7
BRANCH   2  13
HETATM   13  C   LIG     1      25.135  21.407  17.880  1.00  0.00     0.217 C 
HETATM   14 CL   LIG     1      25.055  19.857  17.008  1.00  0.00    -0.121 Cl
ENDBRANCH   2  13
TORSDOF 3
ENDMDL
MODEL 17
REMARK VINA RESULT:      -3.4     17.685     18.863
REMARK  3 active torsions:
REMARK  status: ('A' for Active; 'I' for Inactive)
REMARK    1  A    between atoms: C_2  and  C_3 
REMARK       I    between atoms: C_2  and  N_5 
REMARK    2  A    between atoms: N_5  and  C_6 
REMARK    3  A    between atoms: N_5  and  C_9 
ROOT
HETATM    1  O   LIG     1      29.357  31.447  35.696  1.00  0.00    -0.272 OA
HETATM    2  C   LIG     1      28.935  30.604  34.858  1.00  0.00     0.238 C 
HETATM    3  N   LIG     1      27.926  29.642  35.247  1.00  0.00    -0.313 N 
ENDROOT
BRANCH   3   4
HETATM    4  C   LIG     1      27.275  29.749  36.569  1.00  0.00     0.085 C 
HETATM    5  C   LIG     1      25.953  30.526  36.494  1.00  0.00     0.032 C 
HETATM    6  C   LIG     1      27.056  28.359  37.174  1.00  0.00     0.032 C 
ENDBRANCH   3   4
BRANCH   3   7
HETATM    7  C   LIG     1      27.708  28.479  34.428  1.00  0.00     0.037 A 
HETATM    8  C   LIG     1      26.582  28.407  33.594  1.00  0.00     0.030 A 
HETATM    9  C   LIG     1      26.374  27.281  32.791  1.00  0.00     0.002 A 
HETATM   10  C   LIG     1      27.291  26.226  32.814  1.00  0.00     0.000 A 
HETATM   11  C   LIG     1      28.418  26.297  33.636  1.00  0.00     0.002 A 
HETATM   12  C   LIG     1      28.629  27.421  34.441  1.00  0.00     0.030 A 
ENDBRANCH   3   7
BRANCH   2  13
HETATM   13  C   LIG     1      29.535  30.611  33.481  1.00  0.00     0.217 C 
HETATM   14 CL   LIG     1      28.865  31.961  32.534  1.00  0.00    -0.121 Cl
ENDBRANCH   2  13
TORSDOF 3
ENDMDL
MODEL 18
REMARK VINA RESULT:      -3.3     16.526     18.111
REMARK  3 active torsions:
REMARK  status: ('A' for Active; 'I' for Inactive)
REMARK    1  A    between atoms: C_2  and  C_3 
REMARK       I    between atoms: C_2  and  N_5 
REMARK    2  A    between atoms: N_5  and  C_6 
REMARK    3  A    between atoms: N_5  and  C_9 
ROOT
HETATM    1  O   LIG     1      24.537  18.489  17.073  1.00  0.00    -0.272 OA
HETATM    2  C   LIG     1      23.909  19.273  17.835  1.00  0.00     0.238 C 
HETATM    3  N   LIG     1      24.632  20.096  18.781  1.00  0.00    -0.313 N 
ENDROOT
BRANCH   3   4
HETATM    4  C   LIG     1      26.109  20.139  18.743  1.00  0.00     0.085 C 
HETATM    5  C   LIG     1      26.625  21.241  17.808  1.00  0.00     0.032 C 
HETATM    6  C   LIG     1      26.677  20.312  20.154  1.00  0.00     0.032 C 
ENDBRANCH   3   4
BRANCH   3   7
HETATM    7  C   LIG     1      23.921  20.708  19.872  1.00  0.00     0.037 A 
HETATM    8  C   LIG     1      23.492  22.041  19.773  1.00  0.00     0.030 A 
HETATM    9  C   LIG     1      22.793  22.633  20.828  1.00  0.00     0.002 A 
HETATM   10  C   LIG     1      22.515  21.898  21.984  1.00  0.00     0.000 A 
HETATM   11  C   LIG     1      22.933  20.568  22.085  1.00  0.00     0.002 A 
HETATM   12  C   LIG     1      23.633  19.973  21.031  1.00  0.00     0.030 A 
ENDBRANCH   3   7
BRANCH   2  13
HETATM   13  C   LIG     1      22.409  19.291  17.754  1.00  0.00     0.217 C 
HETATM   14 CL   LIG     1      21.733  17.933  18.684  1.00  0.00    -0.121 Cl
ENDBRANCH   2  13
TORSDOF 3
ENDMDL
MODEL 19
REMARK VINA RESULT:      -3.2     16.175     17.422
REMARK  3 active torsions:
REMARK  status: ('A' for Active; 'I' for Inactive)
REMARK    1  A    between atoms: C_2  and  C_3 
REMARK       I    between atoms: C_2  and  N_5 
REMARK    2  A    between atoms: N_5  and  C_6 
REMARK    3  A    between atoms: N_5  and  C_9 
ROOT
HETATM    1  O   LIG     1      25.335  20.336  17.661  1.00  0.00    -0.272 OA
HETATM    2  C   LIG     1      25.505  21.548  17.967  1.00  0.00     0.238 C 
HETATM    3  N   LIG     1      26.845  22.081  18.087  1.00  0.00    -0.313 N 
ENDROOT
BRANCH   3   4
HETATM    4  C   LIG     1      28.006  21.255  17.696  1.00  0.00     0.085 C 
HETATM    5  C   LIG     1      28.483  21.575  16.272  1.00  0.00     0.032 C 
HETATM    6  C   LIG     1      29.148  21.423  18.703  1.00  0.00     0.032 C 
ENDBRANCH   3   4
BRANCH   3   7
HETATM    7  C   LIG     1      27.048  23.332  18.769  1.00  0.00     0.037 A 
HETATM    8  C   LIG     1      27.267  24.507  18.034  1.00  0.00     0.030 A 
HETATM    9  C   LIG     1      27.455  25.725  18.696  1.00  0.00     0.002 A 
HETATM   10  C   LIG     1      27.419  25.775  20.092  1.00  0.00     0.000 A 
HETATM   11  C   LIG     1      27.193  24.609  20.829  1.00  0.00     0.002 A 
HETATM   12  C   LIG     1      27.006  23.390  20.170  1.00  0.00     0.030 A 
ENDBRANCH   3   7
BRANCH   2  13
HETATM   13  C   LIG     1      24.290  22.390  18.233  1.00  0.00     0.217 C 
HETATM   14 CL   LIG     1      22.830  21.373  18.209  1.00  0.00    -0.121 Cl
ENDBRANCH   2  13
TORSDOF 3
ENDMDL
MODEL 20
REMARK VINA RESULT:      -3.2     17.499     18.618
REMARK  3 active torsions:
REMARK  status: ('A' for Active; 'I' for Inactive)
REMARK    1  A    between atoms: C_2  and  C_3 
REMARK       I    between atoms: C_2  and  N_5 
REMARK    2  A    between atoms: N_5  and  C_6 
REMARK    3  A    between atoms: N_5  and  C_9 
ROOT
HETATM    1  O   LIG     1      29.331  30.547  32.216  1.00  0.00    -0.272 OA
HETATM    2  C   LIG     1      28.861  29.421  32.533  1.00  0.00     0.238 C 
HETATM    3  N   LIG     1      27.969  29.303  33.666  1.00  0.00    -0.313 N 
ENDROOT
BRANCH   3   4
HETATM    4  C   LIG     1      27.481  30.518  34.351  1.00  0.00     0.085 C 
HETATM    5  C   LIG     1      26.157  30.268  35.087  1.00  0.00     0.032 C 
HETATM    6  C   LIG     1      28.545  31.057  35.312  1.00  0.00     0.032 C 
ENDBRANCH   3   4
BRANCH   3   7
HETATM    7  C   LIG     1      27.722  28.006  34.238  1.00  0.00     0.037 A 
HETATM    8  C   LIG     1      26.671  27.211  33.754  1.00  0.00     0.030 A 
HETATM    9  C   LIG     1      26.437  25.947  34.302  1.00  0.00     0.002 A 
HETATM   10  C   LIG     1      27.252  25.468  35.331  1.00  0.00     0.000 A 
HETATM   11  C   LIG     1      28.306  26.252  35.812  1.00  0.00     0.002 A 
HETATM   12  C   LIG     1      28.542  27.517  35.266  1.00  0.00     0.030 A 
ENDBRANCH   3   7
BRANCH   2  13
HETATM   13  C   LIG     1      29.283  28.225  31.729  1.00  0.00     0.217 C 
HETATM   14 CL   LIG     1      28.140  27.957  30.391  1.00  0.00    -0.121 Cl
ENDBRANCH   2  13
TORSDOF 3
ENDMDL
