REMARK  3 active torsions:
REMARK  status: ('A' for Active; 'I' for Inactive)
REMARK    1  A    between atoms: C_2  and  CA_3 
REMARK    2  A    between atoms: C_2  and  OXT_13 
REMARK    3  A    between atoms: C_9  and  N_10 
ROOT
HETATM    1  CA  LIG     1       1.120  -0.232  -0.085  1.00  0.00     0.155 A 
HETATM    2  N   LIG     1       1.086   1.126  -0.072  1.00  0.00    -0.226 NA
HETATM    3  C   LIG     1      -0.068   1.837  -0.092  1.00  0.00     0.151 A 
HETATM    4 CL   LIG     1       0.032   3.591  -0.074  1.00  0.00    -0.060 Cl
HETATM    5  C   LIG     1      -1.300   1.173  -0.131  1.00  0.00     0.102 A 
HETATM    6 CL   LIG     1      -2.793   2.113  -0.168  1.00  0.00    -0.078 Cl
HETATM    7  C   LIG     1      -1.322  -0.238  -0.138  1.00  0.00     0.075 A 
HETATM    8  C   LIG     1      -0.100  -0.952  -0.108  1.00  0.00     0.097 A 
HETATM    9 CL   LIG     1      -0.121  -2.719  -0.038  1.00  0.00    -0.079 Cl
ENDROOT
BRANCH   1  10
HETATM   10  C   LIG     1       2.454  -0.883  -0.078  1.00  0.00     0.197 C 
HETATM   11  O   LIG     1       2.600  -2.071  -0.467  1.00  0.00    -0.645 OA
BRANCH  10  12
HETATM   12  OXT LIG     1       3.584  -0.173   0.324  1.00  0.00    -0.772 OA
HETATM   13  HXT LIG     1       3.528   0.782   0.656  1.00  0.00     0.167 HD
ENDBRANCH  10  12
ENDBRANCH   1  10
BRANCH   7  14
HETATM   14  N   LIG     1      -2.577  -0.939  -0.170  1.00  0.00    -0.396 N 
HETATM   15  H   LIG     1      -2.632  -1.979  -0.213  1.00  0.00     0.156 HD
HETATM   16  H   LIG     1      -3.490  -0.436  -0.161  1.00  0.00     0.156 HD
ENDBRANCH   7  14
TORSDOF 3
