MODEL 1
REMARK VINA RESULT:      -5.6      0.000      0.000
REMARK  3 active torsions:
REMARK  status: ('A' for Active; 'I' for Inactive)
REMARK    1  A    between atoms: C_2  and  CA_3 
REMARK    2  A    between atoms: C_2  and  OXT_13 
REMARK    3  A    between atoms: C_9  and  N_10 
ROOT
HETATM    1  CA  LIG     1      17.707  37.569  23.823  1.00  0.00     0.155 A 
HETATM    2  N   LIG     1      18.099  38.519  22.936  1.00  0.00    -0.226 NA
HETATM    3  C   LIG     1      18.142  38.308  21.597  1.00  0.00     0.151 A 
HETATM    4 CL   LIG     1      18.671  39.624  20.561  1.00  0.00    -0.060 Cl
HETATM    5  C   LIG     1      17.775  37.063  21.072  1.00  0.00     0.102 A 
HETATM    6 CL   LIG     1      17.847  36.801  19.328  1.00  0.00    -0.078 Cl
HETATM    7  C   LIG     1      17.352  36.043  21.950  1.00  0.00     0.075 A 
HETATM    8  C   LIG     1      17.310  36.297  23.342  1.00  0.00     0.097 A 
HETATM    9 CL   LIG     1      16.707  35.049  24.441  1.00  0.00    -0.079 Cl
ENDROOT
BRANCH   1  10
HETATM   10  C   LIG     1      17.724  37.929  25.263  1.00  0.00     0.197 C 
HETATM   11  O   LIG     1      16.860  38.704  25.750  1.00  0.00    -0.645 OA
BRANCH  10  12
HETATM   12  OXT LIG     1      18.679  37.380  26.117  1.00  0.00    -0.772 OA
HETATM   13  HXT LIG     1      19.153  36.511  25.905  1.00  0.00     0.167 HD
ENDBRANCH  10  12
ENDBRANCH   1  10
BRANCH   7  14
HETATM   14  N   LIG     1      16.963  34.760  21.429  1.00  0.00    -0.396 N 
HETATM   15  H   LIG     1      15.978  34.541  21.169  1.00  0.00     0.156 HD
HETATM   16  H   LIG     1      17.650  33.987  21.298  1.00  0.00     0.156 HD
ENDBRANCH   7  14
TORSDOF 3
ENDMDL
MODEL 2
REMARK VINA RESULT:      -5.3      9.154     10.749
REMARK  3 active torsions:
REMARK  status: ('A' for Active; 'I' for Inactive)
REMARK    1  A    between atoms: C_2  and  CA_3 
REMARK    2  A    between atoms: C_2  and  OXT_13 
REMARK    3  A    between atoms: C_9  and  N_10 
ROOT
HETATM    1  CA  LIG     1      16.652  32.744  13.802  1.00  0.00     0.155 A 
HETATM    2  N   LIG     1      15.972  31.596  13.544  1.00  0.00    -0.226 NA
HETATM    3  C   LIG     1      15.137  31.014  14.439  1.00  0.00     0.151 A 
HETATM    4 CL   LIG     1      14.322  29.528  13.975  1.00  0.00    -0.060 Cl
HETATM    5  C   LIG     1      14.945  31.593  15.699  1.00  0.00     0.102 A 
HETATM    6 CL   LIG     1      13.864  30.817  16.857  1.00  0.00    -0.078 Cl
HETATM    7  C   LIG     1      15.621  32.791  16.016  1.00  0.00     0.075 A 
HETATM    8  C   LIG     1      16.480  33.379  15.057  1.00  0.00     0.097 A 
HETATM    9 CL   LIG     1      17.270  34.920  15.418  1.00  0.00    -0.079 Cl
ENDROOT
BRANCH   1  10
HETATM   10  C   LIG     1      17.547  33.263  12.738  1.00  0.00     0.197 C 
HETATM   11  O   LIG     1      18.537  32.597  12.338  1.00  0.00    -0.645 OA
BRANCH  10  12
HETATM   12  OXT LIG     1      17.283  34.489  12.130  1.00  0.00    -0.772 OA
HETATM   13  HXT LIG     1      17.043  34.561  11.148  1.00  0.00     0.167 HD
ENDBRANCH  10  12
ENDBRANCH   1  10
BRANCH   7  14
HETATM   14  N   LIG     1      15.432  33.406  17.302  1.00  0.00    -0.396 N 
HETATM   15  H   LIG     1      15.616  34.419  17.466  1.00  0.00     0.156 HD
HETATM   16  H   LIG     1      15.109  32.863  18.131  1.00  0.00     0.156 HD
ENDBRANCH   7  14
TORSDOF 3
ENDMDL
MODEL 3
REMARK VINA RESULT:      -5.3      3.146      4.179
REMARK  3 active torsions:
REMARK  status: ('A' for Active; 'I' for Inactive)
REMARK    1  A    between atoms: C_2  and  CA_3 
REMARK    2  A    between atoms: C_2  and  OXT_13 
REMARK    3  A    between atoms: C_9  and  N_10 
ROOT
HETATM    1  CA  LIG     1      16.344  35.912  21.177  1.00  0.00     0.155 A 
HETATM    2  N   LIG     1      17.458  35.882  20.401  1.00  0.00    -0.226 NA
HETATM    3  C   LIG     1      18.373  36.883  20.380  1.00  0.00     0.151 A 
HETATM    4 CL   LIG     1      19.769  36.716  19.327  1.00  0.00    -0.060 Cl
HETATM    5  C   LIG     1      18.190  38.016  21.182  1.00  0.00     0.102 A 
HETATM    6 CL   LIG     1      19.384  39.315  21.136  1.00  0.00    -0.078 Cl
HETATM    7  C   LIG     1      17.053  38.095  22.014  1.00  0.00     0.075 A 
HETATM    8  C   LIG     1      16.120  37.030  22.019  1.00  0.00     0.097 A 
HETATM    9 CL   LIG     1      14.734  37.087  23.115  1.00  0.00    -0.079 Cl
ENDROOT
BRANCH   1  10
HETATM   10  C   LIG     1      15.417  34.757  21.088  1.00  0.00     0.197 C 
HETATM   11  O   LIG     1      15.801  33.648  20.634  1.00  0.00    -0.645 OA
BRANCH  10  12
HETATM   12  OXT LIG     1      14.105  34.867  21.546  1.00  0.00    -0.772 OA
HETATM   13  HXT LIG     1      13.374  34.237  21.239  1.00  0.00     0.167 HD
ENDBRANCH  10  12
ENDBRANCH   1  10
BRANCH   7  14
HETATM   14  N   LIG     1      16.851  39.247  22.850  1.00  0.00    -0.396 N 
HETATM   15  H   LIG     1      17.010  39.221  23.880  1.00  0.00     0.156 HD
HETATM   16  H   LIG     1      16.526  40.159  22.464  1.00  0.00     0.156 HD
ENDBRANCH   7  14
TORSDOF 3
ENDMDL
MODEL 4
REMARK VINA RESULT:      -5.3      8.669     10.135
REMARK  3 active torsions:
REMARK  status: ('A' for Active; 'I' for Inactive)
REMARK    1  A    between atoms: C_2  and  CA_3 
REMARK    2  A    between atoms: C_2  and  OXT_13 
REMARK    3  A    between atoms: C_9  and  N_10 
ROOT
HETATM    1  CA  LIG     1      16.300  32.566  15.154  1.00  0.00     0.155 A 
HETATM    2  N   LIG     1      16.178  31.441  14.402  1.00  0.00    -0.226 NA
HETATM    3  C   LIG     1      15.153  30.565  14.543  1.00  0.00     0.151 A 
HETATM    4 CL   LIG     1      15.118  29.148  13.505  1.00  0.00    -0.060 Cl
HETATM    5  C   LIG     1      14.158  30.798  15.500  1.00  0.00     0.102 A 
HETATM    6 CL   LIG     1      12.837  29.643  15.679  1.00  0.00    -0.078 Cl
HETATM    7  C   LIG     1      14.233  31.956  16.303  1.00  0.00     0.075 A 
HETATM    8  C   LIG     1      15.312  32.856  16.126  1.00  0.00     0.097 A 
HETATM    9 CL   LIG     1      15.371  34.347  17.074  1.00  0.00    -0.079 Cl
ENDROOT
BRANCH   1  10
HETATM   10  C   LIG     1      17.483  33.429  14.907  1.00  0.00     0.197 C 
HETATM   11  O   LIG     1      18.652  32.981  15.033  1.00  0.00    -0.645 OA
BRANCH  10  12
HETATM   12  OXT LIG     1      17.319  34.748  14.488  1.00  0.00    -0.772 OA
HETATM   13  HXT LIG     1      18.080  35.416  14.508  1.00  0.00     0.167 HD
ENDBRANCH  10  12
ENDBRANCH   1  10
BRANCH   7  14
HETATM   14  N   LIG     1      13.218  32.217  17.287  1.00  0.00    -0.396 N 
HETATM   15  H   LIG     1      12.398  32.831  17.091  1.00  0.00     0.156 HD
HETATM   16  H   LIG     1      13.261  31.811  18.246  1.00  0.00     0.156 HD
ENDBRANCH   7  14
TORSDOF 3
ENDMDL
MODEL 5
REMARK VINA RESULT:      -5.3      9.500     10.714
REMARK  3 active torsions:
REMARK  status: ('A' for Active; 'I' for Inactive)
REMARK    1  A    between atoms: C_2  and  CA_3 
REMARK    2  A    between atoms: C_2  and  OXT_13 
REMARK    3  A    between atoms: C_9  and  N_10 
ROOT
HETATM    1  CA  LIG     1      15.279  30.840  14.458  1.00  0.00     0.155 A 
HETATM    2  N   LIG     1      16.188  31.356  13.591  1.00  0.00    -0.226 NA
HETATM    3  C   LIG     1      16.815  32.541  13.795  1.00  0.00     0.151 A 
HETATM    4 CL   LIG     1      17.969  33.093  12.591  1.00  0.00    -0.060 Cl
HETATM    5  C   LIG     1      16.534  33.294  14.942  1.00  0.00     0.102 A 
HETATM    6 CL   LIG     1      17.351  34.839  15.188  1.00  0.00    -0.078 Cl
HETATM    7  C   LIG     1      15.603  32.800  15.880  1.00  0.00     0.075 A 
HETATM    8  C   LIG     1      14.971  31.555  15.642  1.00  0.00     0.097 A 
HETATM    9 CL   LIG     1      13.862  30.893  16.849  1.00  0.00    -0.079 Cl
ENDROOT
BRANCH   1  10
HETATM   10  C   LIG     1      14.654  29.541  14.102  1.00  0.00     0.197 C 
HETATM   11  O   LIG     1      15.348  28.498  13.980  1.00  0.00    -0.645 OA
BRANCH  10  12
HETATM   12  OXT LIG     1      13.274  29.444  13.934  1.00  0.00    -0.772 OA
HETATM   13  HXT LIG     1      12.856  28.765  13.310  1.00  0.00     0.167 HD
ENDBRANCH  10  12
ENDBRANCH   1  10
BRANCH   7  14
HETATM   14  N   LIG     1      15.306  33.554  17.067  1.00  0.00    -0.396 N 
HETATM   15  H   LIG     1      15.321  33.125  18.017  1.00  0.00     0.156 HD
HETATM   16  H   LIG     1      15.054  34.565  17.029  1.00  0.00     0.156 HD
ENDBRANCH   7  14
TORSDOF 3
ENDMDL
MODEL 6
REMARK VINA RESULT:      -5.3      3.179      5.077
REMARK  3 active torsions:
REMARK  status: ('A' for Active; 'I' for Inactive)
REMARK    1  A    between atoms: C_2  and  CA_3 
REMARK    2  A    between atoms: C_2  and  OXT_13 
REMARK    3  A    between atoms: C_9  and  N_10 
ROOT
HETATM    1  CA  LIG     1      16.447  36.274  22.845  1.00  0.00     0.155 A 
HETATM    2  N   LIG     1      16.932  35.311  23.670  1.00  0.00    -0.226 NA
HETATM    3  C   LIG     1      17.498  35.584  24.872  1.00  0.00     0.151 A 
HETATM    4 CL   LIG     1      18.089  34.242  25.840  1.00  0.00    -0.060 Cl
HETATM    5  C   LIG     1      17.606  36.909  25.311  1.00  0.00     0.102 A 
HETATM    6 CL   LIG     1      18.356  37.248  26.873  1.00  0.00    -0.078 Cl
HETATM    7  C   LIG     1      17.110  37.948  24.495  1.00  0.00     0.075 A 
HETATM    8  C   LIG     1      16.517  37.630  23.250  1.00  0.00     0.097 A 
HETATM    9 CL   LIG     1      15.823  38.919  22.258  1.00  0.00    -0.079 Cl
ENDROOT
BRANCH   1  10
HETATM   10  C   LIG     1      15.868  35.837  21.549  1.00  0.00     0.197 C 
HETATM   11  O   LIG     1      16.605  35.445  20.607  1.00  0.00    -0.645 OA
BRANCH  10  12
HETATM   12  OXT LIG     1      14.487  35.813  21.365  1.00  0.00    -0.772 OA
HETATM   13  HXT LIG     1      13.917  36.644  21.467  1.00  0.00     0.167 HD
ENDBRANCH  10  12
ENDBRANCH   1  10
BRANCH   7  14
HETATM   14  N   LIG     1      17.204  39.314  24.932  1.00  0.00    -0.396 N 
HETATM   15  H   LIG     1      17.818  40.009  24.457  1.00  0.00     0.156 HD
HETATM   16  H   LIG     1      16.667  39.669  25.752  1.00  0.00     0.156 HD
ENDBRANCH   7  14
TORSDOF 3
ENDMDL
MODEL 7
REMARK VINA RESULT:      -5.1      8.544      9.709
REMARK  3 active torsions:
REMARK  status: ('A' for Active; 'I' for Inactive)
REMARK    1  A    between atoms: C_2  and  CA_3 
REMARK    2  A    between atoms: C_2  and  OXT_13 
REMARK    3  A    between atoms: C_9  and  N_10 
ROOT
HETATM    1  CA  LIG     1      14.603  31.915  16.228  1.00  0.00     0.155 A 
HETATM    2  N   LIG     1      15.449  32.978  16.223  1.00  0.00    -0.226 NA
HETATM    3  C   LIG     1      16.316  33.228  15.211  1.00  0.00     0.151 A 
HETATM    4 CL   LIG     1      17.357  34.638  15.334  1.00  0.00    -0.060 Cl
HETATM    5  C   LIG     1      16.370  32.371  14.106  1.00  0.00     0.102 A 
HETATM    6 CL   LIG     1      17.512  32.704  12.802  1.00  0.00    -0.078 Cl
HETATM    7  C   LIG     1      15.506  31.255  14.057  1.00  0.00     0.075 A 
HETATM    8  C   LIG     1      14.607  31.026  15.125  1.00  0.00     0.097 A 
HETATM    9 CL   LIG     1      13.468  29.676  15.035  1.00  0.00    -0.079 Cl
ENDROOT
BRANCH   1  10
HETATM   10  C   LIG     1      13.718  31.751  17.409  1.00  0.00     0.197 C 
HETATM   11  O   LIG     1      14.181  31.396  18.524  1.00  0.00    -0.645 OA
BRANCH  10  12
HETATM   12  OXT LIG     1      12.355  32.027  17.314  1.00  0.00    -0.772 OA
HETATM   13  HXT LIG     1      11.801  31.730  16.520  1.00  0.00     0.167 HD
ENDBRANCH  10  12
ENDBRANCH   1  10
BRANCH   7  14
HETATM   14  N   LIG     1      15.541  30.367  12.927  1.00  0.00    -0.396 N 
HETATM   15  H   LIG     1      14.745  30.286  12.259  1.00  0.00     0.156 HD
HETATM   16  H   LIG     1      16.362  29.755  12.731  1.00  0.00     0.156 HD
ENDBRANCH   7  14
TORSDOF 3
ENDMDL
MODEL 8
REMARK VINA RESULT:      -4.9      8.772     10.156
REMARK  3 active torsions:
REMARK  status: ('A' for Active; 'I' for Inactive)
REMARK    1  A    between atoms: C_2  and  CA_3 
REMARK    2  A    between atoms: C_2  and  OXT_13 
REMARK    3  A    between atoms: C_9  and  N_10 
ROOT
HETATM    1  CA  LIG     1      16.487  32.953  14.428  1.00  0.00     0.155 A 
HETATM    2  N   LIG     1      16.348  33.691  15.560  1.00  0.00    -0.226 NA
HETATM    3  C   LIG     1      15.510  33.346  16.568  1.00  0.00     0.151 A 
HETATM    4 CL   LIG     1      15.425  34.392  17.977  1.00  0.00    -0.060 Cl
HETATM    5  C   LIG     1      14.735  32.184  16.469  1.00  0.00     0.102 A 
HETATM    6 CL   LIG     1      13.640  31.755  17.786  1.00  0.00    -0.078 Cl
HETATM    7  C   LIG     1      14.847  31.377  15.317  1.00  0.00     0.075 A 
HETATM    8  C   LIG     1      15.737  31.760  14.285  1.00  0.00     0.097 A 
HETATM    9 CL   LIG     1      15.941  30.714  12.874  1.00  0.00    -0.079 Cl
ENDROOT
BRANCH   1  10
HETATM   10  C   LIG     1      17.428  33.457  13.395  1.00  0.00     0.197 C 
HETATM   11  O   LIG     1      18.648  33.148  13.421  1.00  0.00    -0.645 OA
BRANCH  10  12
HETATM   12  OXT LIG     1      16.967  34.253  12.348  1.00  0.00    -0.772 OA
HETATM   13  HXT LIG     1      16.106  34.048  11.857  1.00  0.00     0.167 HD
ENDBRANCH  10  12
ENDBRANCH   1  10
BRANCH   7  14
HETATM   14  N   LIG     1      14.066  30.176  15.200  1.00  0.00    -0.396 N 
HETATM   15  H   LIG     1      14.035  29.457  15.954  1.00  0.00     0.156 HD
HETATM   16  H   LIG     1      13.501  29.966  14.349  1.00  0.00     0.156 HD
ENDBRANCH   7  14
TORSDOF 3
ENDMDL
MODEL 9
REMARK VINA RESULT:      -4.9      2.976      4.220
REMARK  3 active torsions:
REMARK  status: ('A' for Active; 'I' for Inactive)
REMARK    1  A    between atoms: C_2  and  CA_3 
REMARK    2  A    between atoms: C_2  and  OXT_13 
REMARK    3  A    between atoms: C_9  and  N_10 
ROOT
HETATM    1  CA  LIG     1      18.428  38.310  20.879  1.00  0.00     0.155 A 
HETATM    2  N   LIG     1      18.296  38.707  22.171  1.00  0.00    -0.226 NA
HETATM    3  C   LIG     1      17.727  37.934  23.128  1.00  0.00     0.151 A 
HETATM    4 CL   LIG     1      17.618  38.573  24.761  1.00  0.00    -0.060 Cl
HETATM    5  C   LIG     1      17.239  36.662  22.804  1.00  0.00     0.102 A 
HETATM    6 CL   LIG     1      16.491  35.673  24.059  1.00  0.00    -0.078 Cl
HETATM    7  C   LIG     1      17.358  36.197  21.477  1.00  0.00     0.075 A 
HETATM    8  C   LIG     1      17.965  37.025  20.502  1.00  0.00     0.097 A 
HETATM    9 CL   LIG     1      18.187  36.419  18.856  1.00  0.00    -0.079 Cl
ENDROOT
BRANCH   1  10
HETATM   10  C   LIG     1      19.054  39.264  19.930  1.00  0.00     0.197 C 
HETATM   11  O   LIG     1      18.355  40.056  19.247  1.00  0.00    -0.645 OA
BRANCH  10  12
HETATM   12  OXT LIG     1      20.441  39.329  19.807  1.00  0.00    -0.772 OA
HETATM   13  HXT LIG     1      20.995  38.524  19.544  1.00  0.00     0.167 HD
ENDBRANCH  10  12
ENDBRANCH   1  10
BRANCH   7  14
HETATM   14  N   LIG     1      16.870  34.891  21.125  1.00  0.00    -0.396 N 
HETATM   15  H   LIG     1      17.175  34.399  20.258  1.00  0.00     0.156 HD
HETATM   16  H   LIG     1      16.181  34.381  21.718  1.00  0.00     0.156 HD
ENDBRANCH   7  14
TORSDOF 3
ENDMDL
MODEL 10
REMARK VINA RESULT:      -4.7      1.887      2.953
REMARK  3 active torsions:
REMARK  status: ('A' for Active; 'I' for Inactive)
REMARK    1  A    between atoms: C_2  and  CA_3 
REMARK    2  A    between atoms: C_2  and  OXT_13 
REMARK    3  A    between atoms: C_9  and  N_10 
ROOT
HETATM    1  CA  LIG     1      17.257  37.117  23.125  1.00  0.00     0.155 A 
HETATM    2  N   LIG     1      16.672  36.082  22.469  1.00  0.00    -0.226 NA
HETATM    3  C   LIG     1      16.869  35.837  21.150  1.00  0.00     0.151 A 
HETATM    4 CL   LIG     1      16.048  34.463  20.424  1.00  0.00    -0.060 Cl
HETATM    5  C   LIG     1      17.706  36.671  20.399  1.00  0.00     0.102 A 
HETATM    6 CL   LIG     1      17.943  36.345  18.681  1.00  0.00    -0.078 Cl
HETATM    7  C   LIG     1      18.346  37.757  21.034  1.00  0.00     0.075 A 
HETATM    8  C   LIG     1      18.126  37.981  22.415  1.00  0.00     0.097 A 
HETATM    9 CL   LIG     1      18.985  39.292  23.235  1.00  0.00    -0.079 Cl
ENDROOT
BRANCH   1  10
HETATM   10  C   LIG     1      16.941  37.279  24.566  1.00  0.00     0.197 C 
HETATM   11  O   LIG     1      16.447  38.350  25.007  1.00  0.00    -0.645 OA
BRANCH  10  12
HETATM   12  OXT LIG     1      17.148  36.228  25.458  1.00  0.00    -0.772 OA
HETATM   13  HXT LIG     1      16.394  35.834  26.008  1.00  0.00     0.167 HD
ENDBRANCH  10  12
ENDBRANCH   1  10
BRANCH   7  14
HETATM   14  N   LIG     1      19.215  38.621  20.283  1.00  0.00    -0.396 N 
HETATM   15  H   LIG     1      19.416  38.464  19.272  1.00  0.00     0.156 HD
HETATM   16  H   LIG     1      19.692  39.438  20.719  1.00  0.00     0.156 HD
ENDBRANCH   7  14
TORSDOF 3
ENDMDL
MODEL 11
REMARK VINA RESULT:      -4.6      2.145      3.429
REMARK  3 active torsions:
REMARK  status: ('A' for Active; 'I' for Inactive)
REMARK    1  A    between atoms: C_2  and  CA_3 
REMARK    2  A    between atoms: C_2  and  OXT_13 
REMARK    3  A    between atoms: C_9  and  N_10 
ROOT
HETATM    1  CA  LIG     1      16.879  37.012  22.450  1.00  0.00     0.155 A 
HETATM    2  N   LIG     1      15.948  36.023  22.490  1.00  0.00    -0.226 NA
HETATM    3  C   LIG     1      15.653  35.243  21.422  1.00  0.00     0.151 A 
HETATM    4 CL   LIG     1      14.425  34.000  21.610  1.00  0.00    -0.060 Cl
HETATM    5  C   LIG     1      16.316  35.439  20.205  1.00  0.00     0.102 A 
HETATM    6 CL   LIG     1      15.912  34.422  18.821  1.00  0.00    -0.078 Cl
HETATM    7  C   LIG     1      17.298  36.448  20.111  1.00  0.00     0.075 A 
HETATM    8  C   LIG     1      17.590  37.241  21.247  1.00  0.00     0.097 A 
HETATM    9 CL   LIG     1      18.874  38.455  21.160  1.00  0.00    -0.079 Cl
ENDROOT
BRANCH   1  10
HETATM   10  C   LIG     1      17.090  37.803  23.689  1.00  0.00     0.197 C 
HETATM   11  O   LIG     1      16.118  38.175  24.397  1.00  0.00    -0.645 OA
BRANCH  10  12
HETATM   12  OXT LIG     1      18.379  38.116  24.115  1.00  0.00    -0.772 OA
HETATM   13  HXT LIG     1      18.848  38.966  23.829  1.00  0.00     0.167 HD
ENDBRANCH  10  12
ENDBRANCH   1  10
BRANCH   7  14
HETATM   14  N   LIG     1      17.997  36.661  18.873  1.00  0.00    -0.396 N 
HETATM   15  H   LIG     1      18.174  35.889  18.194  1.00  0.00     0.156 HD
HETATM   16  H   LIG     1      18.367  37.597  18.602  1.00  0.00     0.156 HD
ENDBRANCH   7  14
TORSDOF 3
ENDMDL
MODEL 12
REMARK VINA RESULT:      -4.6      7.718      8.835
REMARK  3 active torsions:
REMARK  status: ('A' for Active; 'I' for Inactive)
REMARK    1  A    between atoms: C_2  and  CA_3 
REMARK    2  A    between atoms: C_2  and  OXT_13 
REMARK    3  A    between atoms: C_9  and  N_10 
ROOT
HETATM    1  CA  LIG     1      15.311  32.543  17.090  1.00  0.00     0.155 A 
HETATM    2  N   LIG     1      16.319  33.006  16.306  1.00  0.00    -0.226 NA
HETATM    3  C   LIG     1      16.524  32.579  15.036  1.00  0.00     0.151 A 
HETATM    4 CL   LIG     1      17.869  33.261  14.134  1.00  0.00    -0.060 Cl
HETATM    5  C   LIG     1      15.678  31.616  14.475  1.00  0.00     0.102 A 
HETATM    6 CL   LIG     1      15.965  31.063  12.823  1.00  0.00    -0.078 Cl
HETATM    7  C   LIG     1      14.609  31.107  15.243  1.00  0.00     0.075 A 
HETATM    8  C   LIG     1      14.416  31.578  16.563  1.00  0.00     0.097 A 
HETATM    9 CL   LIG     1      13.034  31.003  17.504  1.00  0.00    -0.079 Cl
ENDROOT
BRANCH   1  10
HETATM   10  C   LIG     1      15.212  33.083  18.469  1.00  0.00     0.197 C 
HETATM   11  O   LIG     1      15.106  32.317  19.461  1.00  0.00    -0.645 OA
BRANCH  10  12
HETATM   12  OXT LIG     1      15.277  34.457  18.695  1.00  0.00    -0.772 OA
HETATM   13  HXT LIG     1      14.853  35.125  18.064  1.00  0.00     0.167 HD
ENDBRANCH  10  12
ENDBRANCH   1  10
BRANCH   7  14
HETATM   14  N   LIG     1      13.724  30.122  14.682  1.00  0.00    -0.396 N 
HETATM   15  H   LIG     1      13.190  29.452  15.276  1.00  0.00     0.156 HD
HETATM   16  H   LIG     1      13.583  30.029  13.653  1.00  0.00     0.156 HD
ENDBRANCH   7  14
TORSDOF 3
ENDMDL
MODEL 13
REMARK VINA RESULT:      -4.6      8.459      9.922
REMARK  3 active torsions:
REMARK  status: ('A' for Active; 'I' for Inactive)
REMARK    1  A    between atoms: C_2  and  CA_3 
REMARK    2  A    between atoms: C_2  and  OXT_13 
REMARK    3  A    between atoms: C_9  and  N_10 
ROOT
HETATM    1  CA  LIG     1      15.209  32.808  16.120  1.00  0.00     0.155 A 
HETATM    2  N   LIG     1      14.142  32.171  16.669  1.00  0.00    -0.226 NA
HETATM    3  C   LIG     1      13.598  31.048  16.139  1.00  0.00     0.151 A 
HETATM    4 CL   LIG     1      12.217  30.326  16.950  1.00  0.00    -0.060 Cl
HETATM    5  C   LIG     1      14.134  30.495  14.969  1.00  0.00     0.102 A 
HETATM    6 CL   LIG     1      13.407  29.039  14.285  1.00  0.00    -0.078 Cl
HETATM    7  C   LIG     1      15.248  31.113  14.362  1.00  0.00     0.075 A 
HETATM    8  C   LIG     1      15.799  32.279  14.946  1.00  0.00     0.097 A 
HETATM    9 CL   LIG     1      17.242  33.014  14.235  1.00  0.00    -0.079 Cl
ENDROOT
BRANCH   1  10
HETATM   10  C   LIG     1      15.693  34.038  16.796  1.00  0.00     0.197 C 
HETATM   11  O   LIG     1      16.380  34.892  16.177  1.00  0.00    -0.645 OA
BRANCH  10  12
HETATM   12  OXT LIG     1      15.359  34.291  18.125  1.00  0.00    -0.772 OA
HETATM   13  HXT LIG     1      15.451  33.586  18.846  1.00  0.00     0.167 HD
ENDBRANCH  10  12
ENDBRANCH   1  10
BRANCH   7  14
HETATM   14  N   LIG     1      15.818  30.555  13.166  1.00  0.00    -0.396 N 
HETATM   15  H   LIG     1      16.576  31.035  12.635  1.00  0.00     0.156 HD
HETATM   16  H   LIG     1      15.490  29.649  12.769  1.00  0.00     0.156 HD
ENDBRANCH   7  14
TORSDOF 3
ENDMDL
MODEL 14
REMARK VINA RESULT:      -4.5      3.192      4.558
REMARK  3 active torsions:
REMARK  status: ('A' for Active; 'I' for Inactive)
REMARK    1  A    between atoms: C_2  and  CA_3 
REMARK    2  A    between atoms: C_2  and  OXT_13 
REMARK    3  A    between atoms: C_9  and  N_10 
ROOT
HETATM    1  CA  LIG     1      16.429  35.779  21.488  1.00  0.00     0.155 A 
HETATM    2  N   LIG     1      16.343  36.216  22.771  1.00  0.00    -0.226 NA
HETATM    3  C   LIG     1      17.073  37.254  23.249  1.00  0.00     0.151 A 
HETATM    4 CL   LIG     1      16.865  37.715  24.932  1.00  0.00    -0.060 Cl
HETATM    5  C   LIG     1      17.968  37.927  22.409  1.00  0.00     0.102 A 
HETATM    6 CL   LIG     1      18.918  39.269  23.049  1.00  0.00    -0.078 Cl
HETATM    7  C   LIG     1      18.090  37.519  21.064  1.00  0.00     0.075 A 
HETATM    8  C   LIG     1      17.309  36.437  20.593  1.00  0.00     0.097 A 
HETATM    9 CL   LIG     1      17.399  35.969  18.889  1.00  0.00    -0.079 Cl
ENDROOT
BRANCH   1  10
HETATM   10  C   LIG     1      15.586  34.620  21.102  1.00  0.00     0.197 C 
HETATM   11  O   LIG     1      16.057  33.668  20.427  1.00  0.00    -0.645 OA
BRANCH  10  12
HETATM   12  OXT LIG     1      14.257  34.544  21.517  1.00  0.00    -0.772 OA
HETATM   13  HXT LIG     1      13.582  33.951  21.050  1.00  0.00     0.167 HD
ENDBRANCH  10  12
ENDBRANCH   1  10
BRANCH   7  14
HETATM   14  N   LIG     1      18.998  38.202  20.183  1.00  0.00    -0.396 N 
HETATM   15  H   LIG     1      19.793  38.775  20.539  1.00  0.00     0.156 HD
HETATM   16  H   LIG     1      18.896  38.162  19.146  1.00  0.00     0.156 HD
ENDBRANCH   7  14
TORSDOF 3
ENDMDL
MODEL 15
REMARK VINA RESULT:      -4.5      3.445      4.736
REMARK  3 active torsions:
REMARK  status: ('A' for Active; 'I' for Inactive)
REMARK    1  A    between atoms: C_2  and  CA_3 
REMARK    2  A    between atoms: C_2  and  OXT_13 
REMARK    3  A    between atoms: C_9  and  N_10 
ROOT
HETATM    1  CA  LIG     1      18.438  37.601  20.085  1.00  0.00     0.155 A 
HETATM    2  N   LIG     1      17.771  36.663  19.363  1.00  0.00    -0.226 NA
HETATM    3  C   LIG     1      16.780  35.897  19.882  1.00  0.00     0.151 A 
HETATM    4 CL   LIG     1      16.002  34.719  18.837  1.00  0.00    -0.060 Cl
HETATM    5  C   LIG     1      16.403  36.052  21.222  1.00  0.00     0.102 A 
HETATM    6 CL   LIG     1      15.120  35.039  21.886  1.00  0.00    -0.078 Cl
HETATM    7  C   LIG     1      17.059  37.018  22.015  1.00  0.00     0.075 A 
HETATM    8  C   LIG     1      18.084  37.808  21.441  1.00  0.00     0.097 A 
HETATM    9 CL   LIG     1      18.856  39.074  22.405  1.00  0.00    -0.079 Cl
ENDROOT
BRANCH   1  10
HETATM   10  C   LIG     1      19.513  38.357  19.396  1.00  0.00     0.197 C 
HETATM   11  O   LIG     1      20.727  38.107  19.615  1.00  0.00    -0.645 OA
BRANCH  10  12
HETATM   12  OXT LIG     1      19.197  39.337  18.456  1.00  0.00    -0.772 OA
HETATM   13  HXT LIG     1      19.812  39.558  17.683  1.00  0.00     0.167 HD
ENDBRANCH  10  12
ENDBRANCH   1  10
BRANCH   7  14
HETATM   14  N   LIG     1      16.681  37.197  23.390  1.00  0.00    -0.396 N 
HETATM   15  H   LIG     1      16.435  38.132  23.782  1.00  0.00     0.156 HD
HETATM   16  H   LIG     1      16.646  36.400  24.061  1.00  0.00     0.156 HD
ENDBRANCH   7  14
TORSDOF 3
ENDMDL
MODEL 16
REMARK VINA RESULT:      -4.4      2.389      3.980
REMARK  3 active torsions:
REMARK  status: ('A' for Active; 'I' for Inactive)
REMARK    1  A    between atoms: C_2  and  CA_3 
REMARK    2  A    between atoms: C_2  and  OXT_13 
REMARK    3  A    between atoms: C_9  and  N_10 
ROOT
HETATM    1  CA  LIG     1      17.947  38.099  21.957  1.00  0.00     0.155 A 
HETATM    2  N   LIG     1      17.913  38.313  23.298  1.00  0.00    -0.226 NA
HETATM    3  C   LIG     1      17.537  37.363  24.189  1.00  0.00     0.151 A 
HETATM    4 CL   LIG     1      17.537  37.774  25.897  1.00  0.00    -0.060 Cl
HETATM    5  C   LIG     1      17.157  36.092  23.741  1.00  0.00     0.102 A 
HETATM    6 CL   LIG     1      16.660  34.870  24.912  1.00  0.00    -0.078 Cl
HETATM    7  C   LIG     1      17.182  35.814  22.357  1.00  0.00     0.075 A 
HETATM    8  C   LIG     1      17.587  36.825  21.453  1.00  0.00     0.097 A 
HETATM    9 CL   LIG     1      17.695  36.461  19.725  1.00  0.00    -0.079 Cl
ENDROOT
BRANCH   1  10
HETATM   10  C   LIG     1      18.361  39.233  21.094  1.00  0.00     0.197 C 
HETATM   11  O   LIG     1      18.390  39.120  19.841  1.00  0.00    -0.645 OA
BRANCH  10  12
HETATM   12  OXT LIG     1      18.689  40.466  21.656  1.00  0.00    -0.772 OA
HETATM   13  HXT LIG     1      18.123  40.894  22.379  1.00  0.00     0.167 HD
ENDBRANCH  10  12
ENDBRANCH   1  10
BRANCH   7  14
HETATM   14  N   LIG     1      16.802  34.513  21.877  1.00  0.00    -0.396 N 
HETATM   15  H   LIG     1      16.086  34.383  21.131  1.00  0.00     0.156 HD
HETATM   16  H   LIG     1      17.222  33.640  22.261  1.00  0.00     0.156 HD
ENDBRANCH   7  14
TORSDOF 3
ENDMDL
MODEL 17
REMARK VINA RESULT:      -4.2      3.187      5.179
REMARK  3 active torsions:
REMARK  status: ('A' for Active; 'I' for Inactive)
REMARK    1  A    between atoms: C_2  and  CA_3 
REMARK    2  A    between atoms: C_2  and  OXT_13 
REMARK    3  A    between atoms: C_9  and  N_10 
ROOT
HETATM    1  CA  LIG     1      18.237  36.965  20.690  1.00  0.00     0.155 A 
HETATM    2  N   LIG     1      17.789  35.961  21.489  1.00  0.00    -0.226 NA
HETATM    3  C   LIG     1      17.274  36.174  22.725  1.00  0.00     0.151 A 
HETATM    4 CL   LIG     1      16.734  34.784  23.654  1.00  0.00    -0.060 Cl
HETATM    5  C   LIG     1      17.186  37.475  23.234  1.00  0.00     0.102 A 
HETATM    6 CL   LIG     1      16.523  37.734  24.848  1.00  0.00    -0.078 Cl
HETATM    7  C   LIG     1      17.629  38.556  22.442  1.00  0.00     0.075 A 
HETATM    8  C   LIG     1      18.155  38.302  21.152  1.00  0.00     0.097 A 
HETATM    9 CL   LIG     1      18.640  39.656  20.123  1.00  0.00    -0.079 Cl
ENDROOT
BRANCH   1  10
HETATM   10  C   LIG     1      18.794  36.589  19.367  1.00  0.00     0.197 C 
HETATM   11  O   LIG     1      20.010  36.294  19.233  1.00  0.00    -0.645 OA
BRANCH  10  12
HETATM   12  OXT LIG     1      17.967  36.517  18.247  1.00  0.00    -0.772 OA
HETATM   13  HXT LIG     1      16.979  36.734  18.295  1.00  0.00     0.167 HD
ENDBRANCH  10  12
ENDBRANCH   1  10
BRANCH   7  14
HETATM   14  N   LIG     1      17.540  39.900  22.943  1.00  0.00    -0.396 N 
HETATM   15  H   LIG     1      17.083  40.666  22.403  1.00  0.00     0.156 HD
HETATM   16  H   LIG     1      17.939  40.172  23.867  1.00  0.00     0.156 HD
ENDBRANCH   7  14
TORSDOF 3
ENDMDL
MODEL 18
REMARK VINA RESULT:      -4.2      8.802     10.116
REMARK  3 active torsions:
REMARK  status: ('A' for Active; 'I' for Inactive)
REMARK    1  A    between atoms: C_2  and  CA_3 
REMARK    2  A    between atoms: C_2  and  OXT_13 
REMARK    3  A    between atoms: C_9  and  N_10 
ROOT
HETATM    1  CA  LIG     1      14.355  31.352  15.697  1.00  0.00     0.155 A 
HETATM    2  N   LIG     1      14.466  32.371  16.588  1.00  0.00    -0.226 NA
HETATM    3  C   LIG     1      15.359  33.381  16.449  1.00  0.00     0.151 A 
HETATM    4 CL   LIG     1      15.397  34.636  17.678  1.00  0.00    -0.060 Cl
HETATM    5  C   LIG     1      16.225  33.405  15.350  1.00  0.00     0.102 A 
HETATM    6 CL   LIG     1      17.389  34.721  15.189  1.00  0.00    -0.078 Cl
HETATM    7  C   LIG     1      16.147  32.374  14.389  1.00  0.00     0.075 A 
HETATM    8  C   LIG     1      15.198  31.338  14.558  1.00  0.00     0.097 A 
HETATM    9 CL   LIG     1      15.041  30.085  13.319  1.00  0.00    -0.079 Cl
ENDROOT
BRANCH   1  10
HETATM   10  C   LIG     1      13.346  30.301  15.980  1.00  0.00     0.197 C 
HETATM   11  O   LIG     1      13.082  29.955  17.161  1.00  0.00    -0.645 OA
BRANCH  10  12
HETATM   12  OXT LIG     1      12.638  29.702  14.940  1.00  0.00    -0.772 OA
HETATM   13  HXT LIG     1      12.211  28.789  15.036  1.00  0.00     0.167 HD
ENDBRANCH  10  12
ENDBRANCH   1  10
BRANCH   7  14
HETATM   14  N   LIG     1      17.022  32.385  13.248  1.00  0.00    -0.396 N 
HETATM   15  H   LIG     1      17.105  31.570  12.603  1.00  0.00     0.156 HD
HETATM   16  H   LIG     1      17.622  33.207  13.021  1.00  0.00     0.156 HD
ENDBRANCH   7  14
TORSDOF 3
ENDMDL
MODEL 19
REMARK VINA RESULT:      -3.9      8.949     10.505
REMARK  3 active torsions:
REMARK  status: ('A' for Active; 'I' for Inactive)
REMARK    1  A    between atoms: C_2  and  CA_3 
REMARK    2  A    between atoms: C_2  and  OXT_13 
REMARK    3  A    between atoms: C_9  and  N_10 
ROOT
HETATM    1  CA  LIG     1      15.176  31.224  14.930  1.00  0.00     0.155 A 
HETATM    2  N   LIG     1      14.583  31.040  16.138  1.00  0.00    -0.226 NA
HETATM    3  C   LIG     1      14.698  31.924  17.160  1.00  0.00     0.151 A 
HETATM    4 CL   LIG     1      13.880  31.561  18.672  1.00  0.00    -0.060 Cl
HETATM    5  C   LIG     1      15.457  33.089  16.998  1.00  0.00     0.102 A 
HETATM    6 CL   LIG     1      15.605  34.223  18.342  1.00  0.00    -0.078 Cl
HETATM    7  C   LIG     1      16.088  33.333  15.760  1.00  0.00     0.075 A 
HETATM    8  C   LIG     1      15.943  32.395  14.709  1.00  0.00     0.097 A 
HETATM    9 CL   LIG     1      16.666  32.731  13.131  1.00  0.00    -0.079 Cl
ENDROOT
BRANCH   1  10
HETATM   10  C   LIG     1      14.983  30.168  13.905  1.00  0.00     0.197 C 
HETATM   11  O   LIG     1      15.923  29.818  13.146  1.00  0.00    -0.645 OA
BRANCH  10  12
HETATM   12  OXT LIG     1      13.759  29.511  13.791  1.00  0.00    -0.772 OA
HETATM   13  HXT LIG     1      13.691  28.555  13.465  1.00  0.00     0.167 HD
ENDBRANCH  10  12
ENDBRANCH   1  10
BRANCH   7  14
HETATM   14  N   LIG     1      16.866  34.527  15.570  1.00  0.00    -0.396 N 
HETATM   15  H   LIG     1      17.866  34.499  15.277  1.00  0.00     0.156 HD
HETATM   16  H   LIG     1      16.466  35.477  15.728  1.00  0.00     0.156 HD
ENDBRANCH   7  14
TORSDOF 3
ENDMDL
MODEL 20
REMARK VINA RESULT:      -3.9     10.753     12.171
REMARK  3 active torsions:
REMARK  status: ('A' for Active; 'I' for Inactive)
REMARK    1  A    between atoms: C_2  and  CA_3 
REMARK    2  A    between atoms: C_2  and  OXT_13 
REMARK    3  A    between atoms: C_9  and  N_10 
ROOT
HETATM    1  CA  LIG     1      13.449  29.441  14.401  1.00  0.00     0.155 A 
HETATM    2  N   LIG     1      12.729  30.201  15.267  1.00  0.00    -0.226 NA
HETATM    3  C   LIG     1      13.240  31.284  15.902  1.00  0.00     0.151 A 
HETATM    4 CL   LIG     1      12.198  32.178  16.999  1.00  0.00    -0.060 Cl
HETATM    5  C   LIG     1      14.569  31.665  15.679  1.00  0.00     0.102 A 
HETATM    6 CL   LIG     1      15.222  33.071  16.521  1.00  0.00    -0.078 Cl
HETATM    7  C   LIG     1      15.359  30.915  14.783  1.00  0.00     0.075 A 
HETATM    8  C   LIG     1      14.794  29.793  14.129  1.00  0.00     0.097 A 
HETATM    9 CL   LIG     1      15.753  28.895  12.946  1.00  0.00    -0.079 Cl
ENDROOT
BRANCH   1  10
HETATM   10  C   LIG     1      12.770  28.272  13.790  1.00  0.00     0.197 C 
HETATM   11  O   LIG     1      13.291  27.127  13.821  1.00  0.00    -0.645 OA
BRANCH  10  12
HETATM   12  OXT LIG     1      11.514  28.412  13.201  1.00  0.00    -0.772 OA
HETATM   13  HXT LIG     1      10.889  29.171  13.444  1.00  0.00     0.167 HD
ENDBRANCH  10  12
ENDBRANCH   1  10
BRANCH   7  14
HETATM   14  N   LIG     1      16.724  31.293  14.535  1.00  0.00    -0.396 N 
HETATM   15  H   LIG     1      17.036  32.288  14.545  1.00  0.00     0.156 HD
HETATM   16  H   LIG     1      17.462  30.588  14.324  1.00  0.00     0.156 HD
ENDBRANCH   7  14
TORSDOF 3
ENDMDL
