REMARK  3 active torsions:
REMARK  status: ('A' for Active; 'I' for Inactive)
REMARK    1  A    between atoms: C_2  and  C_3 
REMARK       I    between atoms: C_2  and  N_5 
REMARK    2  A    between atoms: N_5  and  C_6 
REMARK    3  A    between atoms: N_5  and  C_9 
ROOT
HETATM    1  O   LIG     1      -3.002   0.952  -0.716  1.00  0.00    -0.272 OA
HETATM    2  C   LIG     1      -1.751   1.111  -0.723  1.00  0.00     0.238 C 
HETATM    3  N   LIG     1      -0.880   0.008  -0.379  1.00  0.00    -0.313 N 
ENDROOT
BRANCH   3   4
HETATM    4  C   LIG     1      -1.444  -1.343  -0.178  1.00  0.00     0.085 C 
HETATM    5  C   LIG     1      -0.512  -2.438  -0.715  1.00  0.00     0.032 C 
HETATM    6  C   LIG     1      -1.764  -1.577   1.301  1.00  0.00     0.032 C 
ENDBRANCH   3   4
BRANCH   3   7
HETATM    7  C   LIG     1       0.494   0.272  -0.042  1.00  0.00     0.037 A 
HETATM    8  C   LIG     1       1.493   0.159  -1.021  1.00  0.00     0.030 A 
HETATM    9  C   LIG     1       2.827   0.425  -0.697  1.00  0.00     0.002 A 
HETATM   10  C   LIG     1       3.168   0.809   0.603  1.00  0.00     0.000 A 
HETATM   11  C   LIG     1       2.176   0.931   1.580  1.00  0.00     0.002 A 
HETATM   12  C   LIG     1       0.841   0.665   1.259  1.00  0.00     0.030 A 
ENDBRANCH   3   7
BRANCH   2  13
HETATM   13  C   LIG     1      -1.211   2.472  -1.058  1.00  0.00     0.217 C 
HETATM   14 CL   LIG     1      -1.054   3.445   0.424  1.00  0.00    -0.121 Cl
ENDBRANCH   2  13
TORSDOF 3
