REMARK  0 active torsions:
REMARK  status: ('A' for Active; 'I' for Inactive)
ROOT
HETATM    1  C   LIG     1      -0.958   0.621  -0.076  1.00  0.00    -0.003 A 
HETATM    2  C   LIG     1      -0.832  -0.785  -0.121  1.00  0.00    -0.003 A 
HETATM    3  C   LIG     1       0.447  -1.394  -0.222  1.00  0.00    -0.013 A 
HETATM    4  C   LIG     1       1.613  -0.571  -0.278  1.00  0.00    -0.014 A 
HETATM    5  C   LIG     1       1.485   0.856  -0.232  1.00  0.00    -0.014 A 
HETATM    6  C   LIG     1       2.667   1.641  -0.289  1.00  0.00     0.013 A 
HETATM    7  C   LIG     1       3.924   1.054  -0.388  1.00  0.00     0.001 A 
HETATM    8  C   LIG     1       4.047  -0.323  -0.432  1.00  0.00     0.001 A 
HETATM    9  C   LIG     1       2.916  -1.129  -0.379  1.00  0.00     0.013 A 
HETATM   10  C   LIG     1       0.192   1.452  -0.130  1.00  0.00    -0.013 A 
HETATM   11  C   LIG     1      -0.005   2.858  -0.080  1.00  0.00     0.013 A 
HETATM   12  C   LIG     1      -1.281   3.409   0.019  1.00  0.00     0.002 A 
HETATM   13  C   LIG     1      -2.399   2.589   0.071  1.00  0.00     0.012 A 
HETATM   14  C   LIG     1      -2.253   1.201   0.025  1.00  0.00    -0.024 A 
HETATM   15  C   LIG     1      -3.389   0.387   0.079  1.00  0.00     0.013 A 
HETATM   16  C   LIG     1      -3.265  -0.997   0.034  1.00  0.00     0.013 A 
HETATM   17  C   LIG     1      -2.002  -1.591  -0.065  1.00  0.00    -0.024 A 
HETATM   18  C   LIG     1      -1.899  -2.984  -0.108  1.00  0.00     0.012 A 
HETATM   19  C   LIG     1      -0.654  -3.586  -0.207  1.00  0.00     0.002 A 
HETATM   20  C   LIG     1       0.503  -2.812  -0.263  1.00  0.00     0.013 A 
ENDROOT
TORSDOF 0
