MODEL 1
REMARK VINA RESULT:      -7.1      0.000      0.000
REMARK  0 active torsions:
REMARK  status: ('A' for Active; 'I' for Inactive)
ROOT
HETATM    1  C   LIG     1      18.180  37.656  21.100  1.00  0.00    -0.003 A 
HETATM    2  C   LIG     1      17.769  37.416  22.430  1.00  0.00    -0.003 A 
HETATM    3  C   LIG     1      16.871  36.358  22.730  1.00  0.00    -0.013 A 
HETATM    4  C   LIG     1      16.383  35.531  21.673  1.00  0.00    -0.014 A 
HETATM    5  C   LIG     1      16.800  35.774  20.323  1.00  0.00    -0.014 A 
HETATM    6  C   LIG     1      16.294  34.931  19.299  1.00  0.00     0.013 A 
HETATM    7  C   LIG     1      15.414  33.892  19.583  1.00  0.00     0.001 A 
HETATM    8  C   LIG     1      15.012  33.657  20.886  1.00  0.00     0.001 A 
HETATM    9  C   LIG     1      15.483  34.459  21.919  1.00  0.00     0.013 A 
HETATM   10  C   LIG     1      17.703  36.842  20.038  1.00  0.00    -0.013 A 
HETATM   11  C   LIG     1      18.156  37.136  18.724  1.00  0.00     0.013 A 
HETATM   12  C   LIG     1      19.038  38.187  18.479  1.00  0.00     0.002 A 
HETATM   13  C   LIG     1      19.498  38.977  19.523  1.00  0.00     0.012 A 
HETATM   14  C   LIG     1      19.080  38.724  20.831  1.00  0.00    -0.024 A 
HETATM   15  C   LIG     1      19.553  39.528  21.872  1.00  0.00     0.013 A 
HETATM   16  C   LIG     1      19.148  39.293  23.181  1.00  0.00     0.013 A 
HETATM   17  C   LIG     1      18.264  38.248  23.471  1.00  0.00    -0.024 A 
HETATM   18  C   LIG     1      17.870  38.028  24.794  1.00  0.00     0.012 A 
HETATM   19  C   LIG     1      16.993  36.997  25.095  1.00  0.00     0.002 A 
HETATM   20  C   LIG     1      16.498  36.172  24.087  1.00  0.00     0.013 A 
ENDROOT
TORSDOF 0
ENDMDL
MODEL 2
REMARK VINA RESULT:      -7.1      0.004      3.806
REMARK  0 active torsions:
REMARK  status: ('A' for Active; 'I' for Inactive)
ROOT
HETATM    1  C   LIG     1      17.769  37.417  22.428  1.00  0.00    -0.003 A 
HETATM    2  C   LIG     1      18.179  37.655  21.098  1.00  0.00    -0.003 A 
HETATM    3  C   LIG     1      17.701  36.840  20.037  1.00  0.00    -0.013 A 
HETATM    4  C   LIG     1      16.798  35.772  20.325  1.00  0.00    -0.014 A 
HETATM    5  C   LIG     1      16.382  35.531  21.676  1.00  0.00    -0.014 A 
HETATM    6  C   LIG     1      15.483  34.460  21.923  1.00  0.00     0.013 A 
HETATM    7  C   LIG     1      15.010  33.657  20.891  1.00  0.00     0.001 A 
HETATM    8  C   LIG     1      15.411  33.890  19.588  1.00  0.00     0.001 A 
HETATM    9  C   LIG     1      16.291  34.927  19.301  1.00  0.00     0.013 A 
HETATM   10  C   LIG     1      16.871  36.360  22.730  1.00  0.00    -0.013 A 
HETATM   11  C   LIG     1      16.499  36.175  24.089  1.00  0.00     0.013 A 
HETATM   12  C   LIG     1      16.995  37.001  25.095  1.00  0.00     0.002 A 
HETATM   13  C   LIG     1      17.872  38.032  24.791  1.00  0.00     0.012 A 
HETATM   14  C   LIG     1      18.265  38.251  23.469  1.00  0.00    -0.024 A 
HETATM   15  C   LIG     1      19.149  39.294  23.177  1.00  0.00     0.013 A 
HETATM   16  C   LIG     1      19.553  39.528  21.867  1.00  0.00     0.013 A 
HETATM   17  C   LIG     1      19.079  38.722  20.827  1.00  0.00    -0.024 A 
HETATM   18  C   LIG     1      19.496  38.974  19.517  1.00  0.00     0.012 A 
HETATM   19  C   LIG     1      19.035  38.183  18.476  1.00  0.00     0.002 A 
HETATM   20  C   LIG     1      18.153  37.133  18.723  1.00  0.00     0.013 A 
ENDROOT
TORSDOF 0
ENDMDL
MODEL 3
REMARK VINA RESULT:      -6.2     16.134     16.660
REMARK  0 active torsions:
REMARK  status: ('A' for Active; 'I' for Inactive)
ROOT
HETATM    1  C   LIG     1      24.710  22.481  20.579  1.00  0.00    -0.003 A 
HETATM    2  C   LIG     1      25.421  22.791  21.759  1.00  0.00    -0.003 A 
HETATM    3  C   LIG     1      26.640  23.519  21.700  1.00  0.00    -0.013 A 
HETATM    4  C   LIG     1      27.144  23.938  20.431  1.00  0.00    -0.014 A 
HETATM    5  C   LIG     1      26.422  23.624  19.233  1.00  0.00    -0.014 A 
HETATM    6  C   LIG     1      26.955  24.058  17.991  1.00  0.00     0.013 A 
HETATM    7  C   LIG     1      28.147  24.772  17.922  1.00  0.00     0.001 A 
HETATM    8  C   LIG     1      28.843  25.075  19.078  1.00  0.00     0.001 A 
HETATM    9  C   LIG     1      28.358  24.669  20.315  1.00  0.00     0.013 A 
HETATM   10  C   LIG     1      25.199  22.892  19.311  1.00  0.00    -0.013 A 
HETATM   11  C   LIG     1      24.434  22.548  18.164  1.00  0.00     0.013 A 
HETATM   12  C   LIG     1      23.244  21.831  18.274  1.00  0.00     0.002 A 
HETATM   13  C   LIG     1      22.774  21.434  19.517  1.00  0.00     0.012 A 
HETATM   14  C   LIG     1      23.493  21.751  20.672  1.00  0.00    -0.024 A 
HETATM   15  C   LIG     1      23.007  21.344  21.919  1.00  0.00     0.013 A 
HETATM   16  C   LIG     1      23.707  21.649  23.080  1.00  0.00     0.013 A 
HETATM   17  C   LIG     1      24.907  22.366  23.015  1.00  0.00    -0.024 A 
HETATM   18  C   LIG     1      25.595  22.663  24.194  1.00  0.00     0.012 A 
HETATM   19  C   LIG     1      26.785  23.373  24.144  1.00  0.00     0.002 A 
HETATM   20  C   LIG     1      27.304  23.797  22.923  1.00  0.00     0.013 A 
ENDROOT
TORSDOF 0
ENDMDL
MODEL 4
REMARK VINA RESULT:      -6.2     16.008     16.893
REMARK  0 active torsions:
REMARK  status: ('A' for Active; 'I' for Inactive)
ROOT
HETATM    1  C   LIG     1      25.239  22.686  21.871  1.00  0.00    -0.003 A 
HETATM    2  C   LIG     1      24.581  22.384  20.659  1.00  0.00    -0.003 A 
HETATM    3  C   LIG     1      25.075  22.880  19.423  1.00  0.00    -0.013 A 
HETATM    4  C   LIG     1      26.250  23.691  19.414  1.00  0.00    -0.014 A 
HETATM    5  C   LIG     1      26.919  23.998  20.644  1.00  0.00    -0.014 A 
HETATM    6  C   LIG     1      28.085  24.806  20.594  1.00  0.00     0.013 A 
HETATM    7  C   LIG     1      28.577  25.297  19.389  1.00  0.00     0.001 A 
HETATM    8  C   LIG     1      27.932  25.001  18.202  1.00  0.00     0.001 A 
HETATM    9  C   LIG     1      26.787  24.213  18.206  1.00  0.00     0.013 A 
HETATM   10  C   LIG     1      26.409  23.490  21.877  1.00  0.00    -0.013 A 
HETATM   11  C   LIG     1      27.023  23.756  23.130  1.00  0.00     0.013 A 
HETATM   12  C   LIG     1      26.500  23.247  24.317  1.00  0.00     0.002 A 
HETATM   13  C   LIG     1      25.356  22.461  24.301  1.00  0.00     0.012 A 
HETATM   14  C   LIG     1      24.720  22.174  23.092  1.00  0.00    -0.024 A 
HETATM   15  C   LIG     1      23.568  21.380  23.092  1.00  0.00     0.013 A 
HETATM   16  C   LIG     1      22.919  21.084  21.899  1.00  0.00     0.013 A 
HETATM   17  C   LIG     1      23.411  21.575  20.685  1.00  0.00    -0.024 A 
HETATM   18  C   LIG     1      22.745  21.264  19.497  1.00  0.00     0.012 A 
HETATM   19  C   LIG     1      23.221  21.745  18.287  1.00  0.00     0.002 A 
HETATM   20  C   LIG     1      24.365  22.539  18.242  1.00  0.00     0.013 A 
ENDROOT
TORSDOF 0
ENDMDL
MODEL 5
REMARK VINA RESULT:      -6.1     16.024     16.570
REMARK  0 active torsions:
REMARK  status: ('A' for Active; 'I' for Inactive)
ROOT
HETATM    1  C   LIG     1      25.077  22.721  20.303  1.00  0.00    -0.003 A 
HETATM    2  C   LIG     1      26.053  23.270  21.164  1.00  0.00    -0.003 A 
HETATM    3  C   LIG     1      26.026  22.996  22.557  1.00  0.00    -0.013 A 
HETATM    4  C   LIG     1      24.999  22.156  23.086  1.00  0.00    -0.014 A 
HETATM    5  C   LIG     1      24.009  21.598  22.213  1.00  0.00    -0.014 A 
HETATM    6  C   LIG     1      23.005  20.767  22.776  1.00  0.00     0.013 A 
HETATM    7  C   LIG     1      22.969  20.493  24.139  1.00  0.00     0.001 A 
HETATM    8  C   LIG     1      23.925  21.031  24.981  1.00  0.00     0.001 A 
HETATM    9  C   LIG     1      24.926  21.850  24.472  1.00  0.00     0.013 A 
HETATM   10  C   LIG     1      24.051  21.884  20.815  1.00  0.00    -0.013 A 
HETATM   11  C   LIG     1      23.102  21.364  19.895  1.00  0.00     0.013 A 
HETATM   12  C   LIG     1      23.170  21.662  18.535  1.00  0.00     0.002 A 
HETATM   13  C   LIG     1      24.176  22.481  18.044  1.00  0.00     0.012 A 
HETATM   14  C   LIG     1      25.132  23.014  18.912  1.00  0.00    -0.024 A 
HETATM   15  C   LIG     1      26.141  23.838  18.403  1.00  0.00     0.013 A 
HETATM   16  C   LIG     1      27.101  24.379  19.250  1.00  0.00     0.013 A 
HETATM   17  C   LIG     1      27.069  24.105  20.622  1.00  0.00    -0.024 A 
HETATM   18  C   LIG     1      28.044  24.658  21.457  1.00  0.00     0.012 A 
HETATM   19  C   LIG     1      28.023  24.396  22.818  1.00  0.00     0.002 A 
HETATM   20  C   LIG     1      27.036  23.580  23.366  1.00  0.00     0.013 A 
ENDROOT
TORSDOF 0
ENDMDL
MODEL 6
REMARK VINA RESULT:      -6.0     15.497     17.428
REMARK  0 active torsions:
REMARK  status: ('A' for Active; 'I' for Inactive)
ROOT
HETATM    1  C   LIG     1      23.605  20.460  20.577  1.00  0.00    -0.003 A 
HETATM    2  C   LIG     1      23.954  21.050  21.811  1.00  0.00    -0.003 A 
HETATM    3  C   LIG     1      24.677  22.272  21.850  1.00  0.00    -0.013 A 
HETATM    4  C   LIG     1      25.051  22.905  20.626  1.00  0.00    -0.014 A 
HETATM    5  C   LIG     1      24.696  22.306  19.373  1.00  0.00    -0.014 A 
HETATM    6  C   LIG     1      25.085  22.964  18.176  1.00  0.00     0.013 A 
HETATM    7  C   LIG     1      25.793  24.161  18.204  1.00  0.00     0.001 A 
HETATM    8  C   LIG     1      26.135  24.739  19.413  1.00  0.00     0.001 A 
HETATM    9  C   LIG     1      25.774  24.128  20.608  1.00  0.00     0.013 A 
HETATM   10  C   LIG     1      23.969  21.077  19.351  1.00  0.00    -0.013 A 
HETATM   11  C   LIG     1      23.586  20.431  18.146  1.00  0.00     0.013 A 
HETATM   12  C   LIG     1      22.877  19.232  18.159  1.00  0.00     0.002 A 
HETATM   13  C   LIG     1      22.526  18.636  19.361  1.00  0.00     0.012 A 
HETATM   14  C   LIG     1      22.881  19.235  20.571  1.00  0.00    -0.024 A 
HETATM   15  C   LIG     1      22.519  18.623  21.775  1.00  0.00     0.013 A 
HETATM   16  C   LIG     1      22.863  19.204  22.991  1.00  0.00     0.013 A 
HETATM   17  C   LIG     1      23.575  20.408  23.022  1.00  0.00    -0.024 A 
HETATM   18  C   LIG     1      23.911  20.976  24.254  1.00  0.00     0.012 A 
HETATM   19  C   LIG     1      24.617  22.169  24.300  1.00  0.00     0.002 A 
HETATM   20  C   LIG     1      24.996  22.811  23.124  1.00  0.00     0.013 A 
ENDROOT
TORSDOF 0
ENDMDL
MODEL 7
REMARK VINA RESULT:      -6.0     15.770     16.448
REMARK  0 active torsions:
REMARK  status: ('A' for Active; 'I' for Inactive)
ROOT
HETATM    1  C   LIG     1      26.339  23.451  21.861  1.00  0.00    -0.003 A 
HETATM    2  C   LIG     1      26.744  24.064  20.655  1.00  0.00    -0.003 A 
HETATM    3  C   LIG     1      26.093  23.755  19.432  1.00  0.00    -0.013 A 
HETATM    4  C   LIG     1      25.018  22.814  19.428  1.00  0.00    -0.014 A 
HETATM    5  C   LIG     1      24.607  22.192  20.652  1.00  0.00    -0.014 A 
HETATM    6  C   LIG     1      23.534  21.262  20.608  1.00  0.00     0.013 A 
HETATM    7  C   LIG     1      22.890  20.953  19.415  1.00  0.00     0.001 A 
HETATM    8  C   LIG     1      23.287  21.554  18.234  1.00  0.00     0.001 A 
HETATM    9  C   LIG     1      24.333  22.469  18.232  1.00  0.00     0.013 A 
HETATM   10  C   LIG     1      25.272  22.514  21.873  1.00  0.00    -0.013 A 
HETATM   11  C   LIG     1      24.915  21.934  23.120  1.00  0.00     0.013 A 
HETATM   12  C   LIG     1      25.585  22.269  24.295  1.00  0.00     0.002 A 
HETATM   13  C   LIG     1      26.626  23.186  24.273  1.00  0.00     0.012 A 
HETATM   14  C   LIG     1      27.012  23.781  23.070  1.00  0.00    -0.024 A 
HETATM   15  C   LIG     1      28.063  24.704  23.064  1.00  0.00     0.013 A 
HETATM   16  C   LIG     1      28.462  25.307  21.877  1.00  0.00     0.013 A 
HETATM   17  C   LIG     1      27.816  24.999  20.675  1.00  0.00    -0.024 A 
HETATM   18  C   LIG     1      28.232  25.617  19.493  1.00  0.00     0.012 A 
HETATM   19  C   LIG     1      27.601  25.320  18.294  1.00  0.00     0.002 A 
HETATM   20  C   LIG     1      26.549  24.407  18.256  1.00  0.00     0.013 A 
ENDROOT
TORSDOF 0
ENDMDL
MODEL 8
REMARK VINA RESULT:      -5.9     15.694     16.043
REMARK  0 active torsions:
REMARK  status: ('A' for Active; 'I' for Inactive)
ROOT
HETATM    1  C   LIG     1      26.855  24.155  20.649  1.00  0.00    -0.003 A 
HETATM    2  C   LIG     1      26.497  23.492  21.844  1.00  0.00    -0.003 A 
HETATM    3  C   LIG     1      25.458  22.524  21.851  1.00  0.00    -0.013 A 
HETATM    4  C   LIG     1      24.773  22.222  20.634  1.00  0.00    -0.014 A 
HETATM    5  C   LIG     1      25.136  22.894  19.422  1.00  0.00    -0.014 A 
HETATM    6  C   LIG     1      24.433  22.567  18.232  1.00  0.00     0.013 A 
HETATM    7  C   LIG     1      23.414  21.620  18.229  1.00  0.00     0.001 A 
HETATM    8  C   LIG     1      23.064  20.971  19.399  1.00  0.00     0.001 A 
HETATM    9  C   LIG     1      23.727  21.261  20.586  1.00  0.00     0.013 A 
HETATM   10  C   LIG     1      26.183  23.865  19.432  1.00  0.00    -0.013 A 
HETATM   11  C   LIG     1      26.593  24.567  18.267  1.00  0.00     0.013 A 
HETATM   12  C   LIG     1      27.618  25.509  18.310  1.00  0.00     0.002 A 
HETATM   13  C   LIG     1      28.268  25.786  19.504  1.00  0.00     0.012 A 
HETATM   14  C   LIG     1      27.899  25.120  20.675  1.00  0.00    -0.024 A 
HETATM   15  C   LIG     1      28.565  25.409  21.870  1.00  0.00     0.013 A 
HETATM   16  C   LIG     1      28.212  24.757  23.047  1.00  0.00     0.013 A 
HETATM   17  C   LIG     1      27.188  23.804  23.047  1.00  0.00    -0.024 A 
HETATM   18  C   LIG     1      26.849  23.159  24.239  1.00  0.00     0.012 A 
HETATM   19  C   LIG     1      25.836  22.213  24.254  1.00  0.00     0.002 A 
HETATM   20  C   LIG     1      25.148  21.895  23.085  1.00  0.00     0.013 A 
ENDROOT
TORSDOF 0
ENDMDL
MODEL 9
REMARK VINA RESULT:      -5.8     16.224     18.223
REMARK  0 active torsions:
REMARK  status: ('A' for Active; 'I' for Inactive)
ROOT
HETATM    1  C   LIG     1      25.949  21.144  17.882  1.00  0.00    -0.003 A 
HETATM    2  C   LIG     1      24.777  20.403  17.617  1.00  0.00    -0.003 A 
HETATM    3  C   LIG     1      23.612  20.583  18.409  1.00  0.00    -0.013 A 
HETATM    4  C   LIG     1      23.633  21.524  19.483  1.00  0.00    -0.014 A 
HETATM    5  C   LIG     1      24.823  22.276  19.753  1.00  0.00    -0.014 A 
HETATM    6  C   LIG     1      24.805  23.203  20.829  1.00  0.00     0.013 A 
HETATM    7  C   LIG     1      23.669  23.386  21.610  1.00  0.00     0.001 A 
HETATM    8  C   LIG     1      22.521  22.660  21.350  1.00  0.00     0.001 A 
HETATM    9  C   LIG     1      22.495  21.742  20.306  1.00  0.00     0.013 A 
HETATM   10  C   LIG     1      25.985  22.084  18.946  1.00  0.00    -0.013 A 
HETATM   11  C   LIG     1      27.195  22.797  19.159  1.00  0.00     0.013 A 
HETATM   12  C   LIG     1      28.313  22.585  18.355  1.00  0.00     0.002 A 
HETATM   13  C   LIG     1      28.269  21.665  17.317  1.00  0.00     0.012 A 
HETATM   14  C   LIG     1      27.100  20.942  17.071  1.00  0.00    -0.024 A 
HETATM   15  C   LIG     1      27.070  20.018  16.021  1.00  0.00     0.013 A 
HETATM   16  C   LIG     1      25.916  19.288  15.760  1.00  0.00     0.013 A 
HETATM   17  C   LIG     1      24.771  19.470  16.544  1.00  0.00    -0.024 A 
HETATM   18  C   LIG     1      23.622  18.726  16.265  1.00  0.00     0.012 A 
HETATM   19  C   LIG     1      22.481  18.895  17.034  1.00  0.00     0.002 A 
HETATM   20  C   LIG     1      22.468  19.806  18.089  1.00  0.00     0.013 A 
ENDROOT
TORSDOF 0
ENDMDL
MODEL 10
REMARK VINA RESULT:      -5.8     15.940     16.665
REMARK  0 active torsions:
REMARK  status: ('A' for Active; 'I' for Inactive)
ROOT
HETATM    1  C   LIG     1      25.351  22.976  20.579  1.00  0.00    -0.003 A 
HETATM    2  C   LIG     1      24.655  22.301  21.607  1.00  0.00    -0.003 A 
HETATM    3  C   LIG     1      25.079  22.408  22.958  1.00  0.00    -0.013 A 
HETATM    4  C   LIG     1      26.220  23.207  23.274  1.00  0.00    -0.014 A 
HETATM    5  C   LIG     1      26.926  23.892  22.231  1.00  0.00    -0.014 A 
HETATM    6  C   LIG     1      28.055  24.678  22.584  1.00  0.00     0.013 A 
HETATM    7  C   LIG     1      28.477  24.789  23.905  1.00  0.00     0.001 A 
HETATM    8  C   LIG     1      27.796  24.128  24.911  1.00  0.00     0.001 A 
HETATM    9  C   LIG     1      26.685  23.348  24.609  1.00  0.00     0.013 A 
HETATM   10  C   LIG     1      26.486  23.774  20.878  1.00  0.00    -0.013 A 
HETATM   11  C   LIG     1      27.140  24.426  19.798  1.00  0.00     0.013 A 
HETATM   12  C   LIG     1      26.686  24.290  18.487  1.00  0.00     0.002 A 
HETATM   13  C   LIG     1      25.576  23.507  18.205  1.00  0.00     0.012 A 
HETATM   14  C   LIG     1      24.902  22.848  19.235  1.00  0.00    -0.024 A 
HETATM   15  C   LIG     1      23.784  22.064  18.935  1.00  0.00     0.013 A 
HETATM   16  C   LIG     1      23.100  21.399  19.947  1.00  0.00     0.013 A 
HETATM   17  C   LIG     1      23.522  21.509  21.276  1.00  0.00    -0.024 A 
HETATM   18  C   LIG     1      22.820  20.834  22.278  1.00  0.00     0.012 A 
HETATM   19  C   LIG     1      23.227  20.933  23.600  1.00  0.00     0.002 A 
HETATM   20  C   LIG     1      24.336  21.704  23.942  1.00  0.00     0.013 A 
ENDROOT
TORSDOF 0
ENDMDL
MODEL 11
REMARK VINA RESULT:      -5.8     16.005     17.075
REMARK  0 active torsions:
REMARK  status: ('A' for Active; 'I' for Inactive)
ROOT
HETATM    1  C   LIG     1      24.682  22.292  21.508  1.00  0.00    -0.003 A 
HETATM    2  C   LIG     1      25.415  22.961  20.502  1.00  0.00    -0.003 A 
HETATM    3  C   LIG     1      26.545  23.754  20.837  1.00  0.00    -0.013 A 
HETATM    4  C   LIG     1      26.938  23.873  22.205  1.00  0.00    -0.014 A 
HETATM    5  C   LIG     1      26.194  23.194  23.225  1.00  0.00    -0.014 A 
HETATM    6  C   LIG     1      26.616  23.335  24.574  1.00  0.00     0.013 A 
HETATM    7  C   LIG     1      27.720  24.110  24.912  1.00  0.00     0.001 A 
HETATM    8  C   LIG     1      28.438  24.765  23.927  1.00  0.00     0.001 A 
HETATM    9  C   LIG     1      28.059  24.654  22.594  1.00  0.00     0.013 A 
HETATM   10  C   LIG     1      25.062  22.400  22.872  1.00  0.00    -0.013 A 
HETATM   11  C   LIG     1      24.282  21.702  23.832  1.00  0.00     0.013 A 
HETATM   12  C   LIG     1      23.181  20.935  23.455  1.00  0.00     0.002 A 
HETATM   13  C   LIG     1      22.818  20.836  22.119  1.00  0.00     0.012 A 
HETATM   14  C   LIG     1      23.556  21.505  21.141  1.00  0.00    -0.024 A 
HETATM   15  C   LIG     1      23.178  21.395  19.798  1.00  0.00     0.013 A 
HETATM   16  C   LIG     1      23.899  22.054  18.809  1.00  0.00     0.013 A 
HETATM   17  C   LIG     1      25.011  22.834  19.145  1.00  0.00    -0.024 A 
HETATM   18  C   LIG     1      25.723  23.487  18.135  1.00  0.00     0.012 A 
HETATM   19  C   LIG     1      26.826  24.264  18.454  1.00  0.00     0.002 A 
HETATM   20  C   LIG     1      27.236  24.400  19.779  1.00  0.00     0.013 A 
ENDROOT
TORSDOF 0
ENDMDL
MODEL 12
REMARK VINA RESULT:      -5.7     16.064     18.074
REMARK  0 active torsions:
REMARK  status: ('A' for Active; 'I' for Inactive)
ROOT
HETATM    1  C   LIG     1      23.431  20.692  25.397  1.00  0.00    -0.003 A 
HETATM    2  C   LIG     1      23.816  21.268  24.167  1.00  0.00    -0.003 A 
HETATM    3  C   LIG     1      24.717  22.366  24.133  1.00  0.00    -0.013 A 
HETATM    4  C   LIG     1      25.234  22.887  25.358  1.00  0.00    -0.014 A 
HETATM    5  C   LIG     1      24.842  22.302  26.607  1.00  0.00    -0.014 A 
HETATM    6  C   LIG     1      25.378  22.847  27.804  1.00  0.00     0.013 A 
HETATM    7  C   LIG     1      26.260  23.921  27.781  1.00  0.00     0.001 A 
HETATM    8  C   LIG     1      26.638  24.486  26.576  1.00  0.00     0.001 A 
HETATM    9  C   LIG     1      26.137  23.984  25.381  1.00  0.00     0.013 A 
HETATM   10  C   LIG     1      23.937  21.199  26.623  1.00  0.00    -0.013 A 
HETATM   11  C   LIG     1      23.509  20.573  27.825  1.00  0.00     0.013 A 
HETATM   12  C   LIG     1      22.623  19.498  27.807  1.00  0.00     0.002 A 
HETATM   13  C   LIG     1      22.133  19.009  26.604  1.00  0.00     0.012 A 
HETATM   14  C   LIG     1      22.527  19.593  25.398  1.00  0.00    -0.024 A 
HETATM   15  C   LIG     1      22.026  19.090  24.194  1.00  0.00     0.013 A 
HETATM   16  C   LIG     1      22.405  19.658  22.983  1.00  0.00     0.013 A 
HETATM   17  C   LIG     1      23.293  20.739  22.956  1.00  0.00    -0.024 A 
HETATM   18  C   LIG     1      23.662  21.295  21.728  1.00  0.00     0.012 A 
HETATM   19  C   LIG     1      24.540  22.367  21.686  1.00  0.00     0.002 A 
HETATM   20  C   LIG     1      25.063  22.899  22.863  1.00  0.00     0.013 A 
ENDROOT
TORSDOF 0
ENDMDL
MODEL 13
REMARK VINA RESULT:      -5.7     16.636     17.330
REMARK  0 active torsions:
REMARK  status: ('A' for Active; 'I' for Inactive)
ROOT
HETATM    1  C   LIG     1      28.095  28.723  32.177  1.00  0.00    -0.003 A 
HETATM    2  C   LIG     1      28.951  29.789  31.825  1.00  0.00    -0.003 A 
HETATM    3  C   LIG     1      29.621  29.796  30.572  1.00  0.00    -0.013 A 
HETATM    4  C   LIG     1      29.421  28.712  29.664  1.00  0.00    -0.014 A 
HETATM    5  C   LIG     1      28.551  27.630  30.022  1.00  0.00    -0.014 A 
HETATM    6  C   LIG     1      28.377  26.570  29.093  1.00  0.00     0.013 A 
HETATM    7  C   LIG     1      29.028  26.567  27.864  1.00  0.00     0.001 A 
HETATM    8  C   LIG     1      29.867  27.612  27.519  1.00  0.00     0.001 A 
HETATM    9  C   LIG     1      30.066  28.669  28.399  1.00  0.00     0.013 A 
HETATM   10  C   LIG     1      27.886  27.638  31.285  1.00  0.00    -0.013 A 
HETATM   11  C   LIG     1      27.012  26.598  31.701  1.00  0.00     0.013 A 
HETATM   12  C   LIG     1      26.378  26.636  32.941  1.00  0.00     0.002 A 
HETATM   13  C   LIG     1      26.588  27.700  33.806  1.00  0.00     0.012 A 
HETATM   14  C   LIG     1      27.439  28.745  33.439  1.00  0.00    -0.024 A 
HETATM   15  C   LIG     1      27.641  29.811  34.321  1.00  0.00     0.013 A 
HETATM   16  C   LIG     1      28.484  30.860  33.975  1.00  0.00     0.013 A 
HETATM   17  C   LIG     1      29.140  30.861  32.739  1.00  0.00    -0.024 A 
HETATM   18  C   LIG     1      29.984  31.926  32.410  1.00  0.00     0.012 A 
HETATM   19  C   LIG     1      30.641  31.940  31.189  1.00  0.00     0.002 A 
HETATM   20  C   LIG     1      30.467  30.898  30.281  1.00  0.00     0.013 A 
ENDROOT
TORSDOF 0
ENDMDL
MODEL 14
REMARK VINA RESULT:      -5.6     16.493     17.956
REMARK  0 active torsions:
REMARK  status: ('A' for Active; 'I' for Inactive)
ROOT
HETATM    1  C   LIG     1      27.926  29.048  33.249  1.00  0.00    -0.003 A 
HETATM    2  C   LIG     1      27.942  28.247  32.086  1.00  0.00    -0.003 A 
HETATM    3  C   LIG     1      28.632  28.676  30.921  1.00  0.00    -0.013 A 
HETATM    4  C   LIG     1      29.315  29.930  30.933  1.00  0.00    -0.014 A 
HETATM    5  C   LIG     1      29.299  30.743  32.113  1.00  0.00    -0.014 A 
HETATM    6  C   LIG     1      29.991  31.983  32.087  1.00  0.00     0.013 A 
HETATM    7  C   LIG     1      30.669  32.412  30.951  1.00  0.00     0.001 A 
HETATM    8  C   LIG     1      30.684  31.627  29.812  1.00  0.00     0.001 A 
HETATM    9  C   LIG     1      30.021  30.406  29.795  1.00  0.00     0.013 A 
HETATM   10  C   LIG     1      28.601  30.297  33.276  1.00  0.00    -0.013 A 
HETATM   11  C   LIG     1      28.546  31.054  34.477  1.00  0.00     0.013 A 
HETATM   12  C   LIG     1      27.855  30.591  35.595  1.00  0.00     0.002 A 
HETATM   13  C   LIG     1      27.198  29.369  35.560  1.00  0.00     0.012 A 
HETATM   14  C   LIG     1      27.226  28.592  34.400  1.00  0.00    -0.024 A 
HETATM   15  C   LIG     1      26.560  27.362  34.379  1.00  0.00     0.013 A 
HETATM   16  C   LIG     1      26.574  26.574  33.234  1.00  0.00     0.013 A 
HETATM   17  C   LIG     1      27.257  27.001  32.090  1.00  0.00    -0.024 A 
HETATM   18  C   LIG     1      27.260  26.193  30.950  1.00  0.00     0.012 A 
HETATM   19  C   LIG     1      27.931  26.605  29.808  1.00  0.00     0.002 A 
HETATM   20  C   LIG     1      28.608  27.823  29.787  1.00  0.00     0.013 A 
ENDROOT
TORSDOF 0
ENDMDL
MODEL 15
REMARK VINA RESULT:      -5.6     16.066     17.831
REMARK  0 active torsions:
REMARK  status: ('A' for Active; 'I' for Inactive)
ROOT
HETATM    1  C   LIG     1      24.958  22.103  19.503  1.00  0.00    -0.003 A 
HETATM    2  C   LIG     1      26.061  21.864  18.654  1.00  0.00    -0.003 A 
HETATM    3  C   LIG     1      25.976  20.908  17.608  1.00  0.00    -0.013 A 
HETATM    4  C   LIG     1      24.760  20.183  17.417  1.00  0.00    -0.014 A 
HETATM    5  C   LIG     1      23.640  20.425  18.279  1.00  0.00    -0.014 A 
HETATM    6  C   LIG     1      22.447  19.686  18.058  1.00  0.00     0.013 A 
HETATM    7  C   LIG     1      22.354  18.747  17.036  1.00  0.00     0.001 A 
HETATM    8  C   LIG     1      23.435  18.514  16.205  1.00  0.00     0.001 A 
HETATM    9  C   LIG     1      24.621  19.215  16.386  1.00  0.00     0.013 A 
HETATM   10  C   LIG     1      23.742  21.391  19.325  1.00  0.00    -0.013 A 
HETATM   11  C   LIG     1      22.671  21.678  20.214  1.00  0.00     0.013 A 
HETATM   12  C   LIG     1      22.803  22.627  21.226  1.00  0.00     0.002 A 
HETATM   13  C   LIG     1      23.995  23.317  21.392  1.00  0.00     0.012 A 
HETATM   14  C   LIG     1      25.074  23.067  20.542  1.00  0.00    -0.024 A 
HETATM   15  C   LIG     1      26.269  23.771  20.721  1.00  0.00     0.013 A 
HETATM   16  C   LIG     1      27.356  23.536  19.886  1.00  0.00     0.013 A 
HETATM   17  C   LIG     1      27.265  22.593  18.856  1.00  0.00    -0.024 A 
HETATM   18  C   LIG     1      28.368  22.372  18.027  1.00  0.00     0.012 A 
HETATM   19  C   LIG     1      28.293  21.440  17.004  1.00  0.00     0.002 A 
HETATM   20  C   LIG     1      27.121  20.717  16.791  1.00  0.00     0.013 A 
ENDROOT
TORSDOF 0
ENDMDL
MODEL 16
REMARK VINA RESULT:      -5.6     16.490     17.616
REMARK  0 active torsions:
REMARK  status: ('A' for Active; 'I' for Inactive)
ROOT
HETATM    1  C   LIG     1      27.957  28.058  31.891  1.00  0.00    -0.003 A 
HETATM    2  C   LIG     1      27.922  28.909  33.017  1.00  0.00    -0.003 A 
HETATM    3  C   LIG     1      28.584  30.166  32.995  1.00  0.00    -0.013 A 
HETATM    4  C   LIG     1      29.289  30.566  31.819  1.00  0.00    -0.014 A 
HETATM    5  C   LIG     1      29.323  29.702  30.676  1.00  0.00    -0.014 A 
HETATM    6  C   LIG     1      30.033  30.135  29.524  1.00  0.00     0.013 A 
HETATM    7  C   LIG     1      30.684  31.363  29.493  1.00  0.00     0.001 A 
HETATM    8  C   LIG     1      30.651  32.197  30.596  1.00  0.00     0.001 A 
HETATM    9  C   LIG     1      29.967  31.812  31.743  1.00  0.00     0.013 A 
HETATM   10  C   LIG     1      28.653  28.442  30.715  1.00  0.00    -0.013 A 
HETATM   11  C   LIG     1      28.647  27.540  29.618  1.00  0.00     0.013 A 
HETATM   12  C   LIG     1      27.983  26.317  29.688  1.00  0.00     0.002 A 
HETATM   13  C   LIG     1      27.306  25.949  30.842  1.00  0.00     0.012 A 
HETATM   14  C   LIG     1      27.284  26.805  31.944  1.00  0.00    -0.024 A 
HETATM   15  C   LIG     1      26.597  26.422  33.100  1.00  0.00     0.013 A 
HETATM   16  C   LIG     1      26.564  27.260  34.209  1.00  0.00     0.013 A 
HETATM   17  C   LIG     1      27.217  28.497  34.181  1.00  0.00    -0.024 A 
HETATM   18  C   LIG     1      27.171  29.325  35.306  1.00  0.00     0.012 A 
HETATM   19  C   LIG     1      27.815  30.552  35.292  1.00  0.00     0.002 A 
HETATM   20  C   LIG     1      28.511  30.973  34.160  1.00  0.00     0.013 A 
ENDROOT
TORSDOF 0
ENDMDL
MODEL 17
REMARK VINA RESULT:      -5.6     15.964     17.381
REMARK  0 active torsions:
REMARK  status: ('A' for Active; 'I' for Inactive)
ROOT
HETATM    1  C   LIG     1      23.561  20.931  24.977  1.00  0.00    -0.003 A 
HETATM    2  C   LIG     1      24.501  21.955  25.229  1.00  0.00    -0.003 A 
HETATM    3  C   LIG     1      25.074  22.691  24.158  1.00  0.00    -0.013 A 
HETATM    4  C   LIG     1      24.692  22.388  22.816  1.00  0.00    -0.014 A 
HETATM    5  C   LIG     1      23.738  21.349  22.560  1.00  0.00    -0.014 A 
HETATM    6  C   LIG     1      23.382  21.077  21.212  1.00  0.00     0.013 A 
HETATM    7  C   LIG     1      23.938  21.792  20.157  1.00  0.00     0.001 A 
HETATM    8  C   LIG     1      24.859  22.794  20.404  1.00  0.00     0.001 A 
HETATM    9  C   LIG     1      25.235  23.093  21.708  1.00  0.00     0.013 A 
HETATM   10  C   LIG     1      23.171  20.619  23.648  1.00  0.00    -0.013 A 
HETATM   11  C   LIG     1      22.222  19.579  23.464  1.00  0.00     0.013 A 
HETATM   12  C   LIG     1      21.687  18.884  24.548  1.00  0.00     0.002 A 
HETATM   13  C   LIG     1      22.074  19.196  25.843  1.00  0.00     0.012 A 
HETATM   14  C   LIG     1      23.005  20.212  26.071  1.00  0.00    -0.024 A 
HETATM   15  C   LIG     1      23.385  20.516  27.382  1.00  0.00     0.013 A 
HETATM   16  C   LIG     1      24.311  21.523  27.630  1.00  0.00     0.013 A 
HETATM   17  C   LIG     1      24.871  22.245  26.571  1.00  0.00    -0.024 A 
HETATM   18  C   LIG     1      25.799  23.254  26.842  1.00  0.00     0.012 A 
HETATM   19  C   LIG     1      26.364  23.977  25.802  1.00  0.00     0.002 A 
HETATM   20  C   LIG     1      26.012  23.706  24.481  1.00  0.00     0.013 A 
ENDROOT
TORSDOF 0
ENDMDL
MODEL 18
REMARK VINA RESULT:      -5.5     16.034     16.837
REMARK  0 active torsions:
REMARK  status: ('A' for Active; 'I' for Inactive)
ROOT
HETATM    1  C   LIG     1      25.225  22.848  20.991  1.00  0.00    -0.003 A 
HETATM    2  C   LIG     1      26.510  23.417  20.842  1.00  0.00    -0.003 A 
HETATM    3  C   LIG     1      27.280  23.772  21.981  1.00  0.00    -0.013 A 
HETATM    4  C   LIG     1      26.745  23.549  23.287  1.00  0.00    -0.014 A 
HETATM    5  C   LIG     1      25.442  22.972  23.437  1.00  0.00    -0.014 A 
HETATM    6  C   LIG     1      24.944  22.765  24.751  1.00  0.00     0.013 A 
HETATM    7  C   LIG     1      25.691  23.110  25.873  1.00  0.00     0.001 A 
HETATM    8  C   LIG     1      26.949  23.666  25.727  1.00  0.00     0.001 A 
HETATM    9  C   LIG     1      27.474  23.886  24.459  1.00  0.00     0.013 A 
HETATM   10  C   LIG     1      24.680  22.621  22.282  1.00  0.00    -0.013 A 
HETATM   11  C   LIG     1      23.384  22.046  22.361  1.00  0.00     0.013 A 
HETATM   12  C   LIG     1      22.666  21.714  21.214  1.00  0.00     0.002 A 
HETATM   13  C   LIG     1      23.206  21.941  19.956  1.00  0.00     0.012 A 
HETATM   14  C   LIG     1      24.478  22.504  19.831  1.00  0.00    -0.024 A 
HETATM   15  C   LIG     1      25.010  22.725  18.556  1.00  0.00     0.013 A 
HETATM   16  C   LIG     1      26.274  23.285  18.410  1.00  0.00     0.013 A 
HETATM   17  C   LIG     1      27.028  23.633  19.536  1.00  0.00    -0.024 A 
HETATM   18  C   LIG     1      28.297  24.194  19.367  1.00  0.00     0.012 A 
HETATM   19  C   LIG     1      29.055  24.543  20.474  1.00  0.00     0.002 A 
HETATM   20  C   LIG     1      28.563  24.339  21.761  1.00  0.00     0.013 A 
ENDROOT
TORSDOF 0
ENDMDL
