MODEL 1
REMARK VINA RESULT:      -6.2      0.000      0.000
REMARK  1 active torsions:
REMARK  status: ('A' for Active; 'I' for Inactive)
REMARK    1  A    between atoms: C_4  and  C_5 
ROOT
HETATM    1 CL   LIG     1      18.463  34.560  26.570  1.00  0.00    -0.062 Cl
HETATM    2  C   LIG     1      17.856  35.873  25.583  1.00  0.00     0.126 A 
HETATM    3  N   LIG     1      17.479  35.632  24.299  1.00  0.00    -0.237 NA
HETATM    4  C   LIG     1      17.000  36.616  23.485  1.00  0.00     0.090 A 
HETATM    5  C   LIG     1      16.891  37.925  23.986  1.00  0.00     0.032 A 
HETATM    6  C   LIG     1      17.273  38.193  25.302  1.00  0.00     0.005 A 
HETATM    7  C   LIG     1      17.760  37.164  26.109  1.00  0.00     0.044 A 
ENDROOT
BRANCH   4   8
HETATM    8  C   LIG     1      16.593  36.303  22.063  1.00  0.00     0.232 C 
HETATM    9 CL   LIG     1      16.793  34.569  21.676  1.00  0.00    -0.077 Cl
HETATM   10 CL   LIG     1      14.878  36.724  21.814  1.00  0.00    -0.077 Cl
HETATM   11 CL   LIG     1      17.591  37.239  20.922  1.00  0.00    -0.077 Cl
ENDBRANCH   4   8
TORSDOF 1
ENDMDL
MODEL 2
REMARK VINA RESULT:      -5.8      2.885      4.185
REMARK  1 active torsions:
REMARK  status: ('A' for Active; 'I' for Inactive)
REMARK    1  A    between atoms: C_4  and  C_5 
ROOT
HETATM    1 CL   LIG     1      20.373  38.561  19.366  1.00  0.00    -0.062 Cl
HETATM    2  C   LIG     1      19.072  38.474  20.535  1.00  0.00     0.126 A 
HETATM    3  N   LIG     1      18.282  37.368  20.582  1.00  0.00    -0.237 NA
HETATM    4  C   LIG     1      17.254  37.246  21.471  1.00  0.00     0.090 A 
HETATM    5  C   LIG     1      16.999  38.297  22.369  1.00  0.00     0.032 A 
HETATM    6  C   LIG     1      17.799  39.441  22.337  1.00  0.00     0.005 A 
HETATM    7  C   LIG     1      18.842  39.534  21.415  1.00  0.00     0.044 A 
ENDROOT
BRANCH   4   8
HETATM    8  C   LIG     1      16.401  35.998  21.488  1.00  0.00     0.232 C 
HETATM    9 CL   LIG     1      16.363  35.191  19.894  1.00  0.00    -0.077 Cl
HETATM   10 CL   LIG     1      17.048  34.835  22.675  1.00  0.00    -0.077 Cl
HETATM   11 CL   LIG     1      14.725  36.410  21.934  1.00  0.00    -0.077 Cl
ENDBRANCH   4   8
TORSDOF 1
ENDMDL
MODEL 3
REMARK VINA RESULT:      -5.7      2.811      4.440
REMARK  1 active torsions:
REMARK  status: ('A' for Active; 'I' for Inactive)
REMARK    1  A    between atoms: C_4  and  C_5 
ROOT
HETATM    1 CL   LIG     1      18.692  37.025  18.548  1.00  0.00    -0.062 Cl
HETATM    2  C   LIG     1      18.482  37.810  20.099  1.00  0.00     0.126 A 
HETATM    3  N   LIG     1      17.727  37.213  21.059  1.00  0.00    -0.237 NA
HETATM    4  C   LIG     1      17.528  37.778  22.285  1.00  0.00     0.090 A 
HETATM    5  C   LIG     1      18.122  39.019  22.569  1.00  0.00     0.032 A 
HETATM    6  C   LIG     1      18.903  39.649  21.597  1.00  0.00     0.005 A 
HETATM    7  C   LIG     1      19.085  39.044  20.353  1.00  0.00     0.044 A 
ENDROOT
BRANCH   4   8
HETATM    8  C   LIG     1      16.680  37.078  23.322  1.00  0.00     0.232 C 
HETATM    9 CL   LIG     1      16.974  37.713  24.967  1.00  0.00    -0.077 Cl
HETATM   10 CL   LIG     1      14.951  37.305  22.949  1.00  0.00    -0.077 Cl
HETATM   11 CL   LIG     1      17.046  35.333  23.334  1.00  0.00    -0.077 Cl
ENDBRANCH   4   8
TORSDOF 1
ENDMDL
MODEL 4
REMARK VINA RESULT:      -5.6      1.667      2.112
REMARK  1 active torsions:
REMARK  status: ('A' for Active; 'I' for Inactive)
REMARK    1  A    between atoms: C_4  and  C_5 
ROOT
HETATM    1 CL   LIG     1      17.335  38.906  25.913  1.00  0.00    -0.062 Cl
HETATM    2  C   LIG     1      17.298  37.317  25.177  1.00  0.00     0.126 A 
HETATM    3  N   LIG     1      16.929  37.186  23.875  1.00  0.00    -0.237 NA
HETATM    4  C   LIG     1      16.882  35.974  23.251  1.00  0.00     0.090 A 
HETATM    5  C   LIG     1      17.223  34.819  23.975  1.00  0.00     0.032 A 
HETATM    6  C   LIG     1      17.605  34.931  25.314  1.00  0.00     0.005 A 
HETATM    7  C   LIG     1      17.642  36.187  25.923  1.00  0.00     0.044 A 
ENDROOT
BRANCH   4   8
HETATM    8  C   LIG     1      16.466  35.875  21.801  1.00  0.00     0.232 C 
HETATM    9 CL   LIG     1      16.490  34.188  21.210  1.00  0.00    -0.077 Cl
HETATM   10 CL   LIG     1      14.809  36.502  21.598  1.00  0.00    -0.077 Cl
HETATM   11 CL   LIG     1      17.576  36.828  20.782  1.00  0.00    -0.077 Cl
ENDBRANCH   4   8
TORSDOF 1
ENDMDL
MODEL 5
REMARK VINA RESULT:      -5.5      3.551      4.540
REMARK  1 active torsions:
REMARK  status: ('A' for Active; 'I' for Inactive)
REMARK    1  A    between atoms: C_4  and  C_5 
ROOT
HETATM    1 CL   LIG     1      15.632  33.864  20.125  1.00  0.00    -0.062 Cl
HETATM    2  C   LIG     1      16.316  35.352  20.745  1.00  0.00     0.126 A 
HETATM    3  N   LIG     1      17.366  35.930  20.104  1.00  0.00    -0.237 NA
HETATM    4  C   LIG     1      17.938  37.088  20.543  1.00  0.00     0.090 A 
HETATM    5  C   LIG     1      17.428  37.708  21.697  1.00  0.00     0.032 A 
HETATM    6  C   LIG     1      16.349  37.131  22.370  1.00  0.00     0.005 A 
HETATM    7  C   LIG     1      15.787  35.945  21.895  1.00  0.00     0.044 A 
ENDROOT
BRANCH   4   8
HETATM    8  C   LIG     1      19.106  37.695  19.798  1.00  0.00     0.232 C 
HETATM    9 CL   LIG     1      18.624  38.325  18.197  1.00  0.00    -0.077 Cl
HETATM   10 CL   LIG     1      19.788  39.049  20.737  1.00  0.00    -0.077 Cl
HETATM   11 CL   LIG     1      20.374  36.467  19.547  1.00  0.00    -0.077 Cl
ENDBRANCH   4   8
TORSDOF 1
ENDMDL
MODEL 6
REMARK VINA RESULT:      -5.4      1.241      2.089
REMARK  1 active torsions:
REMARK  status: ('A' for Active; 'I' for Inactive)
REMARK    1  A    between atoms: C_4  and  C_5 
ROOT
HETATM    1 CL   LIG     1      16.988  34.353  26.318  1.00  0.00    -0.062 Cl
HETATM    2  C   LIG     1      17.454  35.843  25.524  1.00  0.00     0.126 A 
HETATM    3  N   LIG     1      16.950  36.138  24.297  1.00  0.00    -0.237 NA
HETATM    4  C   LIG     1      17.278  37.283  23.632  1.00  0.00     0.090 A 
HETATM    5  C   LIG     1      18.169  38.190  24.232  1.00  0.00     0.032 A 
HETATM    6  C   LIG     1      18.698  37.905  25.493  1.00  0.00     0.005 A 
HETATM    7  C   LIG     1      18.342  36.725  26.146  1.00  0.00     0.044 A 
ENDROOT
BRANCH   4   8
HETATM    8  C   LIG     1      16.693  37.571  22.268  1.00  0.00     0.232 C 
HETATM    9 CL   LIG     1      15.649  39.023  22.280  1.00  0.00    -0.077 Cl
HETATM   10 CL   LIG     1      18.002  37.849  21.090  1.00  0.00    -0.077 Cl
HETATM   11 CL   LIG     1      15.706  36.190  21.724  1.00  0.00    -0.077 Cl
ENDBRANCH   4   8
TORSDOF 1
ENDMDL
MODEL 7
REMARK VINA RESULT:      -5.4      1.743      2.717
REMARK  1 active torsions:
REMARK  status: ('A' for Active; 'I' for Inactive)
REMARK    1  A    between atoms: C_4  and  C_5 
ROOT
HETATM    1 CL   LIG     1      18.620  36.662  27.149  1.00  0.00    -0.062 Cl
HETATM    2  C   LIG     1      17.972  36.292  25.565  1.00  0.00     0.126 A 
HETATM    3  N   LIG     1      17.984  37.243  24.593  1.00  0.00    -0.237 NA
HETATM    4  C   LIG     1      17.493  37.012  23.342  1.00  0.00     0.090 A 
HETATM    5  C   LIG     1      16.954  35.749  23.043  1.00  0.00     0.032 A 
HETATM    6  C   LIG     1      16.931  34.758  24.027  1.00  0.00     0.005 A 
HETATM    7  C   LIG     1      17.442  35.028  25.297  1.00  0.00     0.044 A 
ENDROOT
BRANCH   4   8
HETATM    8  C   LIG     1      17.528  38.099  22.292  1.00  0.00     0.232 C 
HETATM    9 CL   LIG     1      18.900  39.218  22.532  1.00  0.00    -0.077 Cl
HETATM   10 CL   LIG     1      17.689  37.375  20.671  1.00  0.00    -0.077 Cl
HETATM   11 CL   LIG     1      16.024  39.054  22.354  1.00  0.00    -0.077 Cl
ENDBRANCH   4   8
TORSDOF 1
ENDMDL
MODEL 8
REMARK VINA RESULT:      -5.3      2.739      3.993
REMARK  1 active torsions:
REMARK  status: ('A' for Active; 'I' for Inactive)
REMARK    1  A    between atoms: C_4  and  C_5 
ROOT
HETATM    1 CL   LIG     1      16.768  35.220  23.073  1.00  0.00    -0.062 Cl
HETATM    2  C   LIG     1      17.303  36.796  22.528  1.00  0.00     0.126 A 
HETATM    3  N   LIG     1      17.884  36.925  21.306  1.00  0.00    -0.237 NA
HETATM    4  C   LIG     1      18.320  38.127  20.831  1.00  0.00     0.090 A 
HETATM    5  C   LIG     1      18.166  39.274  21.630  1.00  0.00     0.032 A 
HETATM    6  C   LIG     1      17.571  39.163  22.889  1.00  0.00     0.005 A 
HETATM    7  C   LIG     1      17.136  37.918  23.345  1.00  0.00     0.044 A 
ENDROOT
BRANCH   4   8
HETATM    8  C   LIG     1      18.961  38.224  19.466  1.00  0.00     0.232 C 
HETATM    9 CL   LIG     1      18.422  39.677  18.574  1.00  0.00    -0.077 Cl
HETATM   10 CL   LIG     1      20.735  38.310  19.631  1.00  0.00    -0.077 Cl
HETATM   11 CL   LIG     1      18.538  36.793  18.490  1.00  0.00    -0.077 Cl
ENDBRANCH   4   8
TORSDOF 1
ENDMDL
MODEL 9
REMARK VINA RESULT:      -5.3      2.817      4.961
REMARK  1 active torsions:
REMARK  status: ('A' for Active; 'I' for Inactive)
REMARK    1  A    between atoms: C_4  and  C_5 
ROOT
HETATM    1 CL   LIG     1      20.154  39.324  19.582  1.00  0.00    -0.062 Cl
HETATM    2  C   LIG     1      18.996  38.087  20.026  1.00  0.00     0.126 A 
HETATM    3  N   LIG     1      18.462  38.082  21.276  1.00  0.00    -0.237 NA
HETATM    4  C   LIG     1      17.557  37.144  21.676  1.00  0.00     0.090 A 
HETATM    5  C   LIG     1      17.161  36.146  20.769  1.00  0.00     0.032 A 
HETATM    6  C   LIG     1      17.697  36.134  19.479  1.00  0.00     0.005 A 
HETATM    7  C   LIG     1      18.622  37.108  19.102  1.00  0.00     0.044 A 
ENDROOT
BRANCH   4   8
HETATM    8  C   LIG     1      16.989  37.176  23.077  1.00  0.00     0.232 C 
HETATM    9 CL   LIG     1      15.291  37.735  23.098  1.00  0.00    -0.077 Cl
HETATM   10 CL   LIG     1      17.037  35.543  23.791  1.00  0.00    -0.077 Cl
HETATM   11 CL   LIG     1      17.944  38.283  24.097  1.00  0.00    -0.077 Cl
ENDBRANCH   4   8
TORSDOF 1
ENDMDL
MODEL 10
REMARK VINA RESULT:      -5.1      1.227      1.501
REMARK  1 active torsions:
REMARK  status: ('A' for Active; 'I' for Inactive)
REMARK    1  A    between atoms: C_4  and  C_5 
ROOT
HETATM    1 CL   LIG     1      17.976  36.706  26.443  1.00  0.00    -0.062 Cl
HETATM    2  C   LIG     1      17.554  37.346  24.868  1.00  0.00     0.126 A 
HETATM    3  N   LIG     1      17.225  36.494  23.860  1.00  0.00    -0.237 NA
HETATM    4  C   LIG     1      16.889  36.936  22.615  1.00  0.00     0.090 A 
HETATM    5  C   LIG     1      16.882  38.318  22.359  1.00  0.00     0.032 A 
HETATM    6  C   LIG     1      17.216  39.210  23.380  1.00  0.00     0.005 A 
HETATM    7  C   LIG     1      17.556  38.725  24.644  1.00  0.00     0.044 A 
ENDROOT
BRANCH   4   8
HETATM    8  C   LIG     1      16.531  35.953  21.524  1.00  0.00     0.232 C 
HETATM    9 CL   LIG     1      17.003  34.282  21.948  1.00  0.00    -0.077 Cl
HETATM   10 CL   LIG     1      14.770  35.969  21.244  1.00  0.00    -0.077 Cl
HETATM   11 CL   LIG     1      17.363  36.391  20.010  1.00  0.00    -0.077 Cl
ENDBRANCH   4   8
TORSDOF 1
ENDMDL
MODEL 11
REMARK VINA RESULT:      -4.4      7.364      9.098
REMARK  1 active torsions:
REMARK  status: ('A' for Active; 'I' for Inactive)
REMARK    1  A    between atoms: C_4  and  C_5 
ROOT
HETATM    1 CL   LIG     1      15.089  32.748  19.815  1.00  0.00    -0.062 Cl
HETATM    2  C   LIG     1      14.975  32.299  18.127  1.00  0.00     0.126 A 
HETATM    3  N   LIG     1      15.881  32.786  17.237  1.00  0.00    -0.237 NA
HETATM    4  C   LIG     1      15.840  32.470  15.911  1.00  0.00     0.090 A 
HETATM    5  C   LIG     1      14.829  31.614  15.443  1.00  0.00     0.032 A 
HETATM    6  C   LIG     1      13.889  31.102  16.341  1.00  0.00     0.005 A 
HETATM    7  C   LIG     1      13.958  31.445  17.691  1.00  0.00     0.044 A 
ENDROOT
BRANCH   4   8
HETATM    8  C   LIG     1      16.869  33.035  14.958  1.00  0.00     0.232 C 
HETATM    9 CL   LIG     1      17.055  34.803  15.144  1.00  0.00    -0.077 Cl
HETATM   10 CL   LIG     1      18.457  32.283  15.260  1.00  0.00    -0.077 Cl
HETATM   11 CL   LIG     1      16.384  32.709  13.274  1.00  0.00    -0.077 Cl
ENDBRANCH   4   8
TORSDOF 1
ENDMDL
MODEL 12
REMARK VINA RESULT:      -4.4      8.973     10.200
REMARK  1 active torsions:
REMARK  status: ('A' for Active; 'I' for Inactive)
REMARK    1  A    between atoms: C_4  and  C_5 
ROOT
HETATM    1 CL   LIG     1      13.309  29.248  14.359  1.00  0.00    -0.062 Cl
HETATM    2  C   LIG     1      14.015  30.562  15.278  1.00  0.00     0.126 A 
HETATM    3  N   LIG     1      15.089  31.230  14.780  1.00  0.00    -0.237 NA
HETATM    4  C   LIG     1      15.680  32.260  15.452  1.00  0.00     0.090 A 
HETATM    5  C   LIG     1      15.164  32.645  16.701  1.00  0.00     0.032 A 
HETATM    6  C   LIG     1      14.061  31.972  17.230  1.00  0.00     0.005 A 
HETATM    7  C   LIG     1      13.481  30.922  16.517  1.00  0.00     0.044 A 
ENDROOT
BRANCH   4   8
HETATM    8  C   LIG     1      16.873  32.976  14.860  1.00  0.00     0.232 C 
HETATM    9 CL   LIG     1      18.418  32.246  15.384  1.00  0.00    -0.077 Cl
HETATM   10 CL   LIG     1      16.807  32.899  13.080  1.00  0.00    -0.077 Cl
HETATM   11 CL   LIG     1      16.873  34.684  15.368  1.00  0.00    -0.077 Cl
ENDBRANCH   4   8
TORSDOF 1
ENDMDL
MODEL 13
REMARK VINA RESULT:      -4.3      2.700      4.656
REMARK  1 active torsions:
REMARK  status: ('A' for Active; 'I' for Inactive)
REMARK    1  A    between atoms: C_4  and  C_5 
ROOT
HETATM    1 CL   LIG     1      15.686  34.397  20.289  1.00  0.00    -0.062 Cl
HETATM    2  C   LIG     1      16.773  35.756  20.488  1.00  0.00     0.126 A 
HETATM    3  N   LIG     1      16.772  36.454  21.655  1.00  0.00    -0.237 NA
HETATM    4  C   LIG     1      17.596  37.520  21.866  1.00  0.00     0.090 A 
HETATM    5  C   LIG     1      18.477  37.915  20.844  1.00  0.00     0.032 A 
HETATM    6  C   LIG     1      18.494  37.211  19.638  1.00  0.00     0.005 A 
HETATM    7  C   LIG     1      17.637  36.125  19.455  1.00  0.00     0.044 A 
ENDROOT
BRANCH   4   8
HETATM    8  C   LIG     1      17.561  38.267  23.180  1.00  0.00     0.232 C 
HETATM    9 CL   LIG     1      19.160  38.941  23.610  1.00  0.00    -0.077 Cl
HETATM   10 CL   LIG     1      16.406  39.622  23.079  1.00  0.00    -0.077 Cl
HETATM   11 CL   LIG     1      17.057  37.171  24.492  1.00  0.00    -0.077 Cl
ENDBRANCH   4   8
TORSDOF 1
ENDMDL
MODEL 14
REMARK VINA RESULT:      -4.0      1.313      4.176
REMARK  1 active torsions:
REMARK  status: ('A' for Active; 'I' for Inactive)
REMARK    1  A    between atoms: C_4  and  C_5 
ROOT
HETATM    1 CL   LIG     1      15.647  35.693  21.297  1.00  0.00    -0.062 Cl
HETATM    2  C   LIG     1      16.508  36.482  22.603  1.00  0.00     0.126 A 
HETATM    3  N   LIG     1      16.825  35.779  23.722  1.00  0.00    -0.237 NA
HETATM    4  C   LIG     1      17.494  36.341  24.769  1.00  0.00     0.090 A 
HETATM    5  C   LIG     1      17.868  37.694  24.694  1.00  0.00     0.032 A 
HETATM    6  C   LIG     1      17.552  38.434  23.552  1.00  0.00     0.005 A 
HETATM    7  C   LIG     1      16.867  37.828  22.499  1.00  0.00     0.044 A 
ENDROOT
BRANCH   4   8
HETATM    8  C   LIG     1      17.826  35.521  25.995  1.00  0.00     0.232 C 
HETATM    9 CL   LIG     1      16.463  34.476  26.491  1.00  0.00    -0.077 Cl
HETATM   10 CL   LIG     1      19.228  34.470  25.663  1.00  0.00    -0.077 Cl
HETATM   11 CL   LIG     1      18.219  36.596  27.361  1.00  0.00    -0.077 Cl
ENDBRANCH   4   8
TORSDOF 1
ENDMDL
MODEL 15
REMARK VINA RESULT:      -3.7     15.421     16.319
REMARK  1 active torsions:
REMARK  status: ('A' for Active; 'I' for Inactive)
REMARK    1  A    between atoms: C_4  and  C_5 
ROOT
HETATM    1 CL   LIG     1      27.095  25.705  19.893  1.00  0.00    -0.062 Cl
HETATM    2  C   LIG     1      26.133  24.271  19.599  1.00  0.00     0.126 A 
HETATM    3  N   LIG     1      25.297  23.810  20.568  1.00  0.00    -0.237 NA
HETATM    4  C   LIG     1      24.526  22.699  20.394  1.00  0.00     0.090 A 
HETATM    5  C   LIG     1      24.595  22.002  19.176  1.00  0.00     0.032 A 
HETATM    6  C   LIG     1      25.448  22.459  18.168  1.00  0.00     0.005 A 
HETATM    7  C   LIG     1      26.224  23.599  18.378  1.00  0.00     0.044 A 
ENDROOT
BRANCH   4   8
HETATM    8  C   LIG     1      23.610  22.223  21.499  1.00  0.00     0.232 C 
HETATM    9 CL   LIG     1      23.375  20.452  21.457  1.00  0.00    -0.077 Cl
HETATM   10 CL   LIG     1      24.302  22.645  23.088  1.00  0.00    -0.077 Cl
HETATM   11 CL   LIG     1      22.011  22.993  21.340  1.00  0.00    -0.077 Cl
ENDBRANCH   4   8
TORSDOF 1
ENDMDL
MODEL 16
REMARK VINA RESULT:      -3.7     15.781     16.449
REMARK  1 active torsions:
REMARK  status: ('A' for Active; 'I' for Inactive)
REMARK    1  A    between atoms: C_4  and  C_5 
ROOT
HETATM    1 CL   LIG     1      22.754  21.683  22.192  1.00  0.00    -0.062 Cl
HETATM    2  C   LIG     1      23.503  22.082  20.659  1.00  0.00     0.126 A 
HETATM    3  N   LIG     1      24.631  22.841  20.638  1.00  0.00    -0.237 NA
HETATM    4  C   LIG     1      25.255  23.182  19.474  1.00  0.00     0.090 A 
HETATM    5  C   LIG     1      24.718  22.737  18.254  1.00  0.00     0.032 A 
HETATM    6  C   LIG     1      23.560  21.956  18.255  1.00  0.00     0.005 A 
HETATM    7  C   LIG     1      22.946  21.625  19.463  1.00  0.00     0.044 A 
ENDROOT
BRANCH   4   8
HETATM    8  C   LIG     1      26.508  24.029  19.498  1.00  0.00     0.232 C 
HETATM    9 CL   LIG     1      26.185  25.717  19.006  1.00  0.00    -0.077 Cl
HETATM   10 CL   LIG     1      27.190  24.061  21.145  1.00  0.00    -0.077 Cl
HETATM   11 CL   LIG     1      27.721  23.354  18.380  1.00  0.00    -0.077 Cl
ENDBRANCH   4   8
TORSDOF 1
ENDMDL
MODEL 17
REMARK VINA RESULT:      -3.7      2.123      4.273
REMARK  1 active torsions:
REMARK  status: ('A' for Active; 'I' for Inactive)
REMARK    1  A    between atoms: C_4  and  C_5 
ROOT
HETATM    1 CL   LIG     1      15.952  35.680  20.783  1.00  0.00    -0.062 Cl
HETATM    2  C   LIG     1      16.889  36.787  21.765  1.00  0.00     0.126 A 
HETATM    3  N   LIG     1      16.990  36.579  23.105  1.00  0.00    -0.237 NA
HETATM    4  C   LIG     1      17.706  37.408  23.918  1.00  0.00     0.090 A 
HETATM    5  C   LIG     1      18.363  38.516  23.356  1.00  0.00     0.032 A 
HETATM    6  C   LIG     1      18.272  38.747  21.981  1.00  0.00     0.005 A 
HETATM    7  C   LIG     1      17.531  37.880  21.178  1.00  0.00     0.044 A 
ENDROOT
BRANCH   4   8
HETATM    8  C   LIG     1      17.790  37.138  25.403  1.00  0.00     0.232 C 
HETATM    9 CL   LIG     1      19.482  37.064  25.976  1.00  0.00    -0.077 Cl
HETATM   10 CL   LIG     1      16.963  38.436  26.305  1.00  0.00    -0.077 Cl
HETATM   11 CL   LIG     1      17.013  35.580  25.785  1.00  0.00    -0.077 Cl
ENDBRANCH   4   8
TORSDOF 1
ENDMDL
MODEL 18
REMARK VINA RESULT:      -3.6     15.434     16.416
REMARK  1 active torsions:
REMARK  status: ('A' for Active; 'I' for Inactive)
REMARK    1  A    between atoms: C_4  and  C_5 
ROOT
HETATM    1 CL   LIG     1      22.812  20.851  17.921  1.00  0.00    -0.062 Cl
HETATM    2  C   LIG     1      23.485  21.800  19.229  1.00  0.00     0.126 A 
HETATM    3  N   LIG     1      24.642  22.488  19.037  1.00  0.00    -0.237 NA
HETATM    4  C   LIG     1      25.212  23.243  20.020  1.00  0.00     0.090 A 
HETATM    5  C   LIG     1      24.585  23.313  21.276  1.00  0.00     0.032 A 
HETATM    6  C   LIG     1      23.396  22.614  21.495  1.00  0.00     0.005 A 
HETATM    7  C   LIG     1      22.840  21.851  20.467  1.00  0.00     0.044 A 
ENDROOT
BRANCH   4   8
HETATM    8  C   LIG     1      26.499  23.991  19.761  1.00  0.00     0.232 C 
HETATM    9 CL   LIG     1      27.565  23.117  18.623  1.00  0.00    -0.077 Cl
HETATM   10 CL   LIG     1      26.143  25.591  19.059  1.00  0.00    -0.077 Cl
HETATM   11 CL   LIG     1      27.392  24.214  21.288  1.00  0.00    -0.077 Cl
ENDBRANCH   4   8
TORSDOF 1
ENDMDL
MODEL 19
REMARK VINA RESULT:      -3.5     15.568     16.244
REMARK  1 active torsions:
REMARK  status: ('A' for Active; 'I' for Inactive)
REMARK    1  A    between atoms: C_4  and  C_5 
ROOT
HETATM    1 CL   LIG     1      28.101  25.783  21.416  1.00  0.00    -0.062 Cl
HETATM    2  C   LIG     1      27.134  24.926  20.234  1.00  0.00     0.126 A 
HETATM    3  N   LIG     1      26.192  24.038  20.651  1.00  0.00    -0.237 NA
HETATM    4  C   LIG     1      25.411  23.342  19.776  1.00  0.00     0.090 A 
HETATM    5  C   LIG     1      25.582  23.546  18.396  1.00  0.00     0.032 A 
HETATM    6  C   LIG     1      26.544  24.454  17.947  1.00  0.00     0.005 A 
HETATM    7  C   LIG     1      27.327  25.149  18.869  1.00  0.00     0.044 A 
ENDROOT
BRANCH   4   8
HETATM    8  C   LIG     1      24.376  22.364  20.284  1.00  0.00     0.232 C 
HETATM    9 CL   LIG     1      23.421  23.041  21.634  1.00  0.00    -0.077 Cl
HETATM   10 CL   LIG     1      23.244  21.939  18.972  1.00  0.00    -0.077 Cl
HETATM   11 CL   LIG     1      25.173  20.880  20.866  1.00  0.00    -0.077 Cl
ENDBRANCH   4   8
TORSDOF 1
ENDMDL
MODEL 20
REMARK VINA RESULT:      -3.5     15.327     16.102
REMARK  1 active torsions:
REMARK  status: ('A' for Active; 'I' for Inactive)
REMARK    1  A    between atoms: C_4  and  C_5 
ROOT
HETATM    1 CL   LIG     1      26.834  25.737  19.030  1.00  0.00    -0.062 Cl
HETATM    2  C   LIG     1      26.326  24.473  20.131  1.00  0.00     0.126 A 
HETATM    3  N   LIG     1      25.155  23.819  19.912  1.00  0.00    -0.237 NA
HETATM    4  C   LIG     1      24.710  22.827  20.736  1.00  0.00     0.090 A 
HETATM    5  C   LIG     1      25.485  22.468  21.852  1.00  0.00     0.032 A 
HETATM    6  C   LIG     1      26.692  23.127  22.095  1.00  0.00     0.005 A 
HETATM    7  C   LIG     1      27.118  24.138  21.232  1.00  0.00     0.044 A 
ENDROOT
BRANCH   4   8
HETATM    8  C   LIG     1      23.401  22.126  20.453  1.00  0.00     0.232 C 
HETATM    9 CL   LIG     1      23.042  22.057  18.704  1.00  0.00    -0.077 Cl
HETATM   10 CL   LIG     1      23.462  20.452  21.065  1.00  0.00    -0.077 Cl
HETATM   11 CL   LIG     1      22.062  22.988  21.255  1.00  0.00    -0.077 Cl
ENDBRANCH   4   8
TORSDOF 1
ENDMDL
