REMARK  1 active torsions:
REMARK  status: ('A' for Active; 'I' for Inactive)
REMARK    1  A    between atoms: C_4  and  C_5 
ROOT
HETATM    1 CL   LIG     1      -2.543  -2.532  -0.006  1.00  0.00    -0.062 Cl
HETATM    2  C   LIG     1      -1.510  -1.118   0.012  1.00  0.00     0.126 A 
HETATM    3  N   LIG     1      -0.160  -1.269  -0.047  1.00  0.00    -0.237 NA
HETATM    4  C   LIG     1       0.692  -0.204  -0.036  1.00  0.00     0.090 A 
HETATM    5  C   LIG     1       0.161   1.095   0.040  1.00  0.00     0.032 A 
HETATM    6  C   LIG     1      -1.223   1.272   0.101  1.00  0.00     0.005 A 
HETATM    7  C   LIG     1      -2.067   0.161   0.088  1.00  0.00     0.044 A 
ENDROOT
BRANCH   4   8
HETATM    8  C   LIG     1       2.187  -0.419  -0.103  1.00  0.00     0.232 C 
HETATM    9 CL   LIG     1       2.611  -2.153  -0.193  1.00  0.00    -0.077 Cl
HETATM   10 CL   LIG     1       2.853   0.383  -1.550  1.00  0.00    -0.077 Cl
HETATM   11 CL   LIG     1       2.967   0.262   1.348  1.00  0.00    -0.077 Cl
ENDBRANCH   4   8
TORSDOF 1
