MODEL 1
REMARK VINA RESULT:      -4.7      0.000      0.000
REMARK  3 active torsions:
REMARK  status: ('A' for Active; 'I' for Inactive)
REMARK    1  A    between atoms: O_1  and  C_2 
REMARK    2  A    between atoms: C_2  and  C_3 
REMARK    3  A    between atoms: C_3  and  C_5 
ROOT
HETATM    1  C   LIG     1      16.757  36.152  24.129  1.00  0.00     0.008 C 
HETATM    2  C   LIG     1      17.038  35.287  22.884  1.00  0.00     0.012 C 
ENDROOT
BRANCH   1   3
HETATM    3  C   LIG     1      16.661  37.635  23.706  1.00  0.00     0.168 C 
BRANCH   3   4
HETATM    4  O   LIG     1      15.326  38.062  23.700  1.00  0.00    -0.400 OA
HETATM    5  H   LIG     1      15.354  39.053  23.752  1.00  0.00     0.209 HD
ENDBRANCH   3   4
ENDBRANCH   1   3
BRANCH   1   6
HETATM    6  C   LIG     1      17.815  35.912  25.255  1.00  0.00    -0.017 C 
HETATM    7  C   LIG     1      18.028  37.168  26.122  1.00  0.00     0.010 C 
HETATM    8  C   LIG     1      17.418  34.739  26.170  1.00  0.00     0.010 C 
ENDBRANCH   1   6
TORSDOF 3
ENDMDL
MODEL 2
REMARK VINA RESULT:      -4.6      2.429      3.995
REMARK  3 active torsions:
REMARK  status: ('A' for Active; 'I' for Inactive)
REMARK    1  A    between atoms: O_1  and  C_2 
REMARK    2  A    between atoms: C_2  and  C_3 
REMARK    3  A    between atoms: C_3  and  C_5 
ROOT
HETATM    1  C   LIG     1      17.032  37.864  22.032  1.00  0.00     0.008 C 
HETATM    2  C   LIG     1      18.185  38.887  22.046  1.00  0.00     0.012 C 
ENDROOT
BRANCH   1   3
HETATM    3  C   LIG     1      16.504  37.676  23.472  1.00  0.00     0.168 C 
BRANCH   3   4
HETATM    4  O   LIG     1      15.164  38.075  23.564  1.00  0.00    -0.400 OA
HETATM    5  H   LIG     1      14.944  38.084  24.532  1.00  0.00     0.209 HD
ENDBRANCH   3   4
ENDBRANCH   1   3
BRANCH   1   6
HETATM    6  C   LIG     1      17.458  36.516  21.364  1.00  0.00    -0.017 C 
HETATM    7  C   LIG     1      16.239  35.663  20.963  1.00  0.00     0.010 C 
HETATM    8  C   LIG     1      18.331  36.749  20.118  1.00  0.00     0.010 C 
ENDBRANCH   1   6
TORSDOF 3
ENDMDL
MODEL 3
REMARK VINA RESULT:      -4.5      4.252      5.028
REMARK  3 active torsions:
REMARK  status: ('A' for Active; 'I' for Inactive)
REMARK    1  A    between atoms: O_1  and  C_2 
REMARK    2  A    between atoms: C_2  and  C_3 
REMARK    3  A    between atoms: C_3  and  C_5 
ROOT
HETATM    1  C   LIG     1      18.673  38.092  20.184  1.00  0.00     0.008 C 
HETATM    2  C   LIG     1      19.314  36.874  19.491  1.00  0.00     0.012 C 
ENDROOT
BRANCH   1   3
HETATM    3  C   LIG     1      19.740  39.195  20.361  1.00  0.00     0.168 C 
BRANCH   3   4
HETATM    4  O   LIG     1      20.477  39.365  19.181  1.00  0.00    -0.400 OA
HETATM    5  H   LIG     1      20.074  38.751  18.513  1.00  0.00     0.209 HD
ENDBRANCH   3   4
ENDBRANCH   1   3
BRANCH   1   6
HETATM    6  C   LIG     1      17.983  37.697  21.532  1.00  0.00    -0.017 C 
HETATM    7  C   LIG     1      17.176  38.867  22.128  1.00  0.00     0.010 C 
HETATM    8  C   LIG     1      17.048  36.487  21.359  1.00  0.00     0.010 C 
ENDBRANCH   1   6
TORSDOF 3
ENDMDL
MODEL 4
REMARK VINA RESULT:      -4.5      1.103      2.064
REMARK  3 active torsions:
REMARK  status: ('A' for Active; 'I' for Inactive)
REMARK    1  A    between atoms: O_1  and  C_2 
REMARK    2  A    between atoms: C_2  and  C_3 
REMARK    3  A    between atoms: C_3  and  C_5 
ROOT
HETATM    1  C   LIG     1      17.212  37.144  23.341  1.00  0.00     0.008 C 
HETATM    2  C   LIG     1      17.951  38.496  23.301  1.00  0.00     0.012 C 
ENDROOT
BRANCH   1   3
HETATM    3  C   LIG     1      15.815  37.310  22.702  1.00  0.00     0.168 C 
BRANCH   3   4
HETATM    4  O   LIG     1      14.983  38.082  23.525  1.00  0.00    -0.400 OA
HETATM    5  H   LIG     1      14.628  37.464  24.215  1.00  0.00     0.209 HD
ENDBRANCH   3   4
ENDBRANCH   1   3
BRANCH   1   6
HETATM    6  C   LIG     1      17.147  36.559  24.791  1.00  0.00    -0.017 C 
HETATM    7  C   LIG     1      17.341  35.031  24.803  1.00  0.00     0.010 C 
HETATM    8  C   LIG     1      18.201  37.201  25.711  1.00  0.00     0.010 C 
ENDBRANCH   1   6
TORSDOF 3
ENDMDL
MODEL 5
REMARK VINA RESULT:      -4.5      2.667      3.661
REMARK  3 active torsions:
REMARK  status: ('A' for Active; 'I' for Inactive)
REMARK    1  A    between atoms: O_1  and  C_2 
REMARK    2  A    between atoms: C_2  and  C_3 
REMARK    3  A    between atoms: C_3  and  C_5 
ROOT
HETATM    1  C   LIG     1      17.156  36.997  22.343  1.00  0.00     0.008 C 
HETATM    2  C   LIG     1      16.913  35.502  22.054  1.00  0.00     0.012 C 
ENDROOT
BRANCH   1   3
HETATM    3  C   LIG     1      15.849  37.630  22.869  1.00  0.00     0.168 C 
BRANCH   3   4
HETATM    4  O   LIG     1      15.989  38.014  24.210  1.00  0.00    -0.400 OA
HETATM    5  H   LIG     1      16.798  38.589  24.249  1.00  0.00     0.209 HD
ENDBRANCH   3   4
ENDBRANCH   1   3
BRANCH   1   6
HETATM    6  C   LIG     1      17.731  37.745  21.096  1.00  0.00    -0.017 C 
HETATM    7  C   LIG     1      18.674  38.894  21.500  1.00  0.00     0.010 C 
HETATM    8  C   LIG     1      18.489  36.788  20.157  1.00  0.00     0.010 C 
ENDBRANCH   1   6
TORSDOF 3
ENDMDL
MODEL 6
REMARK VINA RESULT:      -4.3      1.749      2.987
REMARK  3 active torsions:
REMARK  status: ('A' for Active; 'I' for Inactive)
REMARK    1  A    between atoms: O_1  and  C_2 
REMARK    2  A    between atoms: C_2  and  C_3 
REMARK    3  A    between atoms: C_3  and  C_5 
ROOT
HETATM    1  C   LIG     1      17.483  36.512  24.184  1.00  0.00     0.008 C 
HETATM    2  C   LIG     1      17.300  35.216  24.999  1.00  0.00     0.012 C 
ENDROOT
BRANCH   1   3
HETATM    3  C   LIG     1      17.000  37.713  25.027  1.00  0.00     0.168 C 
BRANCH   3   4
HETATM    4  O   LIG     1      17.952  38.051  25.998  1.00  0.00    -0.400 OA
HETATM    5  H   LIG     1      18.265  37.194  26.389  1.00  0.00     0.209 HD
ENDBRANCH   3   4
ENDBRANCH   1   3
BRANCH   1   6
HETATM    6  C   LIG     1      16.776  36.428  22.792  1.00  0.00    -0.017 C 
HETATM    7  C   LIG     1      17.262  37.531  21.833  1.00  0.00     0.010 C 
HETATM    8  C   LIG     1      16.995  35.058  22.124  1.00  0.00     0.010 C 
ENDBRANCH   1   6
TORSDOF 3
ENDMDL
MODEL 7
REMARK VINA RESULT:      -4.3      1.598      2.511
REMARK  3 active torsions:
REMARK  status: ('A' for Active; 'I' for Inactive)
REMARK    1  A    between atoms: O_1  and  C_2 
REMARK    2  A    between atoms: C_2  and  C_3 
REMARK    3  A    between atoms: C_3  and  C_5 
ROOT
HETATM    1  C   LIG     1      16.573  37.253  24.046  1.00  0.00     0.008 C 
HETATM    2  C   LIG     1      15.816  37.776  22.809  1.00  0.00     0.012 C 
ENDROOT
BRANCH   1   3
HETATM    3  C   LIG     1      17.530  38.353  24.557  1.00  0.00     0.168 C 
BRANCH   3   4
HETATM    4  O   LIG     1      17.495  38.430  25.956  1.00  0.00    -0.400 OA
HETATM    5  H   LIG     1      16.538  38.516  26.203  1.00  0.00     0.209 HD
ENDBRANCH   3   4
ENDBRANCH   1   3
BRANCH   1   6
HETATM    6  C   LIG     1      17.306  35.903  23.752  1.00  0.00    -0.017 C 
HETATM    7  C   LIG     1      17.266  34.952  24.964  1.00  0.00     0.010 C 
HETATM    8  C   LIG     1      16.703  35.181  22.534  1.00  0.00     0.010 C 
ENDBRANCH   1   6
TORSDOF 3
ENDMDL
MODEL 8
REMARK VINA RESULT:      -4.2      3.281      4.172
REMARK  3 active torsions:
REMARK  status: ('A' for Active; 'I' for Inactive)
REMARK    1  A    between atoms: O_1  and  C_2 
REMARK    2  A    between atoms: C_2  and  C_3 
REMARK    3  A    between atoms: C_3  and  C_5 
ROOT
HETATM    1  C   LIG     1      17.500  37.980  22.192  1.00  0.00     0.008 C 
HETATM    2  C   LIG     1      16.187  38.559  22.755  1.00  0.00     0.012 C 
ENDROOT
BRANCH   1   3
HETATM    3  C   LIG     1      18.309  39.115  21.525  1.00  0.00     0.168 C 
BRANCH   3   4
HETATM    4  O   LIG     1      19.530  39.307  22.186  1.00  0.00    -0.400 OA
HETATM    5  H   LIG     1      20.207  39.461  21.477  1.00  0.00     0.209 HD
ENDBRANCH   3   4
ENDBRANCH   1   3
BRANCH   1   6
HETATM    6  C   LIG     1      17.240  36.777  21.227  1.00  0.00    -0.017 C 
HETATM    7  C   LIG     1      18.315  36.679  20.128  1.00  0.00     0.010 C 
HETATM    8  C   LIG     1      17.185  35.439  21.988  1.00  0.00     0.010 C 
ENDBRANCH   1   6
TORSDOF 3
ENDMDL
MODEL 9
REMARK VINA RESULT:      -4.2      3.684      4.745
REMARK  3 active torsions:
REMARK  status: ('A' for Active; 'I' for Inactive)
REMARK    1  A    between atoms: O_1  and  C_2 
REMARK    2  A    between atoms: C_2  and  C_3 
REMARK    3  A    between atoms: C_3  and  C_5 
ROOT
HETATM    1  C   LIG     1      18.221  36.988  20.808  1.00  0.00     0.008 C 
HETATM    2  C   LIG     1      18.767  36.914  19.368  1.00  0.00     0.012 C 
ENDROOT
BRANCH   1   3
HETATM    3  C   LIG     1      17.004  36.045  20.938  1.00  0.00     0.168 C 
BRANCH   3   4
HETATM    4  O   LIG     1      16.701  35.455  19.703  1.00  0.00    -0.400 OA
HETATM    5  H   LIG     1      17.500  35.587  19.130  1.00  0.00     0.209 HD
ENDBRANCH   3   4
ENDBRANCH   1   3
BRANCH   1   6
HETATM    6  C   LIG     1      17.894  38.458  21.231  1.00  0.00    -0.017 C 
HETATM    7  C   LIG     1      17.825  38.613  22.762  1.00  0.00     0.010 C 
HETATM    8  C   LIG     1      18.929  39.454  20.677  1.00  0.00     0.010 C 
ENDBRANCH   1   6
TORSDOF 3
ENDMDL
MODEL 10
REMARK VINA RESULT:      -4.1      9.039     10.588
REMARK  3 active torsions:
REMARK  status: ('A' for Active; 'I' for Inactive)
REMARK    1  A    between atoms: O_1  and  C_2 
REMARK    2  A    between atoms: C_2  and  C_3 
REMARK    3  A    between atoms: C_3  and  C_5 
ROOT
HETATM    1  C   LIG     1      14.288  31.087  16.195  1.00  0.00     0.008 C 
HETATM    2  C   LIG     1      12.846  30.616  15.918  1.00  0.00     0.012 C 
ENDROOT
BRANCH   1   3
HETATM    3  C   LIG     1      14.250  32.309  17.139  1.00  0.00     0.168 C 
BRANCH   3   4
HETATM    4  O   LIG     1      13.910  31.918  18.441  1.00  0.00    -0.400 OA
HETATM    5  H   LIG     1      12.920  31.952  18.490  1.00  0.00     0.209 HD
ENDBRANCH   3   4
ENDBRANCH   1   3
BRANCH   1   6
HETATM    6  C   LIG     1      15.071  31.371  14.871  1.00  0.00    -0.017 C 
HETATM    7  C   LIG     1      16.413  32.079  15.138  1.00  0.00     0.010 C 
HETATM    8  C   LIG     1      15.341  30.078  14.080  1.00  0.00     0.010 C 
ENDBRANCH   1   6
TORSDOF 3
ENDMDL
MODEL 11
REMARK VINA RESULT:      -4.1      2.532      3.542
REMARK  3 active torsions:
REMARK  status: ('A' for Active; 'I' for Inactive)
REMARK    1  A    between atoms: O_1  and  C_2 
REMARK    2  A    between atoms: C_2  and  C_3 
REMARK    3  A    between atoms: C_3  and  C_5 
ROOT
HETATM    1  C   LIG     1      16.707  36.522  22.125  1.00  0.00     0.008 C 
HETATM    2  C   LIG     1      16.999  35.382  23.121  1.00  0.00     0.012 C 
ENDROOT
BRANCH   1   3
HETATM    3  C   LIG     1      17.524  36.288  20.834  1.00  0.00     0.168 C 
BRANCH   3   4
HETATM    4  O   LIG     1      16.811  35.480  19.937  1.00  0.00    -0.400 OA
HETATM    5  H   LIG     1      17.221  34.578  19.993  1.00  0.00     0.209 HD
ENDBRANCH   3   4
ENDBRANCH   1   3
BRANCH   1   6
HETATM    6  C   LIG     1      16.967  37.929  22.757  1.00  0.00    -0.017 C 
HETATM    7  C   LIG     1      17.479  37.821  24.207  1.00  0.00     0.010 C 
HETATM    8  C   LIG     1      17.979  38.746  21.933  1.00  0.00     0.010 C 
ENDBRANCH   1   6
TORSDOF 3
ENDMDL
MODEL 12
REMARK VINA RESULT:      -4.1      2.553      3.502
REMARK  3 active torsions:
REMARK  status: ('A' for Active; 'I' for Inactive)
REMARK    1  A    between atoms: O_1  and  C_2 
REMARK    2  A    between atoms: C_2  and  C_3 
REMARK    3  A    between atoms: C_3  and  C_5 
ROOT
HETATM    1  C   LIG     1      17.426  37.827  21.606  1.00  0.00     0.008 C 
HETATM    2  C   LIG     1      18.251  37.048  20.563  1.00  0.00     0.012 C 
ENDROOT
BRANCH   1   3
HETATM    3  C   LIG     1      18.340  38.856  22.309  1.00  0.00     0.168 C 
BRANCH   3   4
HETATM    4  O   LIG     1      19.043  39.618  21.367  1.00  0.00    -0.400 OA
HETATM    5  H   LIG     1      19.870  39.110  21.161  1.00  0.00     0.209 HD
ENDBRANCH   3   4
ENDBRANCH   1   3
BRANCH   1   6
HETATM    6  C   LIG     1      16.708  36.870  22.614  1.00  0.00    -0.017 C 
HETATM    7  C   LIG     1      16.995  35.389  22.302  1.00  0.00     0.010 C 
HETATM    8  C   LIG     1      17.121  37.160  24.068  1.00  0.00     0.010 C 
ENDBRANCH   1   6
TORSDOF 3
ENDMDL
MODEL 13
REMARK VINA RESULT:      -4.0      3.493      4.725
REMARK  3 active torsions:
REMARK  status: ('A' for Active; 'I' for Inactive)
REMARK    1  A    between atoms: O_1  and  C_2 
REMARK    2  A    between atoms: C_2  and  C_3 
REMARK    3  A    between atoms: C_3  and  C_5 
ROOT
HETATM    1  C   LIG     1      15.861  35.193  20.516  1.00  0.00     0.008 C 
HETATM    2  C   LIG     1      14.662  35.765  21.300  1.00  0.00     0.012 C 
ENDROOT
BRANCH   1   3
HETATM    3  C   LIG     1      15.613  33.695  20.234  1.00  0.00     0.168 C 
BRANCH   3   4
HETATM    4  O   LIG     1      15.309  33.489  18.881  1.00  0.00    -0.400 OA
HETATM    5  H   LIG     1      14.949  32.567  18.816  1.00  0.00     0.209 HD
ENDBRANCH   3   4
ENDBRANCH   1   3
BRANCH   1   6
HETATM    6  C   LIG     1      17.215  35.454  21.253  1.00  0.00    -0.017 C 
HETATM    7  C   LIG     1      18.010  36.604  20.606  1.00  0.00     0.010 C 
HETATM    8  C   LIG     1      17.000  35.777  22.743  1.00  0.00     0.010 C 
ENDBRANCH   1   6
TORSDOF 3
ENDMDL
MODEL 14
REMARK VINA RESULT:      -4.0      6.208      7.681
REMARK  3 active torsions:
REMARK  status: ('A' for Active; 'I' for Inactive)
REMARK    1  A    between atoms: O_1  and  C_2 
REMARK    2  A    between atoms: C_2  and  C_3 
REMARK    3  A    between atoms: C_3  and  C_5 
ROOT
HETATM    1  C   LIG     1      14.574  32.589  17.894  1.00  0.00     0.008 C 
HETATM    2  C   LIG     1      13.895  31.318  17.345  1.00  0.00     0.012 C 
ENDROOT
BRANCH   1   3
HETATM    3  C   LIG     1      15.414  33.240  16.772  1.00  0.00     0.168 C 
BRANCH   3   4
HETATM    4  O   LIG     1      15.073  34.591  16.620  1.00  0.00    -0.400 OA
HETATM    5  H   LIG     1      14.216  34.605  16.120  1.00  0.00     0.209 HD
ENDBRANCH   3   4
ENDBRANCH   1   3
BRANCH   1   6
HETATM    6  C   LIG     1      15.413  32.290  19.180  1.00  0.00    -0.017 C 
HETATM    7  C   LIG     1      15.573  33.541  20.065  1.00  0.00     0.010 C 
HETATM    8  C   LIG     1      14.785  31.164  20.021  1.00  0.00     0.010 C 
ENDBRANCH   1   6
TORSDOF 3
ENDMDL
MODEL 15
REMARK VINA RESULT:      -4.0      8.753     10.276
REMARK  3 active torsions:
REMARK  status: ('A' for Active; 'I' for Inactive)
REMARK    1  A    between atoms: O_1  and  C_2 
REMARK    2  A    between atoms: C_2  and  C_3 
REMARK    3  A    between atoms: C_3  and  C_5 
ROOT
HETATM    1  C   LIG     1      15.250  32.375  15.561  1.00  0.00     0.008 C 
HETATM    2  C   LIG     1      16.756  32.230  15.268  1.00  0.00     0.012 C 
ENDROOT
BRANCH   1   3
HETATM    3  C   LIG     1      15.057  33.310  16.776  1.00  0.00     0.168 C 
BRANCH   3   4
HETATM    4  O   LIG     1      15.654  34.556  16.542  1.00  0.00    -0.400 OA
HETATM    5  H   LIG     1      15.236  34.911  15.715  1.00  0.00     0.209 HD
ENDBRANCH   3   4
ENDBRANCH   1   3
BRANCH   1   6
HETATM    6  C   LIG     1      14.558  30.985  15.753  1.00  0.00    -0.017 C 
HETATM    7  C   LIG     1      13.128  31.127  16.307  1.00  0.00     0.010 C 
HETATM    8  C   LIG     1      14.503  30.190  14.435  1.00  0.00     0.010 C 
ENDBRANCH   1   6
TORSDOF 3
ENDMDL
MODEL 16
REMARK VINA RESULT:      -4.0      3.194      4.887
REMARK  3 active torsions:
REMARK  status: ('A' for Active; 'I' for Inactive)
REMARK    1  A    between atoms: O_1  and  C_2 
REMARK    2  A    between atoms: C_2  and  C_3 
REMARK    3  A    between atoms: C_3  and  C_5 
ROOT
HETATM    1  C   LIG     1      17.489  37.767  21.494  1.00  0.00     0.008 C 
HETATM    2  C   LIG     1      17.639  38.369  22.905  1.00  0.00     0.012 C 
ENDROOT
BRANCH   1   3
HETATM    3  C   LIG     1      17.100  36.276  21.617  1.00  0.00     0.168 C 
BRANCH   3   4
HETATM    4  O   LIG     1      16.971  35.908  22.963  1.00  0.00    -0.400 OA
HETATM    5  H   LIG     1      17.652  35.205  23.123  1.00  0.00     0.209 HD
ENDBRANCH   3   4
ENDBRANCH   1   3
BRANCH   1   6
HETATM    6  C   LIG     1      18.773  37.987  20.628  1.00  0.00    -0.017 C 
HETATM    7  C   LIG     1      18.845  37.000  19.447  1.00  0.00     0.010 C 
HETATM    8  C   LIG     1      18.850  39.423  20.080  1.00  0.00     0.010 C 
ENDBRANCH   1   6
TORSDOF 3
ENDMDL
MODEL 17
REMARK VINA RESULT:      -4.0      8.179      9.659
REMARK  3 active torsions:
REMARK  status: ('A' for Active; 'I' for Inactive)
REMARK    1  A    between atoms: O_1  and  C_2 
REMARK    2  A    between atoms: C_2  and  C_3 
REMARK    3  A    between atoms: C_3  and  C_5 
ROOT
HETATM    1  C   LIG     1      15.106  32.477  16.993  1.00  0.00     0.008 C 
HETATM    2  C   LIG     1      14.654  32.002  18.388  1.00  0.00     0.012 C 
ENDROOT
BRANCH   1   3
HETATM    3  C   LIG     1      15.007  34.017  16.925  1.00  0.00     0.168 C 
BRANCH   3   4
HETATM    4  O   LIG     1      16.081  34.551  16.200  1.00  0.00    -0.400 OA
HETATM    5  H   LIG     1      16.649  35.028  16.859  1.00  0.00     0.209 HD
ENDBRANCH   3   4
ENDBRANCH   1   3
BRANCH   1   6
HETATM    6  C   LIG     1      14.307  31.770  15.849  1.00  0.00    -0.017 C 
HETATM    7  C   LIG     1      15.239  31.046  14.859  1.00  0.00     0.010 C 
HETATM    8  C   LIG     1      13.292  30.755  16.407  1.00  0.00     0.010 C 
ENDBRANCH   1   6
TORSDOF 3
ENDMDL
MODEL 18
REMARK VINA RESULT:      -4.0      3.692      4.860
REMARK  3 active torsions:
REMARK  status: ('A' for Active; 'I' for Inactive)
REMARK    1  A    between atoms: O_1  and  C_2 
REMARK    2  A    between atoms: C_2  and  C_3 
REMARK    3  A    between atoms: C_3  and  C_5 
ROOT
HETATM    1  C   LIG     1      18.574  37.982  20.862  1.00  0.00     0.008 C 
HETATM    2  C   LIG     1      18.875  39.449  20.497  1.00  0.00     0.012 C 
ENDROOT
BRANCH   1   3
HETATM    3  C   LIG     1      18.550  37.133  19.571  1.00  0.00     0.168 C 
BRANCH   3   4
HETATM    4  O   LIG     1      19.708  36.349  19.474  1.00  0.00    -0.400 OA
HETATM    5  H   LIG     1      19.944  36.089  20.401  1.00  0.00     0.209 HD
ENDBRANCH   3   4
ENDBRANCH   1   3
BRANCH   1   6
HETATM    6  C   LIG     1      17.257  37.848  21.696  1.00  0.00    -0.017 C 
HETATM    7  C   LIG     1      16.975  36.387  22.093  1.00  0.00     0.010 C 
HETATM    8  C   LIG     1      17.302  38.709  22.972  1.00  0.00     0.010 C 
ENDBRANCH   1   6
TORSDOF 3
ENDMDL
MODEL 19
REMARK VINA RESULT:      -4.0      3.562      4.143
REMARK  3 active torsions:
REMARK  status: ('A' for Active; 'I' for Inactive)
REMARK    1  A    between atoms: O_1  and  C_2 
REMARK    2  A    between atoms: C_2  and  C_3 
REMARK    3  A    between atoms: C_3  and  C_5 
ROOT
HETATM    1  C   LIG     1      17.482  36.182  21.083  1.00  0.00     0.008 C 
HETATM    2  C   LIG     1      18.396  36.702  19.956  1.00  0.00     0.012 C 
ENDROOT
BRANCH   1   3
HETATM    3  C   LIG     1      16.183  35.621  20.463  1.00  0.00     0.168 C 
BRANCH   3   4
HETATM    4  O   LIG     1      16.225  34.221  20.408  1.00  0.00    -0.400 OA
HETATM    5  H   LIG     1      16.504  33.989  19.485  1.00  0.00     0.209 HD
ENDBRANCH   3   4
ENDBRANCH   1   3
BRANCH   1   6
HETATM    6  C   LIG     1      17.211  37.278  22.165  1.00  0.00    -0.017 C 
HETATM    7  C   LIG     1      17.703  38.666  21.713  1.00  0.00     0.010 C 
HETATM    8  C   LIG     1      15.715  37.372  22.518  1.00  0.00     0.010 C 
ENDBRANCH   1   6
TORSDOF 3
ENDMDL
MODEL 20
REMARK VINA RESULT:      -4.0      7.660      9.547
REMARK  3 active torsions:
REMARK  status: ('A' for Active; 'I' for Inactive)
REMARK    1  A    between atoms: O_1  and  C_2 
REMARK    2  A    between atoms: C_2  and  C_3 
REMARK    3  A    between atoms: C_3  and  C_5 
ROOT
HETATM    1  C   LIG     1      14.323  32.421  17.431  1.00  0.00     0.008 C 
HETATM    2  C   LIG     1      14.949  33.669  16.778  1.00  0.00     0.012 C 
ENDROOT
BRANCH   1   3
HETATM    3  C   LIG     1      15.042  32.134  18.769  1.00  0.00     0.168 C 
BRANCH   3   4
HETATM    4  O   LIG     1      14.112  31.869  19.783  1.00  0.00    -0.400 OA
HETATM    5  H   LIG     1      14.500  32.241  20.617  1.00  0.00     0.209 HD
ENDBRANCH   3   4
ENDBRANCH   1   3
BRANCH   1   6
HETATM    6  C   LIG     1      14.333  31.191  16.465  1.00  0.00    -0.017 C 
HETATM    7  C   LIG     1      12.908  30.755  16.076  1.00  0.00     0.010 C 
HETATM    8  C   LIG     1      15.130  31.483  15.180  1.00  0.00     0.010 C 
ENDBRANCH   1   6
TORSDOF 3
ENDMDL
