REMARK  3 active torsions:
REMARK  status: ('A' for Active; 'I' for Inactive)
REMARK    1  A    between atoms: O_1  and  C_2 
REMARK    2  A    between atoms: C_2  and  C_3 
REMARK    3  A    between atoms: C_3  and  C_5 
ROOT
HETATM    1  C   LIG     1       0.486  -0.194  -0.336  1.00  0.00     0.008 C 
HETATM    2  C   LIG     1       1.005  -1.641  -0.221  1.00  0.00     0.012 C 
ENDROOT
BRANCH   1   3
HETATM    3  C   LIG     1       1.641   0.785  -0.028  1.00  0.00     0.168 C 
BRANCH   3   4
HETATM    4  O   LIG     1       1.997   0.720   1.326  1.00  0.00    -0.400 OA
HETATM    5  H   LIG     1       2.729   1.378   1.451  1.00  0.00     0.209 HD
ENDBRANCH   3   4
ENDBRANCH   1   3
BRANCH   1   6
HETATM    6  C   LIG     1      -0.768   0.048   0.567  1.00  0.00    -0.017 C 
HETATM    7  C   LIG     1      -1.276   1.499   0.468  1.00  0.00     0.010 C 
HETATM    8  C   LIG     1      -1.921  -0.907   0.208  1.00  0.00     0.010 C 
ENDBRANCH   1   6
TORSDOF 3
