MODEL 1
REMARK VINA RESULT:      -8.1      0.000      0.000
REMARK  4 active torsions:
REMARK  status: ('A' for Active; 'I' for Inactive)
REMARK    1  A    between atoms: C_2  and  O_3 
REMARK    2  A    between atoms: O_3  and  C_4 
REMARK    3  A    between atoms: C_6  and  N_7 
REMARK    4  A    between atoms: C_9  and  C_10 
ROOT
HETATM    1  C   LIG     1      14.867  32.169  16.947  1.00  0.00     0.093 A 
HETATM    2  C   LIG     1      15.849  32.847  16.199  1.00  0.00     0.072 A 
HETATM    3  C   LIG     1      16.110  32.490  14.868  1.00  0.00     0.088 A 
HETATM    4  C   LIG     1      15.411  31.413  14.289  1.00  0.00     0.064 A 
HETATM    5  C   LIG     1      14.444  30.733  15.033  1.00  0.00     0.053 A 
HETATM    6  C   LIG     1      14.168  31.109  16.351  1.00  0.00     0.069 A 
HETATM    7 CL   LIG     1      12.941  30.232  17.255  1.00  0.00    -0.081 Cl
HETATM    8 CL   LIG     1      15.781  30.836  12.669  1.00  0.00    -0.082 Cl
ENDROOT
BRANCH   3   9
HETATM    9  N   LIG     1      17.106  33.217  14.133  1.00  0.00    -0.172 N 
HETATM   10  C   LIG     1      17.602  34.441  14.389  1.00  0.00     0.395 A 
HETATM   11  O   LIG     1      18.559  34.745  13.552  1.00  0.00    -0.242 OA
HETATM   12  O   LIG     1      17.225  35.184  15.334  1.00  0.00    -0.236 OA
HETATM   13  C   LIG     1      18.677  33.686  12.774  1.00  0.00     0.178 A 
HETATM   14  N   LIG     1      17.791  32.722  13.116  1.00  0.00    -0.140 NA
BRANCH  13  15
HETATM   15  C   LIG     1      19.648  33.572  11.620  1.00  0.00     0.018 C 
HETATM   16  C   LIG     1      19.390  34.705  10.608  1.00  0.00     0.023 C 
HETATM   17  C   LIG     1      19.469  32.215  10.910  1.00  0.00     0.023 C 
HETATM   18  C   LIG     1      21.082  33.682  12.164  1.00  0.00     0.023 C 
ENDBRANCH  13  15
ENDBRANCH   3   9
BRANCH   1  19
HETATM   19  O   LIG     1      14.566  32.505  18.279  1.00  0.00    -0.345 OA
BRANCH  19  20
HETATM   20  C   LIG     1      15.404  32.270  19.414  1.00  0.00     0.120 C 
HETATM   21  C   LIG     1      14.842  31.084  20.195  1.00  0.00     0.040 C 
HETATM   22  C   LIG     1      15.456  33.514  20.307  1.00  0.00     0.040 C 
ENDBRANCH  19  20
ENDBRANCH   1  19
TORSDOF 4
ENDMDL
MODEL 2
REMARK VINA RESULT:      -7.9      2.518      3.841
REMARK  4 active torsions:
REMARK  status: ('A' for Active; 'I' for Inactive)
REMARK    1  A    between atoms: C_2  and  O_3 
REMARK    2  A    between atoms: O_3  and  C_4 
REMARK    3  A    between atoms: C_6  and  N_7 
REMARK    4  A    between atoms: C_9  and  C_10 
ROOT
HETATM    1  C   LIG     1      15.144  31.019  14.042  1.00  0.00     0.093 A 
HETATM    2  C   LIG     1      16.070  31.707  13.233  1.00  0.00     0.072 A 
HETATM    3  C   LIG     1      16.760  32.825  13.723  1.00  0.00     0.088 A 
HETATM    4  C   LIG     1      16.491  33.289  15.025  1.00  0.00     0.064 A 
HETATM    5  C   LIG     1      15.565  32.614  15.826  1.00  0.00     0.053 A 
HETATM    6  C   LIG     1      14.899  31.485  15.342  1.00  0.00     0.069 A 
HETATM    7 CL   LIG     1      13.744  30.660  16.379  1.00  0.00    -0.081 Cl
HETATM    8 CL   LIG     1      17.228  34.757  15.653  1.00  0.00    -0.082 Cl
ENDROOT
BRANCH   3   9
HETATM    9  N   LIG     1      17.708  33.487  12.874  1.00  0.00    -0.172 N 
HETATM   10  C   LIG     1      17.533  34.600  12.139  1.00  0.00     0.395 A 
HETATM   11  O   LIG     1      18.647  34.959  11.556  1.00  0.00    -0.242 OA
HETATM   12  O   LIG     1      16.451  35.239  12.052  1.00  0.00    -0.236 OA
HETATM   13  C   LIG     1      19.537  34.068  11.949  1.00  0.00     0.178 A 
HETATM   14  N   LIG     1      18.982  33.146  12.771  1.00  0.00    -0.140 NA
BRANCH  13  15
HETATM   15  C   LIG     1      20.984  34.048  11.511  1.00  0.00     0.018 C 
HETATM   16  C   LIG     1      21.899  34.315  12.721  1.00  0.00     0.023 C 
HETATM   17  C   LIG     1      21.229  35.136  10.447  1.00  0.00     0.023 C 
HETATM   18  C   LIG     1      21.305  32.666  10.916  1.00  0.00     0.023 C 
ENDBRANCH  13  15
ENDBRANCH   3   9
BRANCH   1  19
HETATM   19  O   LIG     1      14.441  29.887  13.592  1.00  0.00    -0.345 OA
BRANCH  19  20
HETATM   20  C   LIG     1      14.612  28.550  14.067  1.00  0.00     0.120 C 
HETATM   21  C   LIG     1      15.665  27.858  13.204  1.00  0.00     0.040 C 
HETATM   22  C   LIG     1      13.287  27.784  13.998  1.00  0.00     0.040 C 
ENDBRANCH  19  20
ENDBRANCH   1  19
TORSDOF 4
ENDMDL
MODEL 3
REMARK VINA RESULT:      -5.6     14.560     15.870
REMARK  4 active torsions:
REMARK  status: ('A' for Active; 'I' for Inactive)
REMARK    1  A    between atoms: C_2  and  O_3 
REMARK    2  A    between atoms: O_3  and  C_4 
REMARK    3  A    between atoms: C_6  and  N_7 
REMARK    4  A    between atoms: C_9  and  C_10 
ROOT
HETATM    1  C   LIG     1      25.010  22.953  24.959  1.00  0.00     0.093 A 
HETATM    2  C   LIG     1      24.708  22.756  23.598  1.00  0.00     0.072 A 
HETATM    3  C   LIG     1      23.854  21.720  23.195  1.00  0.00     0.088 A 
HETATM    4  C   LIG     1      23.327  20.841  24.160  1.00  0.00     0.064 A 
HETATM    5  C   LIG     1      23.633  21.028  25.511  1.00  0.00     0.053 A 
HETATM    6  C   LIG     1      24.465  22.079  25.911  1.00  0.00     0.069 A 
HETATM    7 CL   LIG     1      24.825  22.286  27.619  1.00  0.00    -0.081 Cl
HETATM    8 CL   LIG     1      22.352  19.448  23.708  1.00  0.00    -0.082 Cl
ENDROOT
BRANCH   3   9
HETATM    9  N   LIG     1      23.556  21.564  21.799  1.00  0.00    -0.172 N 
HETATM   10  C   LIG     1      22.706  22.281  21.044  1.00  0.00     0.395 A 
HETATM   11  O   LIG     1      22.758  21.907  19.791  1.00  0.00    -0.242 OA
HETATM   12  O   LIG     1      21.981  23.219  21.472  1.00  0.00    -0.236 OA
HETATM   13  C   LIG     1      23.670  20.954  19.762  1.00  0.00     0.178 A 
HETATM   14  N   LIG     1      24.185  20.725  20.993  1.00  0.00    -0.140 NA
BRANCH  13  15
HETATM   15  C   LIG     1      24.067  20.184  18.522  1.00  0.00     0.018 C 
HETATM   16  C   LIG     1      22.822  19.913  17.656  1.00  0.00     0.023 C 
HETATM   17  C   LIG     1      24.706  18.838  18.918  1.00  0.00     0.023 C 
HETATM   18  C   LIG     1      25.082  21.018  17.722  1.00  0.00     0.023 C 
ENDBRANCH  13  15
ENDBRANCH   3   9
BRANCH   1  19
HETATM   19  O   LIG     1      25.852  23.988  25.405  1.00  0.00    -0.345 OA
BRANCH  19  20
HETATM   20  C   LIG     1      27.281  23.966  25.404  1.00  0.00     0.120 C 
HETATM   21  C   LIG     1      27.774  24.267  26.818  1.00  0.00     0.040 C 
HETATM   22  C   LIG     1      27.830  25.007  24.422  1.00  0.00     0.040 C 
ENDBRANCH  19  20
ENDBRANCH   1  19
TORSDOF 4
ENDMDL
MODEL 4
REMARK VINA RESULT:      -5.3     13.798     14.517
REMARK  4 active torsions:
REMARK  status: ('A' for Active; 'I' for Inactive)
REMARK    1  A    between atoms: C_2  and  O_3 
REMARK    2  A    between atoms: O_3  and  C_4 
REMARK    3  A    between atoms: C_6  and  N_7 
REMARK    4  A    between atoms: C_9  and  C_10 
ROOT
HETATM    1  C   LIG     1      25.219  22.298  22.406  1.00  0.00     0.093 A 
HETATM    2  C   LIG     1      26.016  22.874  21.397  1.00  0.00     0.072 A 
HETATM    3  C   LIG     1      25.576  22.905  20.066  1.00  0.00     0.088 A 
HETATM    4  C   LIG     1      24.342  22.314  19.730  1.00  0.00     0.064 A 
HETATM    5  C   LIG     1      23.555  21.733  20.728  1.00  0.00     0.053 A 
HETATM    6  C   LIG     1      23.986  21.728  22.058  1.00  0.00     0.069 A 
HETATM    7 CL   LIG     1      22.968  20.991  23.287  1.00  0.00    -0.081 Cl
HETATM    8 CL   LIG     1      23.793  22.208  18.062  1.00  0.00    -0.082 Cl
ENDROOT
BRANCH   3   9
HETATM    9  N   LIG     1      26.408  23.517  19.070  1.00  0.00    -0.172 N 
HETATM   10  C   LIG     1      26.514  24.821  18.759  1.00  0.00     0.395 A 
HETATM   11  O   LIG     1      27.438  25.017  17.855  1.00  0.00    -0.242 OA
HETATM   12  O   LIG     1      25.842  25.743  19.295  1.00  0.00    -0.236 OA
HETATM   13  C   LIG     1      27.931  23.817  17.612  1.00  0.00     0.178 A 
HETATM   14  N   LIG     1      27.314  22.869  18.355  1.00  0.00    -0.140 NA
BRANCH  13  15
HETATM   15  C   LIG     1      29.020  23.525  16.603  1.00  0.00     0.018 C 
HETATM   16  C   LIG     1      28.926  24.521  15.431  1.00  0.00     0.023 C 
HETATM   17  C   LIG     1      28.864  22.092  16.057  1.00  0.00     0.023 C 
HETATM   18  C   LIG     1      30.387  23.665  17.293  1.00  0.00     0.023 C 
ENDBRANCH  13  15
ENDBRANCH   3   9
BRANCH   1  19
HETATM   19  O   LIG     1      25.619  22.258  23.754  1.00  0.00    -0.345 OA
BRANCH  19  20
HETATM   20  C   LIG     1      25.375  23.273  24.732  1.00  0.00     0.120 C 
HETATM   21  C   LIG     1      26.706  23.927  25.095  1.00  0.00     0.040 C 
HETATM   22  C   LIG     1      24.727  22.667  25.981  1.00  0.00     0.040 C 
ENDBRANCH  19  20
ENDBRANCH   1  19
TORSDOF 4
ENDMDL
MODEL 5
REMARK VINA RESULT:      -5.2     14.541     15.655
REMARK  4 active torsions:
REMARK  status: ('A' for Active; 'I' for Inactive)
REMARK    1  A    between atoms: C_2  and  O_3 
REMARK    2  A    between atoms: O_3  and  C_4 
REMARK    3  A    between atoms: C_6  and  N_7 
REMARK    4  A    between atoms: C_9  and  C_10 
ROOT
HETATM    1  C   LIG     1      27.607  24.142  22.620  1.00  0.00     0.093 A 
HETATM    2  C   LIG     1      26.533  23.308  22.253  1.00  0.00     0.072 A 
HETATM    3  C   LIG     1      26.038  23.311  20.941  1.00  0.00     0.088 A 
HETATM    4  C   LIG     1      26.594  24.191  19.993  1.00  0.00     0.064 A 
HETATM    5  C   LIG     1      27.652  25.028  20.358  1.00  0.00     0.053 A 
HETATM    6  C   LIG     1      28.160  25.002  21.660  1.00  0.00     0.069 A 
HETATM    7 CL   LIG     1      29.495  26.065  22.081  1.00  0.00    -0.081 Cl
HETATM    8 CL   LIG     1      25.935  24.334  18.368  1.00  0.00    -0.082 Cl
ENDROOT
BRANCH   3   9
HETATM    9  N   LIG     1      24.954  22.433  20.602  1.00  0.00    -0.172 N 
HETATM   10  C   LIG     1      23.647  22.575  20.887  1.00  0.00     0.395 A 
HETATM   11  O   LIG     1      22.940  21.618  20.343  1.00  0.00    -0.242 OA
HETATM   12  O   LIG     1      23.157  23.524  21.556  1.00  0.00    -0.236 OA
HETATM   13  C   LIG     1      23.818  20.879  19.691  1.00  0.00     0.178 A 
HETATM   14  N   LIG     1      25.074  21.365  19.831  1.00  0.00    -0.140 NA
BRANCH  13  15
HETATM   15  C   LIG     1      23.478  19.625  18.917  1.00  0.00     0.018 C 
HETATM   16  C   LIG     1      22.776  18.614  19.844  1.00  0.00     0.023 C 
HETATM   17  C   LIG     1      24.763  18.985  18.357  1.00  0.00     0.023 C 
HETATM   18  C   LIG     1      22.542  19.997  17.754  1.00  0.00     0.023 C 
ENDBRANCH  13  15
ENDBRANCH   3   9
BRANCH   1  19
HETATM   19  O   LIG     1      28.141  24.159  23.921  1.00  0.00    -0.345 OA
BRANCH  19  20
HETATM   20  C   LIG     1      27.753  25.044  24.976  1.00  0.00     0.120 C 
HETATM   21  C   LIG     1      28.958  25.270  25.887  1.00  0.00     0.040 C 
HETATM   22  C   LIG     1      26.592  24.445  25.776  1.00  0.00     0.040 C 
ENDBRANCH  19  20
ENDBRANCH   1  19
TORSDOF 4
ENDMDL
MODEL 6
REMARK VINA RESULT:      -5.2     21.892     23.552
REMARK  4 active torsions:
REMARK  status: ('A' for Active; 'I' for Inactive)
REMARK    1  A    between atoms: C_2  and  O_3 
REMARK    2  A    between atoms: O_3  and  C_4 
REMARK    3  A    between atoms: C_6  and  N_7 
REMARK    4  A    between atoms: C_9  and  C_10 
ROOT
HETATM    1  C   LIG     1      25.875  23.415  35.500  1.00  0.00     0.093 A 
HETATM    2  C   LIG     1      25.917  24.813  35.338  1.00  0.00     0.072 A 
HETATM    3  C   LIG     1      26.893  25.413  34.530  1.00  0.00     0.088 A 
HETATM    4  C   LIG     1      27.867  24.609  33.908  1.00  0.00     0.064 A 
HETATM    5  C   LIG     1      27.834  23.222  34.075  1.00  0.00     0.053 A 
HETATM    6  C   LIG     1      26.843  22.626  34.861  1.00  0.00     0.069 A 
HETATM    7 CL   LIG     1      26.829  20.878  35.046  1.00  0.00    -0.081 Cl
HETATM    8 CL   LIG     1      29.192  25.309  32.985  1.00  0.00    -0.082 Cl
ENDROOT
BRANCH   3   9
HETATM    9  N   LIG     1      26.892  26.840  34.376  1.00  0.00    -0.172 N 
HETATM   10  C   LIG     1      26.488  27.563  33.316  1.00  0.00     0.395 A 
HETATM   11  O   LIG     1      26.553  28.845  33.568  1.00  0.00    -0.242 OA
HETATM   12  O   LIG     1      26.065  27.075  32.234  1.00  0.00    -0.236 OA
HETATM   13  C   LIG     1      26.985  28.922  34.812  1.00  0.00     0.178 A 
HETATM   14  N   LIG     1      27.198  27.694  35.339  1.00  0.00    -0.140 NA
BRANCH  13  15
HETATM   15  C   LIG     1      27.248  30.216  35.550  1.00  0.00     0.018 C 
HETATM   16  C   LIG     1      28.279  31.058  34.774  1.00  0.00     0.023 C 
HETATM   17  C   LIG     1      27.801  29.918  36.958  1.00  0.00     0.023 C 
HETATM   18  C   LIG     1      25.928  30.997  35.671  1.00  0.00     0.023 C 
ENDBRANCH  13  15
ENDBRANCH   3   9
BRANCH   1  19
HETATM   19  O   LIG     1      24.905  22.774  36.292  1.00  0.00    -0.345 OA
BRANCH  19  20
HETATM   20  C   LIG     1      23.515  23.103  36.345  1.00  0.00     0.120 C 
HETATM   21  C   LIG     1      22.917  22.485  37.608  1.00  0.00     0.040 C 
HETATM   22  C   LIG     1      22.791  22.571  35.104  1.00  0.00     0.040 C 
ENDBRANCH  19  20
ENDBRANCH   1  19
TORSDOF 4
ENDMDL
MODEL 7
REMARK VINA RESULT:      -5.2      3.583      5.509
REMARK  4 active torsions:
REMARK  status: ('A' for Active; 'I' for Inactive)
REMARK    1  A    between atoms: C_2  and  O_3 
REMARK    2  A    between atoms: O_3  and  C_4 
REMARK    3  A    between atoms: C_6  and  N_7 
REMARK    4  A    between atoms: C_9  and  C_10 
ROOT
HETATM    1  C   LIG     1      16.149  35.283  20.019  1.00  0.00     0.093 A 
HETATM    2  C   LIG     1      16.079  34.788  18.703  1.00  0.00     0.072 A 
HETATM    3  C   LIG     1      15.541  33.519  18.441  1.00  0.00     0.088 A 
HETATM    4  C   LIG     1      15.106  32.717  19.513  1.00  0.00     0.064 A 
HETATM    5  C   LIG     1      15.184  33.202  20.821  1.00  0.00     0.053 A 
HETATM    6  C   LIG     1      15.698  34.477  21.075  1.00  0.00     0.069 A 
HETATM    7 CL   LIG     1      15.777  35.056  22.733  1.00  0.00    -0.081 Cl
HETATM    8 CL   LIG     1      14.540  31.070  19.263  1.00  0.00    -0.082 Cl
ENDROOT
BRANCH   3   9
HETATM    9  N   LIG     1      15.470  33.058  17.084  1.00  0.00    -0.172 N 
HETATM   10  C   LIG     1      15.874  33.690  15.967  1.00  0.00     0.395 A 
HETATM   11  O   LIG     1      15.729  32.926  14.916  1.00  0.00    -0.242 OA
HETATM   12  O   LIG     1      16.364  34.850  15.937  1.00  0.00    -0.236 OA
HETATM   13  C   LIG     1      15.247  31.792  15.386  1.00  0.00     0.178 A 
HETATM   14  N   LIG     1      15.082  31.845  16.729  1.00  0.00    -0.140 NA
BRANCH  13  15
HETATM   15  C   LIG     1      14.886  30.594  14.536  1.00  0.00     0.018 C 
HETATM   16  C   LIG     1      13.424  30.187  14.803  1.00  0.00     0.023 C 
HETATM   17  C   LIG     1      15.807  29.406  14.877  1.00  0.00     0.023 C 
HETATM   18  C   LIG     1      15.057  30.967  13.053  1.00  0.00     0.023 C 
ENDBRANCH  13  15
ENDBRANCH   3   9
BRANCH   1  19
HETATM   19  O   LIG     1      16.670  36.554  20.322  1.00  0.00    -0.345 OA
BRANCH  19  20
HETATM   20  C   LIG     1      18.013  36.837  20.723  1.00  0.00     0.120 C 
HETATM   21  C   LIG     1      18.022  38.158  21.490  1.00  0.00     0.040 C 
HETATM   22  C   LIG     1      18.927  36.933  19.497  1.00  0.00     0.040 C 
ENDBRANCH  19  20
ENDBRANCH   1  19
TORSDOF 4
ENDMDL
MODEL 8
REMARK VINA RESULT:      -5.1      3.755      6.818
REMARK  4 active torsions:
REMARK  status: ('A' for Active; 'I' for Inactive)
REMARK    1  A    between atoms: C_2  and  O_3 
REMARK    2  A    between atoms: O_3  and  C_4 
REMARK    3  A    between atoms: C_6  and  N_7 
REMARK    4  A    between atoms: C_9  and  C_10 
ROOT
HETATM    1  C   LIG     1      14.554  30.839  15.352  1.00  0.00     0.093 A 
HETATM    2  C   LIG     1      14.571  31.309  16.680  1.00  0.00     0.072 A 
HETATM    3  C   LIG     1      15.277  32.472  17.021  1.00  0.00     0.088 A 
HETATM    4  C   LIG     1      16.010  33.152  16.030  1.00  0.00     0.064 A 
HETATM    5  C   LIG     1      16.003  32.683  14.714  1.00  0.00     0.053 A 
HETATM    6  C   LIG     1      15.277  31.537  14.374  1.00  0.00     0.069 A 
HETATM    7 CL   LIG     1      15.287  30.978  12.707  1.00  0.00    -0.081 Cl
HETATM    8 CL   LIG     1      17.016  34.543  16.417  1.00  0.00    -0.082 Cl
ENDROOT
BRANCH   3   9
HETATM    9  N   LIG     1      15.256  32.928  18.381  1.00  0.00    -0.172 N 
HETATM   10  C   LIG     1      14.895  32.245  19.483  1.00  0.00     0.395 A 
HETATM   11  O   LIG     1      15.084  32.959  20.562  1.00  0.00    -0.242 OA
HETATM   12  O   LIG     1      14.467  31.060  19.485  1.00  0.00    -0.236 OA
HETATM   13  C   LIG     1      15.591  34.098  20.129  1.00  0.00     0.178 A 
HETATM   14  N   LIG     1      15.712  34.103  18.781  1.00  0.00    -0.140 NA
BRANCH  13  15
HETATM   15  C   LIG     1      15.955  35.267  21.016  1.00  0.00     0.018 C 
HETATM   16  C   LIG     1      16.969  36.175  20.292  1.00  0.00     0.023 C 
HETATM   17  C   LIG     1      16.584  34.760  22.329  1.00  0.00     0.023 C 
HETATM   18  C   LIG     1      14.680  36.067  21.333  1.00  0.00     0.023 C 
ENDBRANCH  13  15
ENDBRANCH   3   9
BRANCH   1  19
HETATM   19  O   LIG     1      13.849  29.685  14.968  1.00  0.00    -0.345 OA
BRANCH  19  20
HETATM   20  C   LIG     1      14.224  28.780  13.927  1.00  0.00     0.120 C 
HETATM   21  C   LIG     1      13.150  27.700  13.811  1.00  0.00     0.040 C 
HETATM   22  C   LIG     1      15.582  28.142  14.237  1.00  0.00     0.040 C 
ENDBRANCH  19  20
ENDBRANCH   1  19
TORSDOF 4
ENDMDL
