REMARK  4 active torsions:
REMARK  status: ('A' for Active; 'I' for Inactive)
REMARK    1  A    between atoms: C_2  and  O_3 
REMARK    2  A    between atoms: O_3  and  C_4 
REMARK    3  A    between atoms: C_6  and  N_7 
REMARK    4  A    between atoms: C_9  and  C_10 
ROOT
HETATM    1  C   LIG     1       2.811   1.200  -0.232  1.00  0.00     0.093 A 
HETATM    2  C   LIG     1       1.484   0.733  -0.304  1.00  0.00     0.072 A 
HETATM    3  C   LIG     1       0.461   1.552  -0.803  1.00  0.00     0.088 A 
HETATM    4  C   LIG     1       0.759   2.871  -1.196  1.00  0.00     0.064 A 
HETATM    5  C   LIG     1       2.073   3.340  -1.116  1.00  0.00     0.053 A 
HETATM    6  C   LIG     1       3.094   2.511  -0.642  1.00  0.00     0.069 A 
HETATM    7 CL   LIG     1       4.736   3.134  -0.559  1.00  0.00    -0.081 Cl
HETATM    8 CL   LIG     1      -0.499   3.988  -1.711  1.00  0.00    -0.082 Cl
ENDROOT
BRANCH   3   9
HETATM    9  N   LIG     1      -0.875   1.033  -0.877  1.00  0.00    -0.172 N 
HETATM   10  C   LIG     1      -1.674   0.941  -1.955  1.00  0.00     0.395 A 
HETATM   11  O   LIG     1      -2.795   0.335  -1.660  1.00  0.00    -0.242 OA
HETATM   12  O   LIG     1      -1.372   1.347  -3.109  1.00  0.00    -0.236 OA
HETATM   13  C   LIG     1      -2.685   0.026  -0.382  1.00  0.00     0.178 A 
HETATM   14  N   LIG     1      -1.502   0.443   0.127  1.00  0.00    -0.140 NA
BRANCH  13  15
HETATM   15  C   LIG     1      -3.756  -0.670   0.428  1.00  0.00     0.018 C 
HETATM   16  C   LIG     1      -3.110  -1.714   1.359  1.00  0.00     0.023 C 
HETATM   17  C   LIG     1      -4.750  -1.382  -0.511  1.00  0.00     0.023 C 
HETATM   18  C   LIG     1      -4.505   0.379   1.268  1.00  0.00     0.023 C 
ENDBRANCH  13  15
ENDBRANCH   3   9
BRANCH   1  19
HETATM   19  O   LIG     1       3.867   0.406   0.250  1.00  0.00    -0.345 OA
BRANCH  19  20
HETATM   20  C   LIG     1       3.800  -0.992   0.542  1.00  0.00     0.120 C 
HETATM   21  C   LIG     1       5.051  -1.385   1.325  1.00  0.00     0.040 C 
HETATM   22  C   LIG     1       3.712  -1.805  -0.754  1.00  0.00     0.040 C 
ENDBRANCH  19  20
ENDBRANCH   1  19
TORSDOF 4
