REMARK  0 active torsions:
REMARK  status: ('A' for Active; 'I' for Inactive)
ROOT
HETATM    1  C   LIG     1       0.837  -1.154  -0.105  1.00  0.00    -0.013 A 
HETATM    2  C   LIG     1       1.717  -2.262  -0.209  1.00  0.00     0.013 A 
HETATM    3  C   LIG     1       3.098  -2.091  -0.239  1.00  0.00     0.002 A 
HETATM    4  C   LIG     1       3.650  -0.821  -0.169  1.00  0.00     0.012 A 
HETATM    5  C   LIG     1       2.821   0.300  -0.067  1.00  0.00    -0.024 A 
HETATM    6  C   LIG     1       3.400   1.570   0.003  1.00  0.00     0.012 A 
HETATM    7  C   LIG     1       2.597   2.696   0.105  1.00  0.00     0.002 A 
HETATM    8  C   LIG     1       1.211   2.574   0.140  1.00  0.00     0.013 A 
HETATM    9  C   LIG     1       0.580   1.304   0.072  1.00  0.00    -0.013 A 
HETATM   10  C   LIG     1      -0.837   1.154   0.105  1.00  0.00    -0.013 A 
HETATM   11  C   LIG     1      -1.405  -0.149   0.033  1.00  0.00    -0.004 A 
HETATM   12  C   LIG     1      -2.821  -0.300   0.067  1.00  0.00    -0.024 A 
HETATM   13  C   LIG     1      -3.400  -1.570  -0.003  1.00  0.00     0.012 A 
HETATM   14  C   LIG     1      -2.597  -2.696  -0.105  1.00  0.00     0.002 A 
HETATM   15  C   LIG     1      -1.211  -2.574  -0.140  1.00  0.00     0.013 A 
HETATM   16  C   LIG     1      -0.580  -1.304  -0.072  1.00  0.00    -0.013 A 
HETATM   17  C   LIG     1      -3.650   0.821   0.169  1.00  0.00     0.012 A 
HETATM   18  C   LIG     1      -3.098   2.091   0.239  1.00  0.00     0.002 A 
HETATM   19  C   LIG     1      -1.717   2.262   0.209  1.00  0.00     0.013 A 
HETATM   20  C   LIG     1       1.405   0.149  -0.033  1.00  0.00    -0.004 A 
ENDROOT
TORSDOF 0
