MODEL 1
REMARK VINA RESULT:      -7.2      0.000      0.000
REMARK  0 active torsions:
REMARK  status: ('A' for Active; 'I' for Inactive)
ROOT
HETATM    1  C   LIG     1       3.541  42.964  32.668  1.00  0.00    -0.013 A 
HETATM    2  C   LIG     1       3.608  44.267  32.111  1.00  0.00     0.013 A 
HETATM    3  C   LIG     1       3.451  44.481  30.744  1.00  0.00     0.002 A 
HETATM    4  C   LIG     1       3.225  43.413  29.888  1.00  0.00     0.012 A 
HETATM    5  C   LIG     1       3.153  42.112  30.393  1.00  0.00    -0.024 A 
HETATM    6  C   LIG     1       2.924  41.052  29.511  1.00  0.00     0.012 A 
HETATM    7  C   LIG     1       2.848  39.753  29.990  1.00  0.00     0.002 A 
HETATM    8  C   LIG     1       2.997  39.491  31.348  1.00  0.00     0.013 A 
HETATM    9  C   LIG     1       3.231  40.536  32.280  1.00  0.00    -0.013 A 
HETATM   10  C   LIG     1       3.388  40.293  33.676  1.00  0.00    -0.013 A 
HETATM   11  C   LIG     1       3.620  41.387  34.555  1.00  0.00    -0.004 A 
HETATM   12  C   LIG     1       3.776  41.145  35.950  1.00  0.00    -0.024 A 
HETATM   13  C   LIG     1       4.005  42.205  36.832  1.00  0.00     0.012 A 
HETATM   14  C   LIG     1       4.081  43.504  36.354  1.00  0.00     0.002 A 
HETATM   15  C   LIG     1       3.932  43.766  34.995  1.00  0.00     0.013 A 
HETATM   16  C   LIG     1       3.698  42.720  34.063  1.00  0.00    -0.013 A 
HETATM   17  C   LIG     1       3.704  39.843  36.455  1.00  0.00     0.012 A 
HETATM   18  C   LIG     1       3.478  38.776  35.599  1.00  0.00     0.002 A 
HETATM   19  C   LIG     1       3.321  38.990  34.233  1.00  0.00     0.013 A 
HETATM   20  C   LIG     1       3.309  41.870  31.788  1.00  0.00    -0.004 A 
ENDROOT
TORSDOF 0
ENDMDL
MODEL 2
REMARK VINA RESULT:      -6.2     30.290     31.174
REMARK  0 active torsions:
REMARK  status: ('A' for Active; 'I' for Inactive)
ROOT
HETATM    1  C   LIG     1      23.844  21.594  20.739  1.00  0.00    -0.013 A 
HETATM    2  C   LIG     1      22.999  21.028  19.749  1.00  0.00     0.013 A 
HETATM    3  C   LIG     1      23.142  21.352  18.403  1.00  0.00     0.002 A 
HETATM    4  C   LIG     1      24.121  22.244  17.996  1.00  0.00     0.012 A 
HETATM    5  C   LIG     1      24.975  22.827  18.936  1.00  0.00    -0.024 A 
HETATM    6  C   LIG     1      25.956  23.724  18.502  1.00  0.00     0.012 A 
HETATM    7  C   LIG     1      26.814  24.314  19.418  1.00  0.00     0.002 A 
HETATM    8  C   LIG     1      26.710  24.019  20.774  1.00  0.00     0.013 A 
HETATM    9  C   LIG     1      25.730  23.114  21.260  1.00  0.00    -0.013 A 
HETATM   10  C   LIG     1      25.603  22.798  22.644  1.00  0.00    -0.013 A 
HETATM   11  C   LIG     1      24.598  21.882  23.064  1.00  0.00    -0.004 A 
HETATM   12  C   LIG     1      24.472  21.565  24.447  1.00  0.00    -0.024 A 
HETATM   13  C   LIG     1      23.492  20.668  24.881  1.00  0.00     0.012 A 
HETATM   14  C   LIG     1      22.633  20.078  23.965  1.00  0.00     0.002 A 
HETATM   15  C   LIG     1      22.737  20.373  22.609  1.00  0.00     0.013 A 
HETATM   16  C   LIG     1      23.717  21.278  22.123  1.00  0.00    -0.013 A 
HETATM   17  C   LIG     1      25.326  22.147  25.388  1.00  0.00     0.012 A 
HETATM   18  C   LIG     1      26.305  23.040  24.980  1.00  0.00     0.002 A 
HETATM   19  C   LIG     1      26.448  23.364  23.634  1.00  0.00     0.013 A 
HETATM   20  C   LIG     1      24.849  22.510  20.319  1.00  0.00    -0.004 A 
ENDROOT
TORSDOF 0
ENDMDL
MODEL 3
REMARK VINA RESULT:      -6.2     30.248     31.505
REMARK  0 active torsions:
REMARK  status: ('A' for Active; 'I' for Inactive)
ROOT
HETATM    1  C   LIG     1      23.744  21.369  22.167  1.00  0.00    -0.013 A 
HETATM    2  C   LIG     1      22.753  20.488  22.672  1.00  0.00     0.013 A 
HETATM    3  C   LIG     1      22.665  20.197  24.030  1.00  0.00     0.002 A 
HETATM    4  C   LIG     1      23.554  20.765  24.929  1.00  0.00     0.012 A 
HETATM    5  C   LIG     1      24.548  21.638  24.477  1.00  0.00    -0.024 A 
HETATM    6  C   LIG     1      25.433  22.200  25.402  1.00  0.00     0.012 A 
HETATM    7  C   LIG     1      26.427  23.068  24.975  1.00  0.00     0.002 A 
HETATM    8  C   LIG     1      26.552  23.390  23.627  1.00  0.00     0.013 A 
HETATM    9  C   LIG     1      25.676  22.843  22.653  1.00  0.00    -0.013 A 
HETATM   10  C   LIG     1      25.785  23.157  21.267  1.00  0.00    -0.013 A 
HETATM   11  C   LIG     1      24.873  22.574  20.343  1.00  0.00    -0.004 A 
HETATM   12  C   LIG     1      24.981  22.888  18.958  1.00  0.00    -0.024 A 
HETATM   13  C   LIG     1      24.097  22.327  18.033  1.00  0.00     0.012 A 
HETATM   14  C   LIG     1      23.103  21.458  18.459  1.00  0.00     0.002 A 
HETATM   15  C   LIG     1      22.978  21.136  19.807  1.00  0.00     0.013 A 
HETATM   16  C   LIG     1      23.854  21.683  20.781  1.00  0.00    -0.013 A 
HETATM   17  C   LIG     1      25.975  23.761  18.505  1.00  0.00     0.012 A 
HETATM   18  C   LIG     1      26.865  24.329  19.404  1.00  0.00     0.002 A 
HETATM   19  C   LIG     1      26.777  24.038  20.763  1.00  0.00     0.013 A 
HETATM   20  C   LIG     1      24.657  21.952  23.092  1.00  0.00    -0.004 A 
ENDROOT
TORSDOF 0
ENDMDL
MODEL 4
REMARK VINA RESULT:      -6.2     30.230     31.406
REMARK  0 active torsions:
REMARK  status: ('A' for Active; 'I' for Inactive)
ROOT
HETATM    1  C   LIG     1      25.832  23.007  22.499  1.00  0.00    -0.013 A 
HETATM    2  C   LIG     1      26.746  23.581  23.420  1.00  0.00     0.013 A 
HETATM    3  C   LIG     1      26.673  23.305  24.782  1.00  0.00     0.002 A 
HETATM    4  C   LIG     1      25.694  22.456  25.275  1.00  0.00     0.012 A 
HETATM    5  C   LIG     1      24.771  21.869  24.405  1.00  0.00    -0.024 A 
HETATM    6  C   LIG     1      23.793  21.016  24.924  1.00  0.00     0.012 A 
HETATM    7  C   LIG     1      22.868  20.422  24.079  1.00  0.00     0.002 A 
HETATM    8  C   LIG     1      22.903  20.667  22.710  1.00  0.00     0.013 A 
HETATM    9  C   LIG     1      23.879  21.526  22.138  1.00  0.00    -0.013 A 
HETATM   10  C   LIG     1      23.934  21.793  20.739  1.00  0.00    -0.013 A 
HETATM   11  C   LIG     1      24.939  22.664  20.232  1.00  0.00    -0.004 A 
HETATM   12  C   LIG     1      24.996  22.930  18.834  1.00  0.00    -0.024 A 
HETATM   13  C   LIG     1      25.974  23.783  18.314  1.00  0.00     0.012 A 
HETATM   14  C   LIG     1      26.899  24.377  19.159  1.00  0.00     0.002 A 
HETATM   15  C   LIG     1      26.864  24.132  20.529  1.00  0.00     0.013 A 
HETATM   16  C   LIG     1      25.888  23.273  21.100  1.00  0.00    -0.013 A 
HETATM   17  C   LIG     1      24.073  22.343  17.963  1.00  0.00     0.012 A 
HETATM   18  C   LIG     1      23.094  21.494  18.456  1.00  0.00     0.002 A 
HETATM   19  C   LIG     1      23.020  21.219  19.819  1.00  0.00     0.013 A 
HETATM   20  C   LIG     1      24.828  22.135  23.007  1.00  0.00    -0.004 A 
ENDROOT
TORSDOF 0
ENDMDL
MODEL 5
REMARK VINA RESULT:      -6.1     30.465     31.843
REMARK  0 active torsions:
REMARK  status: ('A' for Active; 'I' for Inactive)
ROOT
HETATM    1  C   LIG     1      26.569  23.635  21.700  1.00  0.00    -0.013 A 
HETATM    2  C   LIG     1      27.317  24.012  22.845  1.00  0.00     0.013 A 
HETATM    3  C   LIG     1      28.447  24.817  22.741  1.00  0.00     0.002 A 
HETATM    4  C   LIG     1      28.873  25.272  21.502  1.00  0.00     0.012 A 
HETATM    5  C   LIG     1      28.168  24.925  20.346  1.00  0.00    -0.024 A 
HETATM    6  C   LIG     1      28.616  25.396  19.109  1.00  0.00     0.012 A 
HETATM    7  C   LIG     1      27.932  25.064  17.949  1.00  0.00     0.002 A 
HETATM    8  C   LIG     1      26.796  24.263  18.005  1.00  0.00     0.013 A 
HETATM    9  C   LIG     1      26.305  23.763  19.239  1.00  0.00    -0.013 A 
HETATM   10  C   LIG     1      25.144  22.940  19.321  1.00  0.00    -0.013 A 
HETATM   11  C   LIG     1      24.705  22.472  20.591  1.00  0.00    -0.004 A 
HETATM   12  C   LIG     1      23.545  21.650  20.674  1.00  0.00    -0.024 A 
HETATM   13  C   LIG     1      23.097  21.179  21.911  1.00  0.00     0.012 A 
HETATM   14  C   LIG     1      23.781  21.511  23.071  1.00  0.00     0.002 A 
HETATM   15  C   LIG     1      24.917  22.312  23.016  1.00  0.00     0.013 A 
HETATM   16  C   LIG     1      25.408  22.812  21.781  1.00  0.00    -0.013 A 
HETATM   17  C   LIG     1      22.840  21.303  19.518  1.00  0.00     0.012 A 
HETATM   18  C   LIG     1      23.266  21.758  18.280  1.00  0.00     0.002 A 
HETATM   19  C   LIG     1      24.397  22.563  18.175  1.00  0.00     0.013 A 
HETATM   20  C   LIG     1      27.008  24.103  20.429  1.00  0.00    -0.004 A 
ENDROOT
TORSDOF 0
ENDMDL
MODEL 6
REMARK VINA RESULT:      -6.1     30.475     31.885
REMARK  0 active torsions:
REMARK  status: ('A' for Active; 'I' for Inactive)
ROOT
HETATM    1  C   LIG     1      25.435  22.809  21.784  1.00  0.00    -0.013 A 
HETATM    2  C   LIG     1      24.947  22.311  23.019  1.00  0.00     0.013 A 
HETATM    3  C   LIG     1      23.806  21.517  23.081  1.00  0.00     0.002 A 
HETATM    4  C   LIG     1      23.112  21.193  21.925  1.00  0.00     0.012 A 
HETATM    5  C   LIG     1      23.556  21.663  20.685  1.00  0.00    -0.024 A 
HETATM    6  C   LIG     1      22.840  21.323  19.534  1.00  0.00     0.012 A 
HETATM    7  C   LIG     1      23.262  21.778  18.293  1.00  0.00     0.002 A 
HETATM    8  C   LIG     1      24.399  22.574  18.182  1.00  0.00     0.013 A 
HETATM    9  C   LIG     1      25.156  22.943  19.325  1.00  0.00    -0.013 A 
HETATM   10  C   LIG     1      26.322  23.757  19.237  1.00  0.00    -0.013 A 
HETATM   11  C   LIG     1      27.035  24.090  20.422  1.00  0.00    -0.004 A 
HETATM   12  C   LIG     1      28.202  24.903  20.335  1.00  0.00    -0.024 A 
HETATM   13  C   LIG     1      28.917  25.243  21.486  1.00  0.00     0.012 A 
HETATM   14  C   LIG     1      28.495  24.788  22.727  1.00  0.00     0.002 A 
HETATM   15  C   LIG     1      27.358  23.993  22.838  1.00  0.00     0.013 A 
HETATM   16  C   LIG     1      26.601  23.623  21.695  1.00  0.00    -0.013 A 
HETATM   17  C   LIG     1      28.645  25.373  19.095  1.00  0.00     0.012 A 
HETATM   18  C   LIG     1      27.951  25.050  17.939  1.00  0.00     0.002 A 
HETATM   19  C   LIG     1      26.810  24.256  18.001  1.00  0.00     0.013 A 
HETATM   20  C   LIG     1      24.722  22.476  20.598  1.00  0.00    -0.004 A 
ENDROOT
TORSDOF 0
ENDMDL
MODEL 7
REMARK VINA RESULT:      -6.1     30.484     31.871
REMARK  0 active torsions:
REMARK  status: ('A' for Active; 'I' for Inactive)
ROOT
HETATM    1  C   LIG     1      25.082  22.904  19.341  1.00  0.00    -0.013 A 
HETATM    2  C   LIG     1      24.318  22.502  18.216  1.00  0.00     0.013 A 
HETATM    3  C   LIG     1      23.202  21.682  18.353  1.00  0.00     0.002 A 
HETATM    4  C   LIG     1      22.810  21.233  19.605  1.00  0.00     0.012 A 
HETATM    5  C   LIG     1      23.534  21.603  20.741  1.00  0.00    -0.024 A 
HETATM    6  C   LIG     1      23.120  21.139  21.993  1.00  0.00     0.012 A 
HETATM    7  C   LIG     1      23.823  21.493  23.134  1.00  0.00     0.002 A 
HETATM    8  C   LIG     1      24.945  22.313  23.046  1.00  0.00     0.013 A 
HETATM    9  C   LIG     1      25.401  22.807  21.796  1.00  0.00    -0.013 A 
HETATM   10  C   LIG     1      26.547  23.647  21.681  1.00  0.00    -0.013 A 
HETATM   11  C   LIG     1      26.951  24.108  20.397  1.00  0.00    -0.004 A 
HETATM   12  C   LIG     1      28.095  24.948  20.281  1.00  0.00    -0.024 A 
HETATM   13  C   LIG     1      28.510  25.412  19.029  1.00  0.00     0.012 A 
HETATM   14  C   LIG     1      27.806  25.058  17.888  1.00  0.00     0.002 A 
HETATM   15  C   LIG     1      26.685  24.238  17.976  1.00  0.00     0.013 A 
HETATM   16  C   LIG     1      26.228  23.744  19.226  1.00  0.00    -0.013 A 
HETATM   17  C   LIG     1      28.820  25.318  21.417  1.00  0.00     0.012 A 
HETATM   18  C   LIG     1      28.428  24.869  22.669  1.00  0.00     0.002 A 
HETATM   19  C   LIG     1      27.312  24.049  22.806  1.00  0.00     0.013 A 
HETATM   20  C   LIG     1      24.679  22.443  20.625  1.00  0.00    -0.004 A 
ENDROOT
TORSDOF 0
ENDMDL
MODEL 8
REMARK VINA RESULT:      -6.1     30.482     31.838
REMARK  0 active torsions:
REMARK  status: ('A' for Active; 'I' for Inactive)
ROOT
HETATM    1  C   LIG     1      26.229  23.744  19.226  1.00  0.00    -0.013 A 
HETATM    2  C   LIG     1      26.687  24.239  17.977  1.00  0.00     0.013 A 
HETATM    3  C   LIG     1      27.809  25.058  17.890  1.00  0.00     0.002 A 
HETATM    4  C   LIG     1      28.511  25.412  19.032  1.00  0.00     0.012 A 
HETATM    5  C   LIG     1      28.095  24.948  20.283  1.00  0.00    -0.024 A 
HETATM    6  C   LIG     1      28.819  25.318  21.420  1.00  0.00     0.012 A 
HETATM    7  C   LIG     1      28.425  24.869  22.672  1.00  0.00     0.002 A 
HETATM    8  C   LIG     1      27.310  24.048  22.809  1.00  0.00     0.013 A 
HETATM    9  C   LIG     1      26.545  23.647  21.681  1.00  0.00    -0.013 A 
HETATM   10  C   LIG     1      25.399  22.808  21.796  1.00  0.00    -0.013 A 
HETATM   11  C   LIG     1      24.678  22.443  20.625  1.00  0.00    -0.004 A 
HETATM   12  C   LIG     1      23.533  21.603  20.738  1.00  0.00    -0.024 A 
HETATM   13  C   LIG     1      22.809  21.234  19.601  1.00  0.00     0.012 A 
HETATM   14  C   LIG     1      23.204  21.682  18.350  1.00  0.00     0.002 A 
HETATM   15  C   LIG     1      24.319  22.504  18.213  1.00  0.00     0.013 A 
HETATM   16  C   LIG     1      25.083  22.904  19.341  1.00  0.00    -0.013 A 
HETATM   17  C   LIG     1      23.117  21.140  21.990  1.00  0.00     0.012 A 
HETATM   18  C   LIG     1      23.819  21.494  23.132  1.00  0.00     0.002 A 
HETATM   19  C   LIG     1      24.941  22.312  23.044  1.00  0.00     0.013 A 
HETATM   20  C   LIG     1      26.950  24.108  20.397  1.00  0.00    -0.004 A 
ENDROOT
TORSDOF 0
ENDMDL
MODEL 9
REMARK VINA RESULT:      -5.9     31.105     33.116
REMARK  0 active torsions:
REMARK  status: ('A' for Active; 'I' for Inactive)
ROOT
HETATM    1  C   LIG     1      25.988  20.984  17.715  1.00  0.00    -0.013 A 
HETATM    2  C   LIG     1      27.093  20.724  16.863  1.00  0.00     0.013 A 
HETATM    3  C   LIG     1      27.003  19.811  15.816  1.00  0.00     0.002 A 
HETATM    4  C   LIG     1      25.820  19.127  15.582  1.00  0.00     0.012 A 
HETATM    5  C   LIG     1      24.706  19.350  16.396  1.00  0.00    -0.024 A 
HETATM    6  C   LIG     1      23.525  18.649  16.140  1.00  0.00     0.012 A 
HETATM    7  C   LIG     1      22.407  18.855  16.935  1.00  0.00     0.002 A 
HETATM    8  C   LIG     1      22.450  19.759  17.993  1.00  0.00     0.013 A 
HETATM    9  C   LIG     1      23.629  20.493  18.289  1.00  0.00    -0.013 A 
HETATM   10  C   LIG     1      23.697  21.423  19.366  1.00  0.00    -0.013 A 
HETATM   11  C   LIG     1      24.910  22.127  19.609  1.00  0.00    -0.004 A 
HETATM   12  C   LIG     1      24.979  23.058  20.685  1.00  0.00    -0.024 A 
HETATM   13  C   LIG     1      26.160  23.759  20.941  1.00  0.00     0.012 A 
HETATM   14  C   LIG     1      27.277  23.553  20.146  1.00  0.00     0.002 A 
HETATM   15  C   LIG     1      27.235  22.648  19.089  1.00  0.00     0.013 A 
HETATM   16  C   LIG     1      26.056  21.915  18.792  1.00  0.00    -0.013 A 
HETATM   17  C   LIG     1      23.865  23.281  21.500  1.00  0.00     0.012 A 
HETATM   18  C   LIG     1      22.682  22.596  21.265  1.00  0.00     0.002 A 
HETATM   19  C   LIG     1      22.592  21.683  20.218  1.00  0.00     0.013 A 
HETATM   20  C   LIG     1      24.775  20.281  17.472  1.00  0.00    -0.004 A 
ENDROOT
TORSDOF 0
ENDMDL
MODEL 10
REMARK VINA RESULT:      -5.9     31.055     33.115
REMARK  0 active torsions:
REMARK  status: ('A' for Active; 'I' for Inactive)
ROOT
HETATM    1  C   LIG     1      23.619  20.570  18.324  1.00  0.00    -0.013 A 
HETATM    2  C   LIG     1      22.435  19.838  18.052  1.00  0.00     0.013 A 
HETATM    3  C   LIG     1      22.378  18.908  17.018  1.00  0.00     0.002 A 
HETATM    4  C   LIG     1      23.488  18.677  16.220  1.00  0.00     0.012 A 
HETATM    5  C   LIG     1      24.676  19.377  16.451  1.00  0.00    -0.024 A 
HETATM    6  C   LIG     1      25.783  19.126  15.634  1.00  0.00     0.012 A 
HETATM    7  C   LIG     1      26.971  19.808  15.845  1.00  0.00     0.002 A 
HETATM    8  C   LIG     1      27.076  20.746  16.869  1.00  0.00     0.013 A 
HETATM    9  C   LIG     1      25.977  21.032  17.722  1.00  0.00    -0.013 A 
HETATM   10  C   LIG     1      26.060  21.988  18.776  1.00  0.00    -0.013 A 
HETATM   11  C   LIG     1      24.921  22.227  19.595  1.00  0.00    -0.004 A 
HETATM   12  C   LIG     1      25.002  23.182  20.649  1.00  0.00    -0.024 A 
HETATM   13  C   LIG     1      23.896  23.432  21.465  1.00  0.00     0.012 A 
HETATM   14  C   LIG     1      22.707  22.750  21.254  1.00  0.00     0.002 A 
HETATM   15  C   LIG     1      22.603  21.812  20.231  1.00  0.00     0.013 A 
HETATM   16  C   LIG     1      23.701  21.526  19.378  1.00  0.00    -0.013 A 
HETATM   17  C   LIG     1      26.190  23.881  20.879  1.00  0.00     0.012 A 
HETATM   18  C   LIG     1      27.301  23.650  20.082  1.00  0.00     0.002 A 
HETATM   19  C   LIG     1      27.244  22.721  19.047  1.00  0.00     0.013 A 
HETATM   20  C   LIG     1      24.758  20.331  17.505  1.00  0.00    -0.004 A 
ENDROOT
TORSDOF 0
ENDMDL
MODEL 11
REMARK VINA RESULT:      -5.9     31.054     33.326
REMARK  0 active torsions:
REMARK  status: ('A' for Active; 'I' for Inactive)
ROOT
HETATM    1  C   LIG     1      23.699  21.524  19.378  1.00  0.00    -0.013 A 
HETATM    2  C   LIG     1      22.602  21.809  20.232  1.00  0.00     0.013 A 
HETATM    3  C   LIG     1      22.704  22.747  21.254  1.00  0.00     0.002 A 
HETATM    4  C   LIG     1      23.892  23.430  21.465  1.00  0.00     0.012 A 
HETATM    5  C   LIG     1      24.999  23.181  20.649  1.00  0.00    -0.024 A 
HETATM    6  C   LIG     1      26.186  23.882  20.879  1.00  0.00     0.012 A 
HETATM    7  C   LIG     1      27.297  23.651  20.082  1.00  0.00     0.002 A 
HETATM    8  C   LIG     1      27.242  22.723  19.046  1.00  0.00     0.013 A 
HETATM    9  C   LIG     1      26.057  21.989  18.776  1.00  0.00    -0.013 A 
HETATM   10  C   LIG     1      25.977  21.033  17.722  1.00  0.00    -0.013 A 
HETATM   11  C   LIG     1      24.758  20.330  17.504  1.00  0.00    -0.004 A 
HETATM   12  C   LIG     1      24.677  19.375  16.451  1.00  0.00    -0.024 A 
HETATM   13  C   LIG     1      23.490  18.674  16.220  1.00  0.00     0.012 A 
HETATM   14  C   LIG     1      22.379  18.905  17.018  1.00  0.00     0.002 A 
HETATM   15  C   LIG     1      22.434  19.833  18.053  1.00  0.00     0.013 A 
HETATM   16  C   LIG     1      23.619  20.568  18.324  1.00  0.00    -0.013 A 
HETATM   17  C   LIG     1      25.784  19.126  15.634  1.00  0.00     0.012 A 
HETATM   18  C   LIG     1      26.972  19.809  15.845  1.00  0.00     0.002 A 
HETATM   19  C   LIG     1      27.074  20.748  16.868  1.00  0.00     0.013 A 
HETATM   20  C   LIG     1      24.918  22.226  19.595  1.00  0.00    -0.004 A 
ENDROOT
TORSDOF 0
ENDMDL
MODEL 12
REMARK VINA RESULT:      -5.7     30.188     31.713
REMARK  0 active torsions:
REMARK  status: ('A' for Active; 'I' for Inactive)
ROOT
HETATM    1  C   LIG     1      25.007  22.956  20.890  1.00  0.00    -0.013 A 
HETATM    2  C   LIG     1      23.834  22.390  20.327  1.00  0.00     0.013 A 
HETATM    3  C   LIG     1      22.922  21.687  21.109  1.00  0.00     0.002 A 
HETATM    4  C   LIG     1      23.142  21.521  22.468  1.00  0.00     0.012 A 
HETATM    5  C   LIG     1      24.285  22.061  23.065  1.00  0.00    -0.024 A 
HETATM    6  C   LIG     1      24.485  21.882  24.436  1.00  0.00     0.012 A 
HETATM    7  C   LIG     1      25.612  22.409  25.049  1.00  0.00     0.002 A 
HETATM    8  C   LIG     1      26.552  23.120  24.308  1.00  0.00     0.013 A 
HETATM    9  C   LIG     1      26.389  23.326  22.913  1.00  0.00    -0.013 A 
HETATM   10  C   LIG     1      27.337  24.050  22.134  1.00  0.00    -0.013 A 
HETATM   11  C   LIG     1      27.113  24.221  20.739  1.00  0.00    -0.004 A 
HETATM   12  C   LIG     1      28.060  24.945  19.959  1.00  0.00    -0.024 A 
HETATM   13  C   LIG     1      27.860  25.124  18.587  1.00  0.00     0.012 A 
HETATM   14  C   LIG     1      26.733  24.597  17.974  1.00  0.00     0.002 A 
HETATM   15  C   LIG     1      25.793  23.886  18.715  1.00  0.00     0.013 A 
HETATM   16  C   LIG     1      25.956  23.679  20.110  1.00  0.00    -0.013 A 
HETATM   17  C   LIG     1      29.203  25.484  20.556  1.00  0.00     0.012 A 
HETATM   18  C   LIG     1      29.423  25.319  21.915  1.00  0.00     0.002 A 
HETATM   19  C   LIG     1      28.510  24.616  22.696  1.00  0.00     0.013 A 
HETATM   20  C   LIG     1      25.232  22.785  22.285  1.00  0.00    -0.004 A 
ENDROOT
TORSDOF 0
ENDMDL
MODEL 13
REMARK VINA RESULT:      -5.7     31.471     33.738
REMARK  0 active torsions:
REMARK  status: ('A' for Active; 'I' for Inactive)
ROOT
HETATM    1  C   LIG     1      26.016  21.438  17.983  1.00  0.00    -0.013 A 
HETATM    2  C   LIG     1      27.251  22.135  17.923  1.00  0.00     0.013 A 
HETATM    3  C   LIG     1      27.566  23.132  18.841  1.00  0.00     0.002 A 
HETATM    4  C   LIG     1      26.670  23.473  19.843  1.00  0.00     0.012 A 
HETATM    5  C   LIG     1      25.441  22.814  19.940  1.00  0.00    -0.024 A 
HETATM    6  C   LIG     1      24.555  23.173  20.959  1.00  0.00     0.012 A 
HETATM    7  C   LIG     1      23.331  22.532  21.074  1.00  0.00     0.002 A 
HETATM    8  C   LIG     1      22.973  21.527  20.180  1.00  0.00     0.013 A 
HETATM    9  C   LIG     1      23.842  21.130  19.130  1.00  0.00    -0.013 A 
HETATM   10  C   LIG     1      23.497  20.105  18.202  1.00  0.00    -0.013 A 
HETATM   11  C   LIG     1      24.415  19.755  17.172  1.00  0.00    -0.004 A 
HETATM   12  C   LIG     1      24.071  18.729  16.245  1.00  0.00    -0.024 A 
HETATM   13  C   LIG     1      24.958  18.370  15.226  1.00  0.00     0.012 A 
HETATM   14  C   LIG     1      26.182  19.011  15.111  1.00  0.00     0.002 A 
HETATM   15  C   LIG     1      26.540  20.016  16.005  1.00  0.00     0.013 A 
HETATM   16  C   LIG     1      25.671  20.413  17.055  1.00  0.00    -0.013 A 
HETATM   17  C   LIG     1      22.842  18.070  16.342  1.00  0.00     0.012 A 
HETATM   18  C   LIG     1      21.947  18.410  17.344  1.00  0.00     0.002 A 
HETATM   19  C   LIG     1      22.262  19.408  18.262  1.00  0.00     0.013 A 
HETATM   20  C   LIG     1      25.098  21.788  19.013  1.00  0.00    -0.004 A 
ENDROOT
TORSDOF 0
ENDMDL
MODEL 14
REMARK VINA RESULT:      -5.6     30.264     31.298
REMARK  0 active torsions:
REMARK  status: ('A' for Active; 'I' for Inactive)
ROOT
HETATM    1  C   LIG     1      25.867  23.351  20.366  1.00  0.00    -0.013 A 
HETATM    2  C   LIG     1      25.796  23.399  18.950  1.00  0.00     0.013 A 
HETATM    3  C   LIG     1      24.773  22.762  18.253  1.00  0.00     0.002 A 
HETATM    4  C   LIG     1      23.793  22.057  18.935  1.00  0.00     0.012 A 
HETATM    5  C   LIG     1      23.824  21.982  20.330  1.00  0.00    -0.024 A 
HETATM    6  C   LIG     1      22.824  21.267  20.996  1.00  0.00     0.012 A 
HETATM    7  C   LIG     1      22.835  21.179  22.380  1.00  0.00     0.002 A 
HETATM    8  C   LIG     1      23.837  21.801  23.118  1.00  0.00     0.013 A 
HETATM    9  C   LIG     1      24.872  22.539  22.485  1.00  0.00    -0.013 A 
HETATM   10  C   LIG     1      25.909  23.183  23.220  1.00  0.00    -0.013 A 
HETATM   11  C   LIG     1      26.917  23.907  22.522  1.00  0.00    -0.004 A 
HETATM   12  C   LIG     1      27.953  24.552  23.256  1.00  0.00    -0.024 A 
HETATM   13  C   LIG     1      28.952  25.268  22.590  1.00  0.00     0.012 A 
HETATM   14  C   LIG     1      28.941  25.355  21.207  1.00  0.00     0.002 A 
HETATM   15  C   LIG     1      27.939  24.733  20.468  1.00  0.00     0.013 A 
HETATM   16  C   LIG     1      26.905  23.996  21.101  1.00  0.00    -0.013 A 
HETATM   17  C   LIG     1      27.984  24.477  24.651  1.00  0.00     0.012 A 
HETATM   18  C   LIG     1      27.003  23.772  25.333  1.00  0.00     0.002 A 
HETATM   19  C   LIG     1      25.981  23.135  24.636  1.00  0.00     0.013 A 
HETATM   20  C   LIG     1      24.860  22.628  21.064  1.00  0.00    -0.004 A 
ENDROOT
TORSDOF 0
ENDMDL
MODEL 15
REMARK VINA RESULT:      -5.5     30.869     33.046
REMARK  0 active torsions:
REMARK  status: ('A' for Active; 'I' for Inactive)
ROOT
HETATM    1  C   LIG     1      25.518  20.973  18.734  1.00  0.00    -0.013 A 
HETATM    2  C   LIG     1      25.285  19.611  18.414  1.00  0.00     0.013 A 
HETATM    3  C   LIG     1      24.284  18.879  19.046  1.00  0.00     0.002 A 
HETATM    4  C   LIG     1      23.486  19.469  20.014  1.00  0.00     0.012 A 
HETATM    5  C   LIG     1      23.681  20.809  20.363  1.00  0.00    -0.024 A 
HETATM    6  C   LIG     1      22.865  21.383  21.340  1.00  0.00     0.012 A 
HETATM    7  C   LIG     1      23.040  22.710  21.702  1.00  0.00     0.002 A 
HETATM    8  C   LIG     1      24.027  23.482  21.096  1.00  0.00     0.013 A 
HETATM    9  C   LIG     1      24.879  22.941  20.098  1.00  0.00    -0.013 A 
HETATM   10  C   LIG     1      25.897  23.711  19.465  1.00  0.00    -0.013 A 
HETATM   11  C   LIG     1      26.717  23.106  18.471  1.00  0.00    -0.004 A 
HETATM   12  C   LIG     1      27.734  23.876  17.837  1.00  0.00    -0.024 A 
HETATM   13  C   LIG     1      28.551  23.301  16.859  1.00  0.00     0.012 A 
HETATM   14  C   LIG     1      28.375  21.974  16.497  1.00  0.00     0.002 A 
HETATM   15  C   LIG     1      27.388  21.202  17.103  1.00  0.00     0.013 A 
HETATM   16  C   LIG     1      26.536  21.744  18.101  1.00  0.00    -0.013 A 
HETATM   17  C   LIG     1      27.929  25.215  18.186  1.00  0.00     0.012 A 
HETATM   18  C   LIG     1      27.132  25.806  19.154  1.00  0.00     0.002 A 
HETATM   19  C   LIG     1      26.131  25.073  19.786  1.00  0.00     0.013 A 
HETATM   20  C   LIG     1      24.698  21.578  19.728  1.00  0.00    -0.004 A 
ENDROOT
TORSDOF 0
ENDMDL
MODEL 16
REMARK VINA RESULT:      -5.5     30.914     32.780
REMARK  0 active torsions:
REMARK  status: ('A' for Active; 'I' for Inactive)
ROOT
HETATM    1  C   LIG     1      25.932  23.726  19.453  1.00  0.00    -0.013 A 
HETATM    2  C   LIG     1      26.135  25.095  19.762  1.00  0.00     0.013 A 
HETATM    3  C   LIG     1      27.115  25.846  19.119  1.00  0.00     0.002 A 
HETATM    4  C   LIG     1      27.924  25.266  18.154  1.00  0.00     0.012 A 
HETATM    5  C   LIG     1      27.761  23.918  17.819  1.00  0.00    -0.024 A 
HETATM    6  C   LIG     1      28.587  23.355  16.843  1.00  0.00     0.012 A 
HETATM    7  C   LIG     1      28.442  22.021  16.494  1.00  0.00     0.002 A 
HETATM    8  C   LIG     1      27.475  21.231  17.109  1.00  0.00     0.013 A 
HETATM    9  C   LIG     1      26.613  21.762  18.105  1.00  0.00    -0.013 A 
HETATM   10  C   LIG     1      25.616  20.973  18.749  1.00  0.00    -0.013 A 
HETATM   11  C   LIG     1      24.785  21.567  19.740  1.00  0.00    -0.004 A 
HETATM   12  C   LIG     1      23.788  20.780  20.384  1.00  0.00    -0.024 A 
HETATM   13  C   LIG     1      22.962  21.343  21.360  1.00  0.00     0.012 A 
HETATM   14  C   LIG     1      23.106  22.677  21.709  1.00  0.00     0.002 A 
HETATM   15  C   LIG     1      24.074  23.467  21.094  1.00  0.00     0.013 A 
HETATM   16  C   LIG     1      24.935  22.937  20.098  1.00  0.00    -0.013 A 
HETATM   17  C   LIG     1      23.624  19.433  20.048  1.00  0.00     0.012 A 
HETATM   18  C   LIG     1      24.433  18.852  19.083  1.00  0.00     0.002 A 
HETATM   19  C   LIG     1      25.413  19.603  18.440  1.00  0.00     0.013 A 
HETATM   20  C   LIG     1      26.763  23.131  18.463  1.00  0.00    -0.004 A 
ENDROOT
TORSDOF 0
ENDMDL
MODEL 17
REMARK VINA RESULT:      -5.5     29.857     31.386
REMARK  0 active torsions:
REMARK  status: ('A' for Active; 'I' for Inactive)
ROOT
HETATM    1  C   LIG     1      27.130  23.896  22.084  1.00  0.00    -0.013 A 
HETATM    2  C   LIG     1      28.367  24.581  21.965  1.00  0.00     0.013 A 
HETATM    3  C   LIG     1      29.075  25.000  23.088  1.00  0.00     0.002 A 
HETATM    4  C   LIG     1      28.582  24.756  24.361  1.00  0.00     0.012 A 
HETATM    5  C   LIG     1      27.366  24.085  24.525  1.00  0.00    -0.024 A 
HETATM    6  C   LIG     1      26.889  23.850  25.817  1.00  0.00     0.012 A 
HETATM    7  C   LIG     1      25.685  23.186  26.004  1.00  0.00     0.002 A 
HETATM    8  C   LIG     1      24.944  22.748  24.912  1.00  0.00     0.013 A 
HETATM    9  C   LIG     1      25.390  22.965  23.581  1.00  0.00    -0.013 A 
HETATM   10  C   LIG     1      24.648  22.526  22.447  1.00  0.00    -0.013 A 
HETATM   11  C   LIG     1      25.153  22.776  21.140  1.00  0.00    -0.004 A 
HETATM   12  C   LIG     1      24.412  22.338  20.005  1.00  0.00    -0.024 A 
HETATM   13  C   LIG     1      24.889  22.573  18.713  1.00  0.00     0.012 A 
HETATM   14  C   LIG     1      26.093  23.237  18.526  1.00  0.00     0.002 A 
HETATM   15  C   LIG     1      26.835  23.675  19.619  1.00  0.00     0.013 A 
HETATM   16  C   LIG     1      26.388  23.458  20.949  1.00  0.00    -0.013 A 
HETATM   17  C   LIG     1      23.196  21.667  20.170  1.00  0.00     0.012 A 
HETATM   18  C   LIG     1      22.703  21.423  21.442  1.00  0.00     0.002 A 
HETATM   19  C   LIG     1      23.411  21.842  22.565  1.00  0.00     0.013 A 
HETATM   20  C   LIG     1      26.625  23.646  23.391  1.00  0.00    -0.004 A 
ENDROOT
TORSDOF 0
ENDMDL
MODEL 18
REMARK VINA RESULT:      -5.5     29.224     30.380
REMARK  0 active torsions:
REMARK  status: ('A' for Active; 'I' for Inactive)
ROOT
HETATM    1  C   LIG     1      26.075  23.556  26.873  1.00  0.00    -0.013 A 
HETATM    2  C   LIG     1      26.262  23.931  28.228  1.00  0.00     0.013 A 
HETATM    3  C   LIG     1      27.253  24.835  28.601  1.00  0.00     0.002 A 
HETATM    4  C   LIG     1      28.089  25.393  27.646  1.00  0.00     0.012 A 
HETATM    5  C   LIG     1      27.942  25.052  26.299  1.00  0.00    -0.024 A 
HETATM    6  C   LIG     1      28.796  25.628  25.354  1.00  0.00     0.012 A 
HETATM    7  C   LIG     1      28.668  25.305  24.012  1.00  0.00     0.002 A 
HETATM    8  C   LIG     1      27.691  24.407  23.592  1.00  0.00     0.013 A 
HETATM    9  C   LIG     1      26.802  23.798  24.516  1.00  0.00    -0.013 A 
HETATM   10  C   LIG     1      25.794  22.875  24.110  1.00  0.00    -0.013 A 
HETATM   11  C   LIG     1      24.936  22.301  25.089  1.00  0.00    -0.004 A 
HETATM   12  C   LIG     1      23.928  21.379  24.684  1.00  0.00    -0.024 A 
HETATM   13  C   LIG     1      23.074  20.803  25.629  1.00  0.00     0.012 A 
HETATM   14  C   LIG     1      23.202  21.127  26.971  1.00  0.00     0.002 A 
HETATM   15  C   LIG     1      24.179  22.025  27.391  1.00  0.00     0.013 A 
HETATM   16  C   LIG     1      25.068  22.633  26.467  1.00  0.00    -0.013 A 
HETATM   17  C   LIG     1      23.781  21.038  23.337  1.00  0.00     0.012 A 
HETATM   18  C   LIG     1      24.617  21.597  22.382  1.00  0.00     0.002 A 
HETATM   19  C   LIG     1      25.608  22.500  22.755  1.00  0.00     0.013 A 
HETATM   20  C   LIG     1      26.934  24.131  25.894  1.00  0.00    -0.004 A 
ENDROOT
TORSDOF 0
ENDMDL
MODEL 19
REMARK VINA RESULT:      -5.5     29.861     31.530
REMARK  0 active torsions:
REMARK  status: ('A' for Active; 'I' for Inactive)
ROOT
HETATM    1  C   LIG     1      25.141  22.808  23.146  1.00  0.00    -0.013 A 
HETATM    2  C   LIG     1      24.498  22.400  24.343  1.00  0.00     0.013 A 
HETATM    3  C   LIG     1      25.057  22.661  25.591  1.00  0.00     0.002 A 
HETATM    4  C   LIG     1      26.266  23.332  25.692  1.00  0.00     0.012 A 
HETATM    5  C   LIG     1      26.935  23.752  24.539  1.00  0.00    -0.024 A 
HETATM    6  C   LIG     1      28.152  24.427  24.666  1.00  0.00     0.012 A 
HETATM    7  C   LIG     1      28.832  24.853  23.535  1.00  0.00     0.002 A 
HETATM    8  C   LIG     1      28.312  24.615  22.266  1.00  0.00     0.013 A 
HETATM    9  C   LIG     1      27.079  23.933  22.090  1.00  0.00    -0.013 A 
HETATM   10  C   LIG     1      26.527  23.677  20.801  1.00  0.00    -0.013 A 
HETATM   11  C   LIG     1      25.286  22.988  20.696  1.00  0.00    -0.004 A 
HETATM   12  C   LIG     1      24.733  22.733  19.408  1.00  0.00    -0.024 A 
HETATM   13  C   LIG     1      23.516  22.058  19.281  1.00  0.00     0.012 A 
HETATM   14  C   LIG     1      22.835  21.632  20.412  1.00  0.00     0.002 A 
HETATM   15  C   LIG     1      23.356  21.870  21.681  1.00  0.00     0.013 A 
HETATM   16  C   LIG     1      24.588  22.551  21.857  1.00  0.00    -0.013 A 
HETATM   17  C   LIG     1      25.402  23.152  18.255  1.00  0.00     0.012 A 
HETATM   18  C   LIG     1      26.611  23.823  18.356  1.00  0.00     0.002 A 
HETATM   19  C   LIG     1      27.169  24.085  19.604  1.00  0.00     0.013 A 
HETATM   20  C   LIG     1      26.382  23.496  23.251  1.00  0.00    -0.004 A 
ENDROOT
TORSDOF 0
ENDMDL
MODEL 20
REMARK VINA RESULT:      -5.5     30.263     31.308
REMARK  0 active torsions:
REMARK  status: ('A' for Active; 'I' for Inactive)
ROOT
HETATM    1  C   LIG     1      27.056  24.299  20.724  1.00  0.00    -0.013 A 
HETATM    2  C   LIG     1      27.868  25.024  19.814  1.00  0.00     0.013 A 
HETATM    3  C   LIG     1      27.622  25.000  18.445  1.00  0.00     0.002 A 
HETATM    4  C   LIG     1      26.568  24.259  17.933  1.00  0.00     0.012 A 
HETATM    5  C   LIG     1      25.742  23.528  18.793  1.00  0.00    -0.024 A 
HETATM    6  C   LIG     1      24.685  22.789  18.254  1.00  0.00     0.012 A 
HETATM    7  C   LIG     1      23.852  22.058  19.088  1.00  0.00     0.002 A 
HETATM    8  C   LIG     1      24.059  22.052  20.464  1.00  0.00     0.013 A 
HETATM    9  C   LIG     1      25.120  22.788  21.054  1.00  0.00    -0.013 A 
HETATM   10  C   LIG     1      25.352  22.797  22.460  1.00  0.00    -0.013 A 
HETATM   11  C   LIG     1      26.434  23.557  22.987  1.00  0.00    -0.004 A 
HETATM   12  C   LIG     1      26.666  23.568  24.392  1.00  0.00    -0.024 A 
HETATM   13  C   LIG     1      27.723  24.307  24.930  1.00  0.00     0.012 A 
HETATM   14  C   LIG     1      28.556  25.039  24.096  1.00  0.00     0.002 A 
HETATM   15  C   LIG     1      28.349  25.044  22.720  1.00  0.00     0.013 A 
HETATM   16  C   LIG     1      27.288  24.308  22.130  1.00  0.00    -0.013 A 
HETATM   17  C   LIG     1      25.840  22.837  25.251  1.00  0.00     0.012 A 
HETATM   18  C   LIG     1      24.786  22.096  24.740  1.00  0.00     0.002 A 
HETATM   19  C   LIG     1      24.540  22.073  23.370  1.00  0.00     0.013 A 
HETATM   20  C   LIG     1      25.974  23.539  20.198  1.00  0.00    -0.004 A 
ENDROOT
TORSDOF 0
ENDMDL
