REMARK  2 active torsions:
REMARK  status: ('A' for Active; 'I' for Inactive)
REMARK       I    between atoms: C_2  and  N_10 
REMARK       I    between atoms: C_2  and  N_3 
REMARK    1  A    between atoms: N_3  and  C_4 
REMARK    2  A    between atoms: N_10  and  C_11 
ROOT
HETATM    1  O   LIG     1      -0.254   1.663   1.587  1.00  0.00    -0.247 OA
HETATM    2  C   LIG     1       0.556   1.191   0.746  1.00  0.00     0.321 C 
HETATM    3  N   LIG     1       1.931   1.597   0.805  1.00  0.00    -0.309 N 
HETATM    4  N   LIG     1       0.098   0.305  -0.291  1.00  0.00    -0.338 N 
HETATM    5  H   LIG     1       2.144   2.528   1.230  1.00  0.00     0.170 HD
HETATM    6  H   LIG     1       0.746   0.100  -1.085  1.00  0.00     0.164 HD
ENDROOT
BRANCH   4   7
HETATM    7  C   LIG     1      -1.218  -0.351  -0.319  1.00  0.00     0.089 C 
HETATM    8  C   LIG     1      -1.416  -1.231   0.930  1.00  0.00     0.026 C 
HETATM    9  C   LIG     1      -2.772  -1.944   0.886  1.00  0.00     0.002 C 
HETATM   10  C   LIG     1      -3.917  -0.935   0.741  1.00  0.00     0.001 C 
HETATM   11  C   LIG     1      -3.731  -0.067  -0.510  1.00  0.00     0.006 C 
HETATM   12  C   LIG     1      -2.376   0.669  -0.483  1.00  0.00     0.004 C 
HETATM   13  C   LIG     1      -2.206   1.502  -1.762  1.00  0.00     0.012 C 
ENDBRANCH   4   7
BRANCH   3  14
HETATM   14  C   LIG     1       3.027   0.801   0.325  1.00  0.00     0.036 A 
HETATM   15  C   LIG     1       4.189   1.437  -0.141  1.00  0.00     0.029 A 
HETATM   16  C   LIG     1       5.277   0.681  -0.589  1.00  0.00     0.002 A 
HETATM   17  C   LIG     1       5.219  -0.715  -0.561  1.00  0.00     0.000 A 
HETATM   18  C   LIG     1       4.077  -1.357  -0.078  1.00  0.00     0.002 A 
HETATM   19  C   LIG     1       2.986  -0.605   0.371  1.00  0.00     0.029 A 
ENDBRANCH   3  14
TORSDOF 2
