MODEL 1
REMARK VINA RESULT:      -8.2      0.000      0.000
REMARK  3 active torsions:
REMARK  status: ('A' for Active; 'I' for Inactive)
REMARK       I    between atoms: C_2  and  N_6 
REMARK       I    between atoms: C_2  and  N_3 
REMARK    1  A    between atoms: N_6  and  C_7 
REMARK    2  A    between atoms: C_10  and  O_11 
REMARK    3  A    between atoms: O_11  and  C_12 
ROOT
HETATM    1  C   LIG     1      14.719  32.609  17.782  1.00  0.00     0.036 A 
HETATM    2  C   LIG     1      14.912  31.903  18.983  1.00  0.00     0.032 A 
HETATM    3  C   LIG     1      15.377  32.564  20.123  1.00  0.00     0.039 A 
HETATM    4  C   LIG     1      15.630  33.940  20.093  1.00  0.00     0.076 A 
HETATM    5  C   LIG     1      15.438  34.648  18.894  1.00  0.00     0.039 A 
HETATM    6  C   LIG     1      14.972  33.989  17.753  1.00  0.00     0.032 A 
ENDROOT
BRANCH   4   7
HETATM    7  O   LIG     1      16.112  34.562  21.254  1.00  0.00    -0.311 OA
BRANCH   7   8
HETATM    8  C   LIG     1      16.714  35.828  21.309  1.00  0.00     0.076 A 
HETATM    9  C   LIG     1      17.775  36.107  20.439  1.00  0.00     0.039 A 
HETATM   10  C   LIG     1      18.410  37.351  20.474  1.00  0.00     0.026 A 
HETATM   11  C   LIG     1      17.995  38.325  21.389  1.00  0.00     0.034 A 
HETATM   12  C   LIG     1      16.949  38.048  22.275  1.00  0.00     0.026 A 
HETATM   13 CL   LIG     1      18.793  39.886  21.433  1.00  0.00    -0.084 Cl
HETATM   14  C   LIG     1      16.313  36.803  22.241  1.00  0.00     0.039 A 
ENDBRANCH   7   8
ENDBRANCH   4   7
BRANCH   1  15
HETATM   15  N   LIG     1      14.217  31.958  16.601  1.00  0.00    -0.309 N 
HETATM   16  C   LIG     1      15.053  31.524  15.512  1.00  0.00     0.322 C 
HETATM   17  O   LIG     1      16.209  32.015  15.382  1.00  0.00    -0.247 OA
HETATM   18  N   LIG     1      14.576  30.561  14.549  1.00  0.00    -0.343 N 
HETATM   19  C   LIG     1      15.425  30.214  13.404  1.00  0.00     0.154 C 
HETATM   20  C   LIG     1      13.279  29.904  14.731  1.00  0.00     0.154 C 
HETATM   21  H   LIG     1      13.181  31.890  16.491  1.00  0.00     0.170 HD
ENDBRANCH   1  15
TORSDOF 3
ENDMDL
MODEL 2
REMARK VINA RESULT:      -7.5      1.047      2.002
REMARK  3 active torsions:
REMARK  status: ('A' for Active; 'I' for Inactive)
REMARK       I    between atoms: C_2  and  N_6 
REMARK       I    between atoms: C_2  and  N_3 
REMARK    1  A    between atoms: N_6  and  C_7 
REMARK    2  A    between atoms: C_10  and  O_11 
REMARK    3  A    between atoms: O_11  and  C_12 
ROOT
HETATM    1  C   LIG     1      15.195  32.446  17.763  1.00  0.00     0.036 A 
HETATM    2  C   LIG     1      15.204  33.847  17.646  1.00  0.00     0.032 A 
HETATM    3  C   LIG     1      15.237  34.650  18.790  1.00  0.00     0.039 A 
HETATM    4  C   LIG     1      15.288  34.071  20.063  1.00  0.00     0.076 A 
HETATM    5  C   LIG     1      15.279  32.671  20.182  1.00  0.00     0.039 A 
HETATM    6  C   LIG     1      15.247  31.867  19.040  1.00  0.00     0.032 A 
ENDROOT
BRANCH   4   7
HETATM    7  O   LIG     1      15.303  34.913  21.185  1.00  0.00    -0.311 OA
BRANCH   7   8
HETATM    8  C   LIG     1      16.147  36.019  21.362  1.00  0.00     0.076 A 
HETATM    9  C   LIG     1      15.736  37.048  22.219  1.00  0.00     0.039 A 
HETATM   10  C   LIG     1      16.543  38.174  22.409  1.00  0.00     0.026 A 
HETATM   11  C   LIG     1      17.763  38.284  21.734  1.00  0.00     0.034 A 
HETATM   12  C   LIG     1      18.172  37.270  20.861  1.00  0.00     0.026 A 
HETATM   13 CL   LIG     1      18.774  39.697  21.972  1.00  0.00    -0.084 Cl
HETATM   14  C   LIG     1      17.365  36.144  20.670  1.00  0.00     0.039 A 
ENDBRANCH   7   8
ENDBRANCH   4   7
BRANCH   1  15
HETATM   15  N   LIG     1      15.187  31.596  16.601  1.00  0.00    -0.309 N 
HETATM   16  C   LIG     1      14.028  30.871  16.150  1.00  0.00     0.322 C 
HETATM   17  O   LIG     1      13.074  30.664  16.950  1.00  0.00    -0.247 OA
HETATM   18  N   LIG     1      13.956  30.351  14.806  1.00  0.00    -0.343 N 
HETATM   19  C   LIG     1      12.798  29.541  14.414  1.00  0.00     0.154 C 
HETATM   20  C   LIG     1      15.004  30.659  13.829  1.00  0.00     0.154 C 
HETATM   21  H   LIG     1      16.100  31.423  16.124  1.00  0.00     0.170 HD
ENDBRANCH   1  15
TORSDOF 3
ENDMDL
MODEL 3
REMARK VINA RESULT:      -7.4      4.499      8.288
REMARK  3 active torsions:
REMARK  status: ('A' for Active; 'I' for Inactive)
REMARK       I    between atoms: C_2  and  N_6 
REMARK       I    between atoms: C_2  and  N_3 
REMARK    1  A    between atoms: N_6  and  C_7 
REMARK    2  A    between atoms: C_10  and  O_11 
REMARK    3  A    between atoms: O_11  and  C_12 
ROOT
HETATM    1  C   LIG     1      16.667  34.988  21.609  1.00  0.00     0.036 A 
HETATM    2  C   LIG     1      15.672  34.054  21.274  1.00  0.00     0.032 A 
HETATM    3  C   LIG     1      15.202  33.963  19.960  1.00  0.00     0.039 A 
HETATM    4  C   LIG     1      15.735  34.780  18.957  1.00  0.00     0.076 A 
HETATM    5  C   LIG     1      16.730  35.715  19.289  1.00  0.00     0.039 A 
HETATM    6  C   LIG     1      17.201  35.807  20.602  1.00  0.00     0.032 A 
ENDROOT
BRANCH   4   7
HETATM    7  O   LIG     1      15.224  34.669  17.656  1.00  0.00    -0.311 OA
BRANCH   7   8
HETATM    8  C   LIG     1      15.097  33.476  16.931  1.00  0.00     0.076 A 
HETATM    9  C   LIG     1      16.026  33.199  15.919  1.00  0.00     0.039 A 
HETATM   10  C   LIG     1      15.923  32.027  15.165  1.00  0.00     0.026 A 
HETATM   11  C   LIG     1      14.882  31.126  15.408  1.00  0.00     0.034 A 
HETATM   12  C   LIG     1      13.937  31.403  16.403  1.00  0.00     0.026 A 
HETATM   13 CL   LIG     1      14.752  29.656  14.460  1.00  0.00    -0.084 Cl
HETATM   14  C   LIG     1      14.039  32.576  17.158  1.00  0.00     0.039 A 
ENDBRANCH   7   8
ENDBRANCH   4   7
BRANCH   1  15
HETATM   15  N   LIG     1      17.186  35.085  22.947  1.00  0.00    -0.309 N 
HETATM   16  C   LIG     1      17.186  36.302  23.717  1.00  0.00     0.322 C 
HETATM   17  O   LIG     1      17.064  37.411  23.128  1.00  0.00    -0.247 OA
HETATM   18  N   LIG     1      17.357  36.272  25.150  1.00  0.00    -0.343 N 
HETATM   19  C   LIG     1      17.442  37.538  25.886  1.00  0.00     0.154 C 
HETATM   20  C   LIG     1      17.404  34.996  25.870  1.00  0.00     0.154 C 
HETATM   21  H   LIG     1      17.676  34.249  23.336  1.00  0.00     0.170 HD
ENDBRANCH   1  15
TORSDOF 3
ENDMDL
MODEL 4
REMARK VINA RESULT:      -7.1      4.689      8.547
REMARK  3 active torsions:
REMARK  status: ('A' for Active; 'I' for Inactive)
REMARK       I    between atoms: C_2  and  N_6 
REMARK       I    between atoms: C_2  and  N_3 
REMARK    1  A    between atoms: N_6  and  C_7 
REMARK    2  A    between atoms: C_10  and  O_11 
REMARK    3  A    between atoms: O_11  and  C_12 
ROOT
HETATM    1  C   LIG     1      16.409  36.453  22.299  1.00  0.00     0.036 A 
HETATM    2  C   LIG     1      17.473  36.521  21.383  1.00  0.00     0.032 A 
HETATM    3  C   LIG     1      17.315  36.041  20.080  1.00  0.00     0.039 A 
HETATM    4  C   LIG     1      16.089  35.512  19.662  1.00  0.00     0.076 A 
HETATM    5  C   LIG     1      15.023  35.442  20.576  1.00  0.00     0.039 A 
HETATM    6  C   LIG     1      15.180  35.923  21.880  1.00  0.00     0.032 A 
ENDROOT
BRANCH   4   7
HETATM    7  O   LIG     1      15.976  35.025  18.352  1.00  0.00    -0.311 OA
BRANCH   7   8
HETATM    8  C   LIG     1      15.321  33.844  17.976  1.00  0.00     0.076 A 
HETATM    9  C   LIG     1      14.789  33.750  16.684  1.00  0.00     0.039 A 
HETATM   10  C   LIG     1      14.116  32.594  16.278  1.00  0.00     0.026 A 
HETATM   11  C   LIG     1      13.958  31.526  17.166  1.00  0.00     0.034 A 
HETATM   12  C   LIG     1      14.469  31.618  18.466  1.00  0.00     0.026 A 
HETATM   13 CL   LIG     1      13.112  30.077  16.657  1.00  0.00    -0.084 Cl
HETATM   14  C   LIG     1      15.142  32.774  18.873  1.00  0.00     0.039 A 
ENDBRANCH   7   8
ENDBRANCH   4   7
BRANCH   1  15
HETATM   15  N   LIG     1      16.539  36.963  23.639  1.00  0.00    -0.309 N 
HETATM   16  C   LIG     1      17.198  36.253  24.703  1.00  0.00     0.322 C 
HETATM   17  O   LIG     1      17.375  35.007  24.604  1.00  0.00    -0.247 OA
HETATM   18  N   LIG     1      17.631  36.941  25.896  1.00  0.00    -0.343 N 
HETATM   19  C   LIG     1      18.218  36.166  26.995  1.00  0.00     0.154 C 
HETATM   20  C   LIG     1      17.526  38.399  25.996  1.00  0.00     0.154 C 
HETATM   21  H   LIG     1      16.037  37.850  23.867  1.00  0.00     0.170 HD
ENDBRANCH   1  15
TORSDOF 3
ENDMDL
MODEL 5
REMARK VINA RESULT:      -7.1      2.323      3.078
REMARK  3 active torsions:
REMARK  status: ('A' for Active; 'I' for Inactive)
REMARK       I    between atoms: C_2  and  N_6 
REMARK       I    between atoms: C_2  and  N_3 
REMARK    1  A    between atoms: N_6  and  C_7 
REMARK    2  A    between atoms: C_10  and  O_11 
REMARK    3  A    between atoms: O_11  and  C_12 
ROOT
HETATM    1  C   LIG     1      15.435  33.225  18.701  1.00  0.00     0.036 A 
HETATM    2  C   LIG     1      15.731  34.565  18.397  1.00  0.00     0.032 A 
HETATM    3  C   LIG     1      15.717  35.537  19.403  1.00  0.00     0.039 A 
HETATM    4  C   LIG     1      15.435  35.184  20.727  1.00  0.00     0.076 A 
HETATM    5  C   LIG     1      15.139  33.845  21.034  1.00  0.00     0.039 A 
HETATM    6  C   LIG     1      15.154  32.872  20.030  1.00  0.00     0.032 A 
ENDROOT
BRANCH   4   7
HETATM    7  O   LIG     1      15.414  36.191  21.703  1.00  0.00    -0.311 OA
BRANCH   7   8
HETATM    8  C   LIG     1      16.157  36.187  22.893  1.00  0.00     0.076 A 
HETATM    9  C   LIG     1      16.367  37.401  23.560  1.00  0.00     0.039 A 
HETATM   10  C   LIG     1      17.114  37.439  24.741  1.00  0.00     0.026 A 
HETATM   11  C   LIG     1      17.668  36.263  25.258  1.00  0.00     0.034 A 
HETATM   12  C   LIG     1      17.479  35.049  24.588  1.00  0.00     0.026 A 
HETATM   13 CL   LIG     1      18.606  36.312  26.739  1.00  0.00    -0.084 Cl
HETATM   14  C   LIG     1      16.732  35.010  23.407  1.00  0.00     0.039 A 
ENDBRANCH   7   8
ENDBRANCH   4   7
BRANCH   1  15
HETATM   15  N   LIG     1      15.467  32.202  17.690  1.00  0.00    -0.309 N 
HETATM   16  C   LIG     1      14.289  31.662  17.063  1.00  0.00     0.322 C 
HETATM   17  O   LIG     1      13.167  31.801  17.623  1.00  0.00    -0.247 OA
HETATM   18  N   LIG     1      14.379  30.936  15.819  1.00  0.00    -0.343 N 
HETATM   19  C   LIG     1      13.169  30.324  15.259  1.00  0.00     0.154 C 
HETATM   20  C   LIG     1      15.652  30.842  15.099  1.00  0.00     0.154 C 
HETATM   21  H   LIG     1      16.391  31.762  17.478  1.00  0.00     0.170 HD
ENDBRANCH   1  15
TORSDOF 3
ENDMDL
MODEL 6
REMARK VINA RESULT:      -7.0      4.183      8.442
REMARK  3 active torsions:
REMARK  status: ('A' for Active; 'I' for Inactive)
REMARK       I    between atoms: C_2  and  N_6 
REMARK       I    between atoms: C_2  and  N_3 
REMARK    1  A    between atoms: N_6  and  C_7 
REMARK    2  A    between atoms: C_10  and  O_11 
REMARK    3  A    between atoms: O_11  and  C_12 
ROOT
HETATM    1  C   LIG     1      15.479  33.629  19.345  1.00  0.00     0.036 A 
HETATM    2  C   LIG     1      15.060  32.290  19.421  1.00  0.00     0.032 A 
HETATM    3  C   LIG     1      14.387  31.699  18.347  1.00  0.00     0.039 A 
HETATM    4  C   LIG     1      14.147  32.423  17.174  1.00  0.00     0.076 A 
HETATM    5  C   LIG     1      14.566  33.762  17.096  1.00  0.00     0.039 A 
HETATM    6  C   LIG     1      15.239  34.355  18.168  1.00  0.00     0.032 A 
ENDROOT
BRANCH   4   7
HETATM    7  O   LIG     1      13.454  31.799  16.127  1.00  0.00    -0.311 OA
BRANCH   7   8
HETATM    8  C   LIG     1      13.960  30.772  15.315  1.00  0.00     0.076 A 
HETATM    9  C   LIG     1      13.127  29.689  15.004  1.00  0.00     0.039 A 
HETATM   10  C   LIG     1      13.600  28.640  14.210  1.00  0.00     0.026 A 
HETATM   11  C   LIG     1      14.913  28.659  13.731  1.00  0.00     0.034 A 
HETATM   12  C   LIG     1      15.758  29.727  14.054  1.00  0.00     0.026 A 
HETATM   13 CL   LIG     1      15.506  27.341  12.737  1.00  0.00    -0.084 Cl
HETATM   14  C   LIG     1      15.287  30.777  14.848  1.00  0.00     0.039 A 
ENDBRANCH   7   8
ENDBRANCH   4   7
BRANCH   1  15
HETATM   15  N   LIG     1      16.195  34.254  20.426  1.00  0.00    -0.309 N 
HETATM   16  C   LIG     1      16.840  35.537  20.321  1.00  0.00     0.322 C 
HETATM   17  O   LIG     1      17.113  36.004  19.181  1.00  0.00    -0.247 OA
HETATM   18  N   LIG     1      17.207  36.281  21.502  1.00  0.00    -0.343 N 
HETATM   19  C   LIG     1      17.942  37.541  21.354  1.00  0.00     0.154 C 
HETATM   20  C   LIG     1      16.815  35.809  22.833  1.00  0.00     0.154 C 
HETATM   21  H   LIG     1      16.334  33.696  21.298  1.00  0.00     0.170 HD
ENDBRANCH   1  15
TORSDOF 3
ENDMDL
MODEL 7
REMARK VINA RESULT:      -7.0      1.940      2.368
REMARK  3 active torsions:
REMARK  status: ('A' for Active; 'I' for Inactive)
REMARK       I    between atoms: C_2  and  N_6 
REMARK       I    between atoms: C_2  and  N_3 
REMARK    1  A    between atoms: N_6  and  C_7 
REMARK    2  A    between atoms: C_10  and  O_11 
REMARK    3  A    between atoms: O_11  and  C_12 
ROOT
HETATM    1  C   LIG     1      15.285  33.140  17.365  1.00  0.00     0.036 A 
HETATM    2  C   LIG     1      15.343  34.464  17.834  1.00  0.00     0.032 A 
HETATM    3  C   LIG     1      15.310  34.729  19.206  1.00  0.00     0.039 A 
HETATM    4  C   LIG     1      15.246  33.680  20.130  1.00  0.00     0.076 A 
HETATM    5  C   LIG     1      15.187  32.356  19.664  1.00  0.00     0.039 A 
HETATM    6  C   LIG     1      15.221  32.089  18.292  1.00  0.00     0.032 A 
ENDROOT
BRANCH   4   7
HETATM    7  O   LIG     1      15.197  33.989  21.498  1.00  0.00    -0.311 OA
BRANCH   7   8
HETATM    8  C   LIG     1      15.728  35.144  22.090  1.00  0.00     0.076 A 
HETATM    9  C   LIG     1      16.862  35.023  22.904  1.00  0.00     0.039 A 
HETATM   10  C   LIG     1      17.412  36.149  23.524  1.00  0.00     0.026 A 
HETATM   11  C   LIG     1      16.824  37.405  23.344  1.00  0.00     0.034 A 
HETATM   12  C   LIG     1      15.679  37.533  22.549  1.00  0.00     0.026 A 
HETATM   13 CL   LIG     1      17.512  38.818  24.123  1.00  0.00    -0.084 Cl
HETATM   14  C   LIG     1      15.129  36.407  21.929  1.00  0.00     0.039 A 
ENDBRANCH   7   8
ENDBRANCH   4   7
BRANCH   1  15
HETATM   15  N   LIG     1      15.342  32.839  15.959  1.00  0.00    -0.309 N 
HETATM   16  C   LIG     1      16.453  33.186  15.112  1.00  0.00     0.322 C 
HETATM   17  O   LIG     1      17.262  34.080  15.483  1.00  0.00    -0.247 OA
HETATM   18  N   LIG     1      16.636  32.546  13.831  1.00  0.00    -0.343 N 
HETATM   19  C   LIG     1      17.729  32.992  12.960  1.00  0.00     0.154 C 
HETATM   20  C   LIG     1      15.770  31.438  13.419  1.00  0.00     0.154 C 
HETATM   21  H   LIG     1      14.485  32.437  15.517  1.00  0.00     0.170 HD
ENDBRANCH   1  15
TORSDOF 3
ENDMDL
MODEL 8
REMARK VINA RESULT:      -6.2      2.140      3.206
REMARK  3 active torsions:
REMARK  status: ('A' for Active; 'I' for Inactive)
REMARK       I    between atoms: C_2  and  N_6 
REMARK       I    between atoms: C_2  and  N_3 
REMARK    1  A    between atoms: N_6  and  C_7 
REMARK    2  A    between atoms: C_10  and  O_11 
REMARK    3  A    between atoms: O_11  and  C_12 
ROOT
HETATM    1  C   LIG     1      14.458  31.451  15.553  1.00  0.00     0.036 A 
HETATM    2  C   LIG     1      15.587  32.211  15.197  1.00  0.00     0.032 A 
HETATM    3  C   LIG     1      15.952  33.328  15.953  1.00  0.00     0.039 A 
HETATM    4  C   LIG     1      15.218  33.689  17.087  1.00  0.00     0.076 A 
HETATM    5  C   LIG     1      14.090  32.932  17.445  1.00  0.00     0.039 A 
HETATM    6  C   LIG     1      13.723  31.814  16.691  1.00  0.00     0.032 A 
ENDROOT
BRANCH   4   7
HETATM    7  O   LIG     1      15.609  34.827  17.809  1.00  0.00    -0.311 OA
BRANCH   7   8
HETATM    8  C   LIG     1      15.915  34.858  19.177  1.00  0.00     0.076 A 
HETATM    9  C   LIG     1      16.831  35.810  19.641  1.00  0.00     0.039 A 
HETATM   10  C   LIG     1      17.173  35.862  20.995  1.00  0.00     0.026 A 
HETATM   11  C   LIG     1      16.610  34.953  21.896  1.00  0.00     0.034 A 
HETATM   12  C   LIG     1      15.708  33.985  21.438  1.00  0.00     0.026 A 
HETATM   13 CL   LIG     1      17.040  35.017  23.595  1.00  0.00    -0.084 Cl
HETATM   14  C   LIG     1      15.365  33.932  20.084  1.00  0.00     0.039 A 
ENDBRANCH   7   8
ENDBRANCH   4   7
BRANCH   1  15
HETATM   15  N   LIG     1      14.074  30.283  14.806  1.00  0.00    -0.309 N 
HETATM   16  C   LIG     1      15.010  29.424  14.129  1.00  0.00     0.322 C 
HETATM   17  O   LIG     1      16.165  29.854  13.858  1.00  0.00    -0.247 OA
HETATM   18  N   LIG     1      14.635  28.090  13.726  1.00  0.00    -0.343 N 
HETATM   19  C   LIG     1      15.587  27.280  12.959  1.00  0.00     0.154 C 
HETATM   20  C   LIG     1      13.336  27.531  14.112  1.00  0.00     0.154 C 
HETATM   21  H   LIG     1      13.053  30.112  14.671  1.00  0.00     0.170 HD
ENDBRANCH   1  15
TORSDOF 3
ENDMDL
MODEL 9
REMARK VINA RESULT:      -6.2      3.360      5.678
REMARK  3 active torsions:
REMARK  status: ('A' for Active; 'I' for Inactive)
REMARK       I    between atoms: C_2  and  N_6 
REMARK       I    between atoms: C_2  and  N_3 
REMARK    1  A    between atoms: N_6  and  C_7 
REMARK    2  A    between atoms: C_10  and  O_11 
REMARK    3  A    between atoms: O_11  and  C_12 
ROOT
HETATM    1  C   LIG     1      14.384  29.078  13.914  1.00  0.00     0.036 A 
HETATM    2  C   LIG     1      15.472  29.887  13.541  1.00  0.00     0.032 A 
HETATM    3  C   LIG     1      15.666  31.132  14.147  1.00  0.00     0.039 A 
HETATM    4  C   LIG     1      14.798  31.576  15.150  1.00  0.00     0.076 A 
HETATM    5  C   LIG     1      13.710  30.770  15.525  1.00  0.00     0.039 A 
HETATM    6  C   LIG     1      13.515  29.525  14.921  1.00  0.00     0.032 A 
ENDROOT
BRANCH   4   7
HETATM    7  O   LIG     1      15.018  32.839  15.720  1.00  0.00    -0.311 OA
BRANCH   7   8
HETATM    8  C   LIG     1      15.122  33.104  17.093  1.00  0.00     0.076 A 
HETATM    9  C   LIG     1      15.272  34.432  17.513  1.00  0.00     0.039 A 
HETATM   10  C   LIG     1      15.394  34.735  18.872  1.00  0.00     0.026 A 
HETATM   11  C   LIG     1      15.379  33.710  19.823  1.00  0.00     0.034 A 
HETATM   12  C   LIG     1      15.249  32.379  19.412  1.00  0.00     0.026 A 
HETATM   13 CL   LIG     1      15.533  34.091  21.528  1.00  0.00    -0.084 Cl
HETATM   14  C   LIG     1      15.127  32.075  18.052  1.00  0.00     0.039 A 
ENDBRANCH   7   8
ENDBRANCH   4   7
BRANCH   1  15
HETATM   15  N   LIG     1      14.175  27.782  13.324  1.00  0.00    -0.309 N 
HETATM   16  C   LIG     1      12.875  27.234  13.040  1.00  0.00     0.322 C 
HETATM   17  O   LIG     1      11.860  27.708  13.621  1.00  0.00    -0.247 OA
HETATM   18  N   LIG     1      12.720  26.130  12.124  1.00  0.00    -0.343 N 
HETATM   19  C   LIG     1      11.390  25.542  11.930  1.00  0.00     0.154 C 
HETATM   20  C   LIG     1      13.867  25.624  11.363  1.00  0.00     0.154 C 
HETATM   21  H   LIG     1      15.013  27.173  13.191  1.00  0.00     0.170 HD
ENDBRANCH   1  15
TORSDOF 3
ENDMDL
MODEL 10
REMARK VINA RESULT:      -5.7      5.138      8.029
REMARK  3 active torsions:
REMARK  status: ('A' for Active; 'I' for Inactive)
REMARK       I    between atoms: C_2  and  N_6 
REMARK       I    between atoms: C_2  and  N_3 
REMARK    1  A    between atoms: N_6  and  C_7 
REMARK    2  A    between atoms: C_10  and  O_11 
REMARK    3  A    between atoms: O_11  and  C_12 
ROOT
HETATM    1  C   LIG     1      16.327  33.538  16.038  1.00  0.00     0.036 A 
HETATM    2  C   LIG     1      17.184  34.490  15.459  1.00  0.00     0.032 A 
HETATM    3  C   LIG     1      17.711  34.281  14.181  1.00  0.00     0.039 A 
HETATM    4  C   LIG     1      17.371  33.138  13.451  1.00  0.00     0.076 A 
HETATM    5  C   LIG     1      16.514  32.184  14.027  1.00  0.00     0.039 A 
HETATM    6  C   LIG     1      15.986  32.391  15.304  1.00  0.00     0.032 A 
ENDROOT
BRANCH   4   7
HETATM    7  O   LIG     1      17.934  32.958  12.179  1.00  0.00    -0.311 OA
BRANCH   7   8
HETATM    8  C   LIG     1      18.979  33.721  11.637  1.00  0.00     0.076 A 
HETATM    9  C   LIG     1      20.251  33.626  12.215  1.00  0.00     0.039 A 
HETATM   10  C   LIG     1      21.314  34.382  11.712  1.00  0.00     0.026 A 
HETATM   11  C   LIG     1      21.110  35.249  10.634  1.00  0.00     0.034 A 
HETATM   12  C   LIG     1      19.838  35.364  10.063  1.00  0.00     0.026 A 
HETATM   13 CL   LIG     1      22.444  36.198  10.005  1.00  0.00    -0.084 Cl
HETATM   14  C   LIG     1      18.774  34.609  10.565  1.00  0.00     0.039 A 
ENDBRANCH   7   8
ENDBRANCH   4   7
BRANCH   1  15
HETATM   15  N   LIG     1      15.752  33.739  17.342  1.00  0.00    -0.309 N 
HETATM   16  C   LIG     1      15.253  32.671  18.168  1.00  0.00     0.322 C 
HETATM   17  O   LIG     1      14.969  31.560  17.644  1.00  0.00    -0.247 OA
HETATM   18  N   LIG     1      15.044  32.865  19.583  1.00  0.00    -0.343 N 
HETATM   19  C   LIG     1      14.449  31.782  20.373  1.00  0.00     0.154 C 
HETATM   20  C   LIG     1      15.455  34.112  20.235  1.00  0.00     0.154 C 
HETATM   21  H   LIG     1      15.601  34.724  17.655  1.00  0.00     0.170 HD
ENDBRANCH   1  15
TORSDOF 3
ENDMDL
MODEL 11
REMARK VINA RESULT:      -5.7      3.871      7.696
REMARK  3 active torsions:
REMARK  status: ('A' for Active; 'I' for Inactive)
REMARK       I    between atoms: C_2  and  N_6 
REMARK       I    between atoms: C_2  and  N_3 
REMARK    1  A    between atoms: N_6  and  C_7 
REMARK    2  A    between atoms: C_10  and  O_11 
REMARK    3  A    between atoms: O_11  and  C_12 
ROOT
HETATM    1  C   LIG     1      15.285  34.460  20.189  1.00  0.00     0.036 A 
HETATM    2  C   LIG     1      15.329  33.056  20.241  1.00  0.00     0.032 A 
HETATM    3  C   LIG     1      15.345  32.306  19.061  1.00  0.00     0.039 A 
HETATM    4  C   LIG     1      15.345  32.942  17.815  1.00  0.00     0.076 A 
HETATM    5  C   LIG     1      15.301  34.345  17.760  1.00  0.00     0.039 A 
HETATM    6  C   LIG     1      15.285  35.097  18.938  1.00  0.00     0.032 A 
ENDROOT
BRANCH   4   7
HETATM    7  O   LIG     1      15.345  32.152  16.656  1.00  0.00    -0.311 OA
BRANCH   7   8
HETATM    8  C   LIG     1      16.101  32.401  15.502  1.00  0.00     0.076 A 
HETATM    9  C   LIG     1      15.678  31.848  14.286  1.00  0.00     0.039 A 
HETATM   10  C   LIG     1      16.413  32.061  13.117  1.00  0.00     0.026 A 
HETATM   11  C   LIG     1      17.587  32.822  13.156  1.00  0.00     0.034 A 
HETATM   12  C   LIG     1      18.028  33.362  14.369  1.00  0.00     0.026 A 
HETATM   13 CL   LIG     1      18.511  33.088  11.689  1.00  0.00    -0.084 Cl
HETATM   14  C   LIG     1      17.293  33.149  15.539  1.00  0.00     0.039 A 
ENDBRANCH   7   8
ENDBRANCH   4   7
BRANCH   1  15
HETATM   15  N   LIG     1      15.292  35.256  21.387  1.00  0.00    -0.309 N 
HETATM   16  C   LIG     1      16.484  35.821  21.964  1.00  0.00     0.322 C 
HETATM   17  O   LIG     1      17.611  35.347  21.651  1.00  0.00    -0.247 OA
HETATM   18  N   LIG     1      16.406  36.899  22.919  1.00  0.00    -0.343 N 
HETATM   19  C   LIG     1      17.637  37.385  23.551  1.00  0.00     0.154 C 
HETATM   20  C   LIG     1      15.121  37.532  23.228  1.00  0.00     0.154 C 
HETATM   21  H   LIG     1      14.395  35.341  21.915  1.00  0.00     0.170 HD
ENDBRANCH   1  15
TORSDOF 3
ENDMDL
MODEL 12
REMARK VINA RESULT:      -5.5      4.570      9.028
REMARK  3 active torsions:
REMARK  status: ('A' for Active; 'I' for Inactive)
REMARK       I    between atoms: C_2  and  N_6 
REMARK       I    between atoms: C_2  and  N_3 
REMARK    1  A    between atoms: N_6  and  C_7 
REMARK    2  A    between atoms: C_10  and  O_11 
REMARK    3  A    between atoms: O_11  and  C_12 
ROOT
HETATM    1  C   LIG     1      14.800  33.091  18.010  1.00  0.00     0.036 A 
HETATM    2  C   LIG     1      14.173  31.844  17.840  1.00  0.00     0.032 A 
HETATM    3  C   LIG     1      14.342  31.125  16.653  1.00  0.00     0.039 A 
HETATM    4  C   LIG     1      15.156  31.623  15.631  1.00  0.00     0.076 A 
HETATM    5  C   LIG     1      15.784  32.870  15.798  1.00  0.00     0.039 A 
HETATM    6  C   LIG     1      15.617  33.589  16.984  1.00  0.00     0.032 A 
ENDROOT
BRANCH   4   7
HETATM    7  O   LIG     1      15.285  30.879  14.449  1.00  0.00    -0.311 OA
BRANCH   7   8
HETATM    8  C   LIG     1      14.542  29.735  14.123  1.00  0.00     0.076 A 
HETATM    9  C   LIG     1      13.147  29.783  14.238  1.00  0.00     0.039 A 
HETATM   10  C   LIG     1      12.374  28.658  13.937  1.00  0.00     0.026 A 
HETATM   11  C   LIG     1      12.991  27.471  13.529  1.00  0.00     0.034 A 
HETATM   12  C   LIG     1      14.385  27.408  13.430  1.00  0.00     0.026 A 
HETATM   13 CL   LIG     1      12.020  26.060  13.153  1.00  0.00    -0.084 Cl
HETATM   14  C   LIG     1      15.160  28.533  13.732  1.00  0.00     0.039 A 
ENDBRANCH   7   8
ENDBRANCH   4   7
BRANCH   1  15
HETATM   15  N   LIG     1      14.663  33.840  19.231  1.00  0.00    -0.309 N 
HETATM   16  C   LIG     1      15.644  33.836  20.285  1.00  0.00     0.322 C 
HETATM   17  O   LIG     1      16.491  32.902  20.343  1.00  0.00    -0.247 OA
HETATM   18  N   LIG     1      15.652  34.867  21.294  1.00  0.00    -0.343 N 
HETATM   19  C   LIG     1      16.610  34.778  22.401  1.00  0.00     0.154 C 
HETATM   20  C   LIG     1      14.743  36.014  21.197  1.00  0.00     0.154 C 
HETATM   21  H   LIG     1      13.756  34.330  19.397  1.00  0.00     0.170 HD
ENDBRANCH   1  15
TORSDOF 3
ENDMDL
MODEL 13
REMARK VINA RESULT:      -5.5      4.014      6.511
REMARK  3 active torsions:
REMARK  status: ('A' for Active; 'I' for Inactive)
REMARK       I    between atoms: C_2  and  N_6 
REMARK       I    between atoms: C_2  and  N_3 
REMARK    1  A    between atoms: N_6  and  C_7 
REMARK    2  A    between atoms: C_10  and  O_11 
REMARK    3  A    between atoms: O_11  and  C_12 
ROOT
HETATM    1  C   LIG     1      14.333  28.366  13.455  1.00  0.00     0.036 A 
HETATM    2  C   LIG     1      15.240  29.377  13.817  1.00  0.00     0.032 A 
HETATM    3  C   LIG     1      14.835  30.424  14.650  1.00  0.00     0.039 A 
HETATM    4  C   LIG     1      13.532  30.465  15.156  1.00  0.00     0.076 A 
HETATM    5  C   LIG     1      12.622  29.456  14.796  1.00  0.00     0.039 A 
HETATM    6  C   LIG     1      13.026  28.408  13.964  1.00  0.00     0.032 A 
ENDROOT
BRANCH   4   7
HETATM    7  O   LIG     1      13.160  31.542  15.975  1.00  0.00    -0.311 OA
BRANCH   7   8
HETATM    8  C   LIG     1      13.918  32.055  17.037  1.00  0.00     0.076 A 
HETATM    9  C   LIG     1      14.020  31.304  18.216  1.00  0.00     0.039 A 
HETATM   10  C   LIG     1      14.754  31.788  19.302  1.00  0.00     0.026 A 
HETATM   11  C   LIG     1      15.383  33.035  19.223  1.00  0.00     0.034 A 
HETATM   12  C   LIG     1      15.270  33.801  18.057  1.00  0.00     0.026 A 
HETATM   13 CL   LIG     1      16.302  33.644  20.587  1.00  0.00    -0.084 Cl
HETATM   14  C   LIG     1      14.536  33.317  16.970  1.00  0.00     0.039 A 
ENDBRANCH   7   8
ENDBRANCH   4   7
BRANCH   1  15
HETATM   15  N   LIG     1      14.731  27.264  12.619  1.00  0.00    -0.309 N 
HETATM   16  C   LIG     1      13.802  26.421  11.913  1.00  0.00     0.322 C 
HETATM   17  O   LIG     1      12.595  26.385  12.277  1.00  0.00    -0.247 OA
HETATM   18  N   LIG     1      14.240  25.594  10.814  1.00  0.00    -0.343 N 
HETATM   19  C   LIG     1      13.282  24.683  10.179  1.00  0.00     0.154 C 
HETATM   20  C   LIG     1      15.612  25.689  10.309  1.00  0.00     0.154 C 
HETATM   21  H   LIG     1      15.743  27.007  12.610  1.00  0.00     0.170 HD
ENDBRANCH   1  15
TORSDOF 3
ENDMDL
MODEL 14
REMARK VINA RESULT:      -5.4      2.870      3.684
REMARK  3 active torsions:
REMARK  status: ('A' for Active; 'I' for Inactive)
REMARK       I    between atoms: C_2  and  N_6 
REMARK       I    between atoms: C_2  and  N_3 
REMARK    1  A    between atoms: N_6  and  C_7 
REMARK    2  A    between atoms: C_10  and  O_11 
REMARK    3  A    between atoms: O_11  and  C_12 
ROOT
HETATM    1  C   LIG     1      15.342  34.574  19.522  1.00  0.00     0.036 A 
HETATM    2  C   LIG     1      14.551  34.817  20.658  1.00  0.00     0.032 A 
HETATM    3  C   LIG     1      14.992  35.698  21.650  1.00  0.00     0.039 A 
HETATM    4  C   LIG     1      16.212  36.368  21.513  1.00  0.00     0.076 A 
HETATM    5  C   LIG     1      17.005  36.127  20.379  1.00  0.00     0.039 A 
HETATM    6  C   LIG     1      16.566  35.248  19.385  1.00  0.00     0.032 A 
ENDROOT
BRANCH   4   7
HETATM    7  O   LIG     1      16.626  37.230  22.540  1.00  0.00    -0.311 OA
BRANCH   7   8
HETATM    8  C   LIG     1      17.196  36.831  23.757  1.00  0.00     0.076 A 
HETATM    9  C   LIG     1      17.166  35.473  24.101  1.00  0.00     0.039 A 
HETATM   10  C   LIG     1      17.711  35.038  25.312  1.00  0.00     0.026 A 
HETATM   11  C   LIG     1      18.279  35.960  26.197  1.00  0.00     0.034 A 
HETATM   12  C   LIG     1      18.296  37.321  25.871  1.00  0.00     0.026 A 
HETATM   13 CL   LIG     1      18.961  35.414  27.718  1.00  0.00    -0.084 Cl
HETATM   14  C   LIG     1      17.751  37.757  24.659  1.00  0.00     0.039 A 
ENDBRANCH   7   8
ENDBRANCH   4   7
BRANCH   1  15
HETATM   15  N   LIG     1      14.901  33.692  18.475  1.00  0.00    -0.309 N 
HETATM   16  C   LIG     1      15.484  33.659  17.159  1.00  0.00     0.322 C 
HETATM   17  O   LIG     1      16.162  34.643  16.755  1.00  0.00    -0.247 OA
HETATM   18  N   LIG     1      15.277  32.530  16.285  1.00  0.00    -0.343 N 
HETATM   19  C   LIG     1      15.813  32.574  14.920  1.00  0.00     0.154 C 
HETATM   20  C   LIG     1      14.577  31.334  16.762  1.00  0.00     0.154 C 
HETATM   21  H   LIG     1      14.046  33.119  18.656  1.00  0.00     0.170 HD
ENDBRANCH   1  15
TORSDOF 3
ENDMDL
MODEL 15
REMARK VINA RESULT:      -5.3     17.046     17.861
REMARK  3 active torsions:
REMARK  status: ('A' for Active; 'I' for Inactive)
REMARK       I    between atoms: C_2  and  N_6 
REMARK       I    between atoms: C_2  and  N_3 
REMARK    1  A    between atoms: N_6  and  C_7 
REMARK    2  A    between atoms: C_10  and  O_11 
REMARK    3  A    between atoms: O_11  and  C_12 
ROOT
HETATM    1  C   LIG     1      26.890  25.556  28.750  1.00  0.00     0.036 A 
HETATM    2  C   LIG     1      27.306  24.714  29.796  1.00  0.00     0.032 A 
HETATM    3  C   LIG     1      27.850  25.255  30.964  1.00  0.00     0.039 A 
HETATM    4  C   LIG     1      27.962  26.640  31.120  1.00  0.00     0.076 A 
HETATM    5  C   LIG     1      27.548  27.485  30.076  1.00  0.00     0.039 A 
HETATM    6  C   LIG     1      27.003  26.946  28.907  1.00  0.00     0.032 A 
ENDROOT
BRANCH   4   7
HETATM    7  O   LIG     1      28.529  27.142  32.301  1.00  0.00    -0.311 OA
BRANCH   7   8
HETATM    8  C   LIG     1      27.983  28.161  33.096  1.00  0.00     0.076 A 
HETATM    9  C   LIG     1      26.777  27.919  33.765  1.00  0.00     0.039 A 
HETATM   10  C   LIG     1      26.194  28.914  34.555  1.00  0.00     0.026 A 
HETATM   11  C   LIG     1      26.808  30.165  34.672  1.00  0.00     0.034 A 
HETATM   12  C   LIG     1      28.004  30.422  33.992  1.00  0.00     0.026 A 
HETATM   13 CL   LIG     1      26.076  31.415  35.662  1.00  0.00    -0.084 Cl
HETATM   14  C   LIG     1      28.587  29.427  33.201  1.00  0.00     0.039 A 
ENDBRANCH   7   8
ENDBRANCH   4   7
BRANCH   1  15
HETATM   15  N   LIG     1      26.305  25.026  27.547  1.00  0.00    -0.309 N 
HETATM   16  C   LIG     1      27.065  24.674  26.376  1.00  0.00     0.322 C 
HETATM   17  O   LIG     1      28.225  25.148  26.222  1.00  0.00    -0.247 OA
HETATM   18  N   LIG     1      26.507  23.813  25.361  1.00  0.00    -0.343 N 
HETATM   19  C   LIG     1      27.280  23.552  24.142  1.00  0.00     0.154 C 
HETATM   20  C   LIG     1      25.204  23.173  25.559  1.00  0.00     0.154 C 
HETATM   21  H   LIG     1      25.262  24.993  27.493  1.00  0.00     0.170 HD
ENDBRANCH   1  15
TORSDOF 3
ENDMDL
