REMARK  0 active torsions:
REMARK  status: ('A' for Active; 'I' for Inactive)
ROOT
HETATM    1 CL   LIG     1       0.197   3.164  -0.501  1.00  0.00    -0.082 Cl
HETATM    2  C   LIG     1      -0.040   1.443  -0.233  1.00  0.00     0.067 A 
HETATM    3  C   LIG     1      -1.338   0.916  -0.195  1.00  0.00     0.052 A 
HETATM    4  C   LIG     1      -1.553  -0.457   0.018  1.00  0.00     0.059 A 
HETATM    5 CL   LIG     1      -3.206  -1.055   0.056  1.00  0.00    -0.082 Cl
HETATM    6  C   LIG     1      -0.461  -1.329   0.197  1.00  0.00     0.087 A 
HETATM    7 CL   LIG     1      -0.711  -3.053   0.465  1.00  0.00    -0.080 Cl
HETATM    8  C   LIG     1       0.838  -0.807   0.160  1.00  0.00     0.121 A 
HETATM    9  N   LIG     1       1.947  -1.572   0.322  1.00  0.00    -0.189 NA
HETATM   10  S   LIG     1       3.125  -0.421   0.179  1.00  0.00     0.117 SA
HETATM   11  N   LIG     1       2.338   1.010  -0.079  1.00  0.00    -0.190 NA
HETATM   12  C   LIG     1       1.049   0.585  -0.057  1.00  0.00     0.119 A 
ENDROOT
TORSDOF 0
