REMARK  3 active torsions:
REMARK  status: ('A' for Active; 'I' for Inactive)
REMARK       I    between atoms: C_2  and  N_6 
REMARK       I    between atoms: C_2  and  N_3 
REMARK    1  A    between atoms: N_6  and  C_7 
REMARK    2  A    between atoms: C_10  and  O_11 
REMARK    3  A    between atoms: O_11  and  C_12 
ROOT
HETATM    1  C   LIG     1       1.181  -0.013   0.133  1.00  0.00     0.036 A 
HETATM    2  C   LIG     1       0.842  -1.310  -0.290  1.00  0.00     0.032 A 
HETATM    3  C   LIG     1      -0.487  -1.742  -0.246  1.00  0.00     0.039 A 
HETATM    4  C   LIG     1      -1.499  -0.882   0.193  1.00  0.00     0.076 A 
HETATM    5  C   LIG     1      -1.163   0.415   0.617  1.00  0.00     0.039 A 
HETATM    6  C   LIG     1       0.165   0.849   0.573  1.00  0.00     0.032 A 
ENDROOT
BRANCH   4   7
HETATM    7  O   LIG     1      -2.817  -1.360   0.238  1.00  0.00    -0.311 OA
BRANCH   7   8
HETATM    8  C   LIG     1      -3.971  -0.581   0.069  1.00  0.00     0.076 A 
HETATM    9  C   LIG     1      -5.149  -0.973   0.718  1.00  0.00     0.039 A 
HETATM   10  C   LIG     1      -6.323  -0.231   0.562  1.00  0.00     0.026 A 
HETATM   11  C   LIG     1      -6.332   0.904  -0.255  1.00  0.00     0.034 A 
HETATM   12  C   LIG     1      -5.165   1.292  -0.923  1.00  0.00     0.026 A 
HETATM   13 CL   LIG     1      -7.806   1.834  -0.452  1.00  0.00    -0.084 Cl
HETATM   14  C   LIG     1      -3.990   0.550  -0.768  1.00  0.00     0.039 A 
ENDBRANCH   7   8
ENDBRANCH   4   7
BRANCH   1  15
HETATM   15  N   LIG     1       2.537   0.465   0.075  1.00  0.00    -0.309 N 
HETATM   16  C   LIG     1       3.689  -0.374   0.277  1.00  0.00     0.322 C 
HETATM   17  O   LIG     1       3.556  -1.482   0.866  1.00  0.00    -0.247 OA
HETATM   18  N   LIG     1       4.999   0.049  -0.156  1.00  0.00    -0.343 N 
HETATM   19  C   LIG     1       6.160  -0.794   0.149  1.00  0.00     0.154 C 
HETATM   20  C   LIG     1       5.168   1.284  -0.927  1.00  0.00     0.154 C 
HETATM   21  H   LIG     1       2.681   1.495  -0.020  1.00  0.00     0.170 HD
ENDBRANCH   1  15
TORSDOF 3
