MODEL 1
REMARK VINA RESULT:      -9.4      0.000      0.000
REMARK  2 active torsions:
REMARK  status: ('A' for Active; 'I' for Inactive)
REMARK       I    between atoms: C_2  and  N_10 
REMARK       I    between atoms: C_2  and  N_3 
REMARK    1  A    between atoms: N_3  and  C_4 
REMARK    2  A    between atoms: N_10  and  C_11 
ROOT
HETATM    1  O   LIG     1      15.738  39.229  22.682  1.00  0.00    -0.247 OA
HETATM    2  C   LIG     1      16.662  38.579  23.239  1.00  0.00     0.321 C 
HETATM    3  N   LIG     1      16.528  38.235  24.626  1.00  0.00    -0.309 N 
HETATM    4  N   LIG     1      17.856  38.239  22.512  1.00  0.00    -0.338 N 
HETATM    5  H   LIG     1      15.922  38.845  25.220  1.00  0.00     0.170 HD
HETATM    6  H   LIG     1      18.679  37.888  23.054  1.00  0.00     0.164 HD
ENDROOT
BRANCH   4   7
HETATM    7  C   LIG     1      18.012  38.336  21.053  1.00  0.00     0.089 C 
HETATM    8  C   LIG     1      19.062  39.401  20.685  1.00  0.00     0.026 C 
HETATM    9  C   LIG     1      19.200  39.529  19.164  1.00  0.00     0.002 C 
HETATM   10  C   LIG     1      19.547  38.177  18.530  1.00  0.00     0.001 C 
HETATM   11  C   LIG     1      18.495  37.118  18.882  1.00  0.00     0.006 C 
HETATM   12  C   LIG     1      18.346  36.964  20.409  1.00  0.00     0.004 C 
HETATM   13  C   LIG     1      17.264  35.922  20.728  1.00  0.00     0.012 C 
ENDBRANCH   4   7
BRANCH   3  14
HETATM   14  C   LIG     1      17.166  37.104  25.240  1.00  0.00     0.036 A 
HETATM   15  C   LIG     1      16.964  35.822  24.703  1.00  0.00     0.029 A 
HETATM   16  C   LIG     1      17.595  34.711  25.270  1.00  0.00     0.002 A 
HETATM   17  C   LIG     1      18.446  34.872  26.367  1.00  0.00     0.000 A 
HETATM   18  C   LIG     1      18.672  36.145  26.894  1.00  0.00     0.002 A 
HETATM   19  C   LIG     1      18.042  37.260  26.330  1.00  0.00     0.029 A 
ENDBRANCH   3  14
TORSDOF 2
ENDMDL
MODEL 2
REMARK VINA RESULT:      -7.0      1.467      6.188
REMARK  2 active torsions:
REMARK  status: ('A' for Active; 'I' for Inactive)
REMARK       I    between atoms: C_2  and  N_10 
REMARK       I    between atoms: C_2  and  N_3 
REMARK    1  A    between atoms: N_3  and  C_4 
REMARK    2  A    between atoms: N_10  and  C_11 
ROOT
HETATM    1  O   LIG     1      15.366  36.179  22.039  1.00  0.00    -0.247 OA
HETATM    2  C   LIG     1      16.587  36.364  21.793  1.00  0.00     0.321 C 
HETATM    3  N   LIG     1      16.988  36.637  20.443  1.00  0.00    -0.309 N 
HETATM    4  N   LIG     1      17.568  36.246  22.839  1.00  0.00    -0.338 N 
HETATM    5  H   LIG     1      16.376  36.282  19.674  1.00  0.00     0.170 HD
HETATM    6  H   LIG     1      18.576  36.200  22.565  1.00  0.00     0.164 HD
ENDROOT
BRANCH   4   7
HETATM    7  C   LIG     1      17.266  36.195  24.277  1.00  0.00     0.089 C 
HETATM    8  C   LIG     1      17.576  34.799  24.851  1.00  0.00     0.026 C 
HETATM    9  C   LIG     1      17.228  34.733  26.342  1.00  0.00     0.002 C 
HETATM   10  C   LIG     1      17.967  35.823  27.127  1.00  0.00     0.001 C 
HETATM   11  C   LIG     1      17.648  37.216  26.567  1.00  0.00     0.006 C 
HETATM   12  C   LIG     1      18.000  37.310  25.068  1.00  0.00     0.004 C 
HETATM   13  C   LIG     1      17.639  38.702  24.531  1.00  0.00     0.012 C 
ENDBRANCH   4   7
BRANCH   3  14
HETATM   14  C   LIG     1      18.170  37.373  20.087  1.00  0.00     0.036 A 
HETATM   15  C   LIG     1      18.212  38.759  20.310  1.00  0.00     0.029 A 
HETATM   16  C   LIG     1      19.362  39.490  19.994  1.00  0.00     0.002 A 
HETATM   17  C   LIG     1      20.483  38.842  19.468  1.00  0.00     0.000 A 
HETATM   18  C   LIG     1      20.459  37.460  19.265  1.00  0.00     0.002 A 
HETATM   19  C   LIG     1      19.311  36.725  19.579  1.00  0.00     0.029 A 
ENDBRANCH   3  14
TORSDOF 2
ENDMDL
MODEL 3
REMARK VINA RESULT:      -6.9      9.020     10.564
REMARK  2 active torsions:
REMARK  status: ('A' for Active; 'I' for Inactive)
REMARK       I    between atoms: C_2  and  N_10 
REMARK       I    between atoms: C_2  and  N_3 
REMARK    1  A    between atoms: N_3  and  C_4 
REMARK    2  A    between atoms: N_10  and  C_11 
ROOT
HETATM    1  O   LIG     1      17.472  35.529  15.062  1.00  0.00    -0.247 OA
HETATM    2  C   LIG     1      17.353  34.293  14.855  1.00  0.00     0.321 C 
HETATM    3  N   LIG     1      16.365  33.559  15.592  1.00  0.00    -0.309 N 
HETATM    4  N   LIG     1      18.233  33.618  13.937  1.00  0.00    -0.338 N 
HETATM    5  H   LIG     1      16.076  33.936  16.524  1.00  0.00     0.170 HD
HETATM    6  H   LIG     1      18.244  32.573  13.945  1.00  0.00     0.164 HD
ENDROOT
BRANCH   4   7
HETATM    7  C   LIG     1      19.118  34.287  12.972  1.00  0.00     0.089 C 
HETATM    8  C   LIG     1      20.500  33.608  12.937  1.00  0.00     0.026 C 
HETATM    9  C   LIG     1      21.436  34.325  11.958  1.00  0.00     0.002 C 
HETATM   10  C   LIG     1      20.820  34.384  10.555  1.00  0.00     0.001 C 
HETATM   11  C   LIG     1      19.450  35.073  10.583  1.00  0.00     0.006 C 
HETATM   12  C   LIG     1      18.487  34.362  11.556  1.00  0.00     0.004 C 
HETATM   13  C   LIG     1      17.137  35.093  11.586  1.00  0.00     0.012 C 
ENDBRANCH   4   7
BRANCH   3  14
HETATM   14  C   LIG     1      15.747  32.348  15.126  1.00  0.00     0.036 A 
HETATM   15  C   LIG     1      14.809  31.695  15.942  1.00  0.00     0.029 A 
HETATM   16  C   LIG     1      14.177  30.529  15.497  1.00  0.00     0.002 A 
HETATM   17  C   LIG     1      14.465  30.015  14.230  1.00  0.00     0.000 A 
HETATM   18  C   LIG     1      15.380  30.670  13.402  1.00  0.00     0.002 A 
HETATM   19  C   LIG     1      16.015  31.837  13.843  1.00  0.00     0.029 A 
ENDBRANCH   3  14
TORSDOF 2
ENDMDL
MODEL 4
REMARK VINA RESULT:      -6.6      3.062      6.333
REMARK  2 active torsions:
REMARK  status: ('A' for Active; 'I' for Inactive)
REMARK       I    between atoms: C_2  and  N_10 
REMARK       I    between atoms: C_2  and  N_3 
REMARK    1  A    between atoms: N_3  and  C_4 
REMARK    2  A    between atoms: N_10  and  C_11 
ROOT
HETATM    1  O   LIG     1      17.818  36.734  20.892  1.00  0.00    -0.247 OA
HETATM    2  C   LIG     1      16.814  35.986  20.753  1.00  0.00     0.321 C 
HETATM    3  N   LIG     1      16.528  35.444  19.456  1.00  0.00    -0.309 N 
HETATM    4  N   LIG     1      15.939  35.725  21.865  1.00  0.00    -0.338 N 
HETATM    5  H   LIG     1      16.869  35.976  18.623  1.00  0.00     0.170 HD
HETATM    6  H   LIG     1      15.015  35.277  21.670  1.00  0.00     0.164 HD
ENDROOT
BRANCH   4   7
HETATM    7  C   LIG     1      16.246  36.032  23.270  1.00  0.00     0.089 C 
HETATM    8  C   LIG     1      17.216  34.989  23.857  1.00  0.00     0.026 C 
HETATM    9  C   LIG     1      17.510  35.286  25.332  1.00  0.00     0.002 C 
HETATM   10  C   LIG     1      18.063  36.705  25.505  1.00  0.00     0.001 C 
HETATM   11  C   LIG     1      17.093  37.747  24.935  1.00  0.00     0.006 C 
HETATM   12  C   LIG     1      16.790  37.474  23.448  1.00  0.00     0.004 C 
HETATM   13  C   LIG     1      15.792  38.514  22.916  1.00  0.00     0.012 C 
ENDBRANCH   4   7
BRANCH   3  14
HETATM   14  C   LIG     1      15.812  34.218  19.235  1.00  0.00     0.036 A 
HETATM   15  C   LIG     1      15.320  33.929  17.952  1.00  0.00     0.029 A 
HETATM   16  C   LIG     1      14.642  32.730  17.709  1.00  0.00     0.002 A 
HETATM   17  C   LIG     1      14.463  31.805  18.741  1.00  0.00     0.000 A 
HETATM   18  C   LIG     1      14.968  32.073  20.015  1.00  0.00     0.002 A 
HETATM   19  C   LIG     1      15.647  33.271  20.263  1.00  0.00     0.029 A 
ENDBRANCH   3  14
TORSDOF 2
ENDMDL
