MODEL 1
REMARK VINA RESULT:      -5.7      0.000      0.000
REMARK  0 active torsions:
REMARK  status: ('A' for Active; 'I' for Inactive)
ROOT
HETATM    1 CL   LIG     1      16.689  37.780  24.703  1.00  0.00    -0.082 Cl
HETATM    2  C   LIG     1      17.194  37.556  23.034  1.00  0.00     0.067 A 
HETATM    3  C   LIG     1      18.080  38.468  22.446  1.00  0.00     0.052 A 
HETATM    4  C   LIG     1      18.498  38.311  21.113  1.00  0.00     0.059 A 
HETATM    5 CL   LIG     1      19.611  39.490  20.434  1.00  0.00    -0.082 Cl
HETATM    6  C   LIG     1      18.029  37.228  20.344  1.00  0.00     0.087 A 
HETATM    7 CL   LIG     1      18.542  37.014  18.671  1.00  0.00    -0.080 Cl
HETATM    8  C   LIG     1      17.143  36.314  20.927  1.00  0.00     0.121 A 
HETATM    9  N   LIG     1      16.642  35.242  20.261  1.00  0.00    -0.189 NA
HETATM   10  S   LIG     1      15.696  34.576  21.442  1.00  0.00     0.117 SA
HETATM   11  N   LIG     1      15.864  35.549  22.768  1.00  0.00    -0.190 NA
HETATM   12  C   LIG     1      16.724  36.478  22.278  1.00  0.00     0.119 A 
ENDROOT
TORSDOF 0
ENDMDL
MODEL 2
REMARK VINA RESULT:      -5.7      3.021      4.846
REMARK  0 active torsions:
REMARK  status: ('A' for Active; 'I' for Inactive)
ROOT
HETATM    1 CL   LIG     1      16.464  34.731  20.925  1.00  0.00    -0.082 Cl
HETATM    2  C   LIG     1      16.906  35.553  22.415  1.00  0.00     0.067 A 
HETATM    3  C   LIG     1      16.867  34.858  23.632  1.00  0.00     0.052 A 
HETATM    4  C   LIG     1      17.216  35.494  24.836  1.00  0.00     0.059 A 
HETATM    5 CL   LIG     1      17.145  34.568  26.329  1.00  0.00    -0.082 Cl
HETATM    6  C   LIG     1      17.613  36.846  24.839  1.00  0.00     0.087 A 
HETATM    7 CL   LIG     1      18.054  37.659  26.339  1.00  0.00    -0.080 Cl
HETATM    8  C   LIG     1      17.653  37.544  23.626  1.00  0.00     0.121 A 
HETATM    9  N   LIG     1      18.023  38.846  23.534  1.00  0.00    -0.189 NA
HETATM   10  S   LIG     1      17.873  39.084  21.905  1.00  0.00     0.117 SA
HETATM   11  N   LIG     1      17.365  37.641  21.277  1.00  0.00    -0.190 NA
HETATM   12  C   LIG     1      17.299  36.894  22.408  1.00  0.00     0.119 A 
ENDROOT
TORSDOF 0
ENDMDL
MODEL 3
REMARK VINA RESULT:      -5.5      2.049      3.911
REMARK  0 active torsions:
REMARK  status: ('A' for Active; 'I' for Inactive)
ROOT
HETATM    1 CL   LIG     1      18.192  39.510  21.992  1.00  0.00    -0.082 Cl
HETATM    2  C   LIG     1      17.868  38.126  23.027  1.00  0.00     0.067 A 
HETATM    3  C   LIG     1      18.299  38.137  24.360  1.00  0.00     0.052 A 
HETATM    4  C   LIG     1      18.051  37.042  25.207  1.00  0.00     0.059 A 
HETATM    5 CL   LIG     1      18.620  37.117  26.869  1.00  0.00    -0.082 Cl
HETATM    6  C   LIG     1      17.362  35.911  24.725  1.00  0.00     0.087 A 
HETATM    7 CL   LIG     1      17.042  34.530  25.771  1.00  0.00    -0.080 Cl
HETATM    8  C   LIG     1      16.929  35.896  23.393  1.00  0.00     0.121 A 
HETATM    9  N   LIG     1      16.258  34.851  22.846  1.00  0.00    -0.189 NA
HETATM   10  S   LIG     1      16.034  35.416  21.308  1.00  0.00     0.117 SA
HETATM   11  N   LIG     1      16.730  36.915  21.265  1.00  0.00    -0.190 NA
HETATM   12  C   LIG     1      17.182  37.009  22.541  1.00  0.00     0.119 A 
ENDROOT
TORSDOF 0
ENDMDL
MODEL 4
REMARK VINA RESULT:      -5.5      7.321      9.151
REMARK  0 active torsions:
REMARK  status: ('A' for Active; 'I' for Inactive)
ROOT
HETATM    1 CL   LIG     1      15.548  29.815  13.080  1.00  0.00    -0.082 Cl
HETATM    2  C   LIG     1      15.497  31.062  14.318  1.00  0.00     0.067 A 
HETATM    3  C   LIG     1      14.611  30.937  15.396  1.00  0.00     0.052 A 
HETATM    4  C   LIG     1      14.552  31.921  16.399  1.00  0.00     0.059 A 
HETATM    5 CL   LIG     1      13.418  31.706  17.725  1.00  0.00    -0.082 Cl
HETATM    6  C   LIG     1      15.388  33.053  16.335  1.00  0.00     0.087 A 
HETATM    7 CL   LIG     1      15.329  34.297  17.583  1.00  0.00    -0.080 Cl
HETATM    8  C   LIG     1      16.275  33.182  15.259  1.00  0.00     0.121 A 
HETATM    9  N   LIG     1      17.116  34.238  15.117  1.00  0.00    -0.189 NA
HETATM   10  S   LIG     1      17.875  33.825  13.708  1.00  0.00     0.117 SA
HETATM   11  N   LIG     1      17.218  32.382  13.239  1.00  0.00    -0.190 NA
HETATM   12  C   LIG     1      16.331  32.181  14.247  1.00  0.00     0.119 A 
ENDROOT
TORSDOF 0
ENDMDL
MODEL 5
REMARK VINA RESULT:      -5.4      7.720      9.182
REMARK  0 active torsions:
REMARK  status: ('A' for Active; 'I' for Inactive)
ROOT
HETATM    1 CL   LIG     1      17.741  33.318  13.548  1.00  0.00    -0.082 Cl
HETATM    2  C   LIG     1      16.436  32.482  14.378  1.00  0.00     0.067 A 
HETATM    3  C   LIG     1      15.978  31.250  13.893  1.00  0.00     0.052 A 
HETATM    4  C   LIG     1      14.936  30.562  14.539  1.00  0.00     0.059 A 
HETATM    5 CL   LIG     1      14.407  29.021  13.879  1.00  0.00    -0.082 Cl
HETATM    6  C   LIG     1      14.333  31.104  15.692  1.00  0.00     0.087 A 
HETATM    7 CL   LIG     1      13.026  30.256  16.515  1.00  0.00    -0.080 Cl
HETATM    8  C   LIG     1      14.787  32.335  16.180  1.00  0.00     0.121 A 
HETATM    9  N   LIG     1      14.266  32.931  17.283  1.00  0.00    -0.189 NA
HETATM   10  S   LIG     1      15.187  34.302  17.343  1.00  0.00     0.117 SA
HETATM   11  N   LIG     1      16.225  34.213  16.059  1.00  0.00    -0.190 NA
HETATM   12  C   LIG     1      15.844  33.027  15.521  1.00  0.00     0.119 A 
ENDROOT
TORSDOF 0
ENDMDL
MODEL 6
REMARK VINA RESULT:      -5.3      2.330      3.129
REMARK  0 active torsions:
REMARK  status: ('A' for Active; 'I' for Inactive)
ROOT
HETATM    1 CL   LIG     1      15.831  34.428  22.005  1.00  0.00    -0.082 Cl
HETATM    2  C   LIG     1      16.788  35.870  21.696  1.00  0.00     0.067 A 
HETATM    3  C   LIG     1      17.316  36.094  20.417  1.00  0.00     0.052 A 
HETATM    4  C   LIG     1      18.085  37.240  20.146  1.00  0.00     0.059 A 
HETATM    5 CL   LIG     1      18.721  37.462  18.522  1.00  0.00    -0.082 Cl
HETATM    6  C   LIG     1      18.336  38.185  21.160  1.00  0.00     0.087 A 
HETATM    7 CL   LIG     1      19.296  39.628  20.838  1.00  0.00    -0.080 Cl
HETATM    8  C   LIG     1      17.809  37.965  22.439  1.00  0.00     0.121 A 
HETATM    9  N   LIG     1      18.000  38.821  23.474  1.00  0.00    -0.189 NA
HETATM   10  S   LIG     1      17.164  38.038  24.665  1.00  0.00     0.117 SA
HETATM   11  N   LIG     1      16.558  36.664  23.972  1.00  0.00    -0.190 NA
HETATM   12  C   LIG     1      17.031  36.803  22.707  1.00  0.00     0.119 A 
ENDROOT
TORSDOF 0
ENDMDL
MODEL 7
REMARK VINA RESULT:      -4.7      2.898      3.503
REMARK  0 active torsions:
REMARK  status: ('A' for Active; 'I' for Inactive)
ROOT
HETATM    1 CL   LIG     1      17.353  38.307  24.902  1.00  0.00    -0.082 Cl
HETATM    2  C   LIG     1      17.225  37.557  23.318  1.00  0.00     0.067 A 
HETATM    3  C   LIG     1      16.398  36.439  23.141  1.00  0.00     0.052 A 
HETATM    4  C   LIG     1      16.279  35.822  21.884  1.00  0.00     0.059 A 
HETATM    5 CL   LIG     1      15.226  34.422  21.728  1.00  0.00    -0.082 Cl
HETATM    6  C   LIG     1      16.993  36.320  20.776  1.00  0.00     0.087 A 
HETATM    7 CL   LIG     1      16.856  35.559  19.192  1.00  0.00    -0.080 Cl
HETATM    8  C   LIG     1      17.821  37.437  20.947  1.00  0.00     0.121 A 
HETATM    9  N   LIG     1      18.543  37.983  19.938  1.00  0.00    -0.189 NA
HETATM   10  S   LIG     1      19.284  39.224  20.741  1.00  0.00     0.117 SA
HETATM   11  N   LIG     1      18.758  39.135  22.306  1.00  0.00    -0.190 NA
HETATM   12  C   LIG     1      17.936  38.058  22.224  1.00  0.00     0.119 A 
ENDROOT
TORSDOF 0
ENDMDL
MODEL 8
REMARK VINA RESULT:      -4.6      1.004      3.294
REMARK  0 active torsions:
REMARK  status: ('A' for Active; 'I' for Inactive)
ROOT
HETATM    1 CL   LIG     1      18.461  37.033  18.445  1.00  0.00    -0.082 Cl
HETATM    2  C   LIG     1      17.960  37.037  20.130  1.00  0.00     0.067 A 
HETATM    3  C   LIG     1      18.476  38.000  21.009  1.00  0.00     0.052 A 
HETATM    4  C   LIG     1      18.090  38.023  22.360  1.00  0.00     0.059 A 
HETATM    5 CL   LIG     1      18.775  39.255  23.411  1.00  0.00    -0.082 Cl
HETATM    6  C   LIG     1      17.174  37.074  22.856  1.00  0.00     0.087 A 
HETATM    7 CL   LIG     1      16.679  37.087  24.547  1.00  0.00    -0.080 Cl
HETATM    8  C   LIG     1      16.656  36.109  21.982  1.00  0.00     0.121 A 
HETATM    9  N   LIG     1      15.770  35.159  22.371  1.00  0.00    -0.189 NA
HETATM   10  S   LIG     1      15.548  34.357  20.943  1.00  0.00     0.117 SA
HETATM   11  N   LIG     1      16.502  35.126  19.833  1.00  0.00    -0.190 NA
HETATM   12  C   LIG     1      17.051  36.092  20.613  1.00  0.00     0.119 A 
ENDROOT
TORSDOF 0
ENDMDL
MODEL 9
REMARK VINA RESULT:      -4.6      7.750      8.574
REMARK  0 active torsions:
REMARK  status: ('A' for Active; 'I' for Inactive)
ROOT
HETATM    1 CL   LIG     1      13.687  31.751  17.606  1.00  0.00    -0.082 Cl
HETATM    2  C   LIG     1      14.790  32.065  16.274  1.00  0.00     0.067 A 
HETATM    3  C   LIG     1      15.546  33.245  16.259  1.00  0.00     0.052 A 
HETATM    4  C   LIG     1      16.435  33.518  15.205  1.00  0.00     0.059 A 
HETATM    5 CL   LIG     1      17.354  35.017  15.246  1.00  0.00    -0.082 Cl
HETATM    6  C   LIG     1      16.581  32.606  14.142  1.00  0.00     0.087 A 
HETATM    7 CL   LIG     1      17.690  32.931  12.812  1.00  0.00    -0.080 Cl
HETATM    8  C   LIG     1      15.827  31.425  14.152  1.00  0.00     0.121 A 
HETATM    9  N   LIG     1      15.903  30.491  13.171  1.00  0.00    -0.189 NA
HETATM   10  S   LIG     1      14.817  29.379  13.735  1.00  0.00     0.117 SA
HETATM   11  N   LIG     1      14.236  29.988  15.158  1.00  0.00    -0.190 NA
HETATM   12  C   LIG     1      14.928  31.154  15.223  1.00  0.00     0.119 A 
ENDROOT
TORSDOF 0
ENDMDL
MODEL 10
REMARK VINA RESULT:      -4.4      6.918      8.146
REMARK  0 active torsions:
REMARK  status: ('A' for Active; 'I' for Inactive)
ROOT
HETATM    1 CL   LIG     1      15.232  34.357  18.026  1.00  0.00    -0.082 Cl
HETATM    2  C   LIG     1      15.359  33.289  16.636  1.00  0.00     0.067 A 
HETATM    3  C   LIG     1      16.343  33.521  15.666  1.00  0.00     0.052 A 
HETATM    4  C   LIG     1      16.464  32.680  14.546  1.00  0.00     0.059 A 
HETATM    5 CL   LIG     1      17.720  33.026  13.364  1.00  0.00    -0.082 Cl
HETATM    6  C   LIG     1      15.593  31.585  14.380  1.00  0.00     0.087 A 
HETATM    7 CL   LIG     1      15.730  30.521  12.982  1.00  0.00    -0.080 Cl
HETATM    8  C   LIG     1      14.607  31.350  15.347  1.00  0.00     0.121 A 
HETATM    9  N   LIG     1      13.727  30.320  15.269  1.00  0.00    -0.189 NA
HETATM   10  S   LIG     1      12.856  30.569  16.651  1.00  0.00     0.117 SA
HETATM   11  N   LIG     1      13.510  31.907  17.370  1.00  0.00    -0.190 NA
HETATM   12  C   LIG     1      14.491  32.205  16.480  1.00  0.00     0.119 A 
ENDROOT
TORSDOF 0
ENDMDL
MODEL 11
REMARK VINA RESULT:      -3.5     16.501     17.387
REMARK  0 active torsions:
REMARK  status: ('A' for Active; 'I' for Inactive)
ROOT
HETATM    1 CL   LIG     1      22.389  22.808  21.254  1.00  0.00    -0.082 Cl
HETATM    2  C   LIG     1      23.366  22.109  19.970  1.00  0.00     0.067 A 
HETATM    3  C   LIG     1      22.821  21.119  19.141  1.00  0.00     0.052 A 
HETATM    4  C   LIG     1      23.582  20.545  18.108  1.00  0.00     0.059 A 
HETATM    5 CL   LIG     1      22.840  19.307  17.103  1.00  0.00    -0.082 Cl
HETATM    6  C   LIG     1      24.911  20.958  17.889  1.00  0.00     0.087 A 
HETATM    7 CL   LIG     1      25.880  20.249  16.599  1.00  0.00    -0.080 Cl
HETATM    8  C   LIG     1      25.460  21.946  18.715  1.00  0.00     0.121 A 
HETATM    9  N   LIG     1      26.730  22.404  18.577  1.00  0.00    -0.189 NA
HETATM   10  S   LIG     1      26.779  23.517  19.798  1.00  0.00     0.117 SA
HETATM   11  N   LIG     1      25.289  23.476  20.515  1.00  0.00    -0.190 NA
HETATM   12  C   LIG     1      24.683  22.525  19.760  1.00  0.00     0.119 A 
ENDROOT
TORSDOF 0
ENDMDL
MODEL 12
REMARK VINA RESULT:      -3.5     16.101     16.470
REMARK  0 active torsions:
REMARK  status: ('A' for Active; 'I' for Inactive)
ROOT
HETATM    1 CL   LIG     1      22.807  21.090  18.160  1.00  0.00    -0.082 Cl
HETATM    2  C   LIG     1      24.037  22.052  18.967  1.00  0.00     0.067 A 
HETATM    3  C   LIG     1      24.936  22.813  18.208  1.00  0.00     0.052 A 
HETATM    4  C   LIG     1      25.928  23.590  18.831  1.00  0.00     0.059 A 
HETATM    5 CL   LIG     1      27.026  24.522  17.821  1.00  0.00    -0.082 Cl
HETATM    6  C   LIG     1      26.035  23.616  20.235  1.00  0.00     0.087 A 
HETATM    7 CL   LIG     1      27.273  24.584  21.034  1.00  0.00    -0.080 Cl
HETATM    8  C   LIG     1      25.139  22.857  20.999  1.00  0.00     0.121 A 
HETATM    9  N   LIG     1      25.168  22.822  22.355  1.00  0.00    -0.189 NA
HETATM   10  S   LIG     1      23.911  21.791  22.652  1.00  0.00     0.117 SA
HETATM   11  N   LIG     1      23.307  21.366  21.173  1.00  0.00    -0.190 NA
HETATM   12  C   LIG     1      24.135  22.072  20.361  1.00  0.00     0.119 A 
ENDROOT
TORSDOF 0
ENDMDL
MODEL 13
REMARK VINA RESULT:      -3.4     16.360     16.832
REMARK  0 active torsions:
REMARK  status: ('A' for Active; 'I' for Inactive)
ROOT
HETATM    1 CL   LIG     1      22.918  21.668  18.255  1.00  0.00    -0.082 Cl
HETATM    2  C   LIG     1      23.724  21.992  19.783  1.00  0.00     0.067 A 
HETATM    3  C   LIG     1      23.229  21.426  20.965  1.00  0.00     0.052 A 
HETATM    4  C   LIG     1      23.856  21.671  22.200  1.00  0.00     0.059 A 
HETATM    5 CL   LIG     1      23.184  20.932  23.647  1.00  0.00    -0.082 Cl
HETATM    6  C   LIG     1      24.999  22.492  22.267  1.00  0.00     0.087 A 
HETATM    7 CL   LIG     1      25.799  22.810  23.805  1.00  0.00    -0.080 Cl
HETATM    8  C   LIG     1      25.498  23.060  21.088  1.00  0.00     0.121 A 
HETATM    9  N   LIG     1      26.592  23.862  21.059  1.00  0.00    -0.189 NA
HETATM   10  S   LIG     1      26.670  24.198  19.442  1.00  0.00     0.117 SA
HETATM   11  N   LIG     1      25.404  23.395  18.745  1.00  0.00    -0.190 NA
HETATM   12  C   LIG     1      24.858  22.807  19.840  1.00  0.00     0.119 A 
ENDROOT
TORSDOF 0
ENDMDL
MODEL 14
REMARK VINA RESULT:      -3.4     16.624     17.595
REMARK  0 active torsions:
REMARK  status: ('A' for Active; 'I' for Inactive)
ROOT
HETATM    1 CL   LIG     1      22.395  19.735  17.423  1.00  0.00    -0.082 Cl
HETATM    2  C   LIG     1      23.389  20.789  18.419  1.00  0.00     0.067 A 
HETATM    3  C   LIG     1      22.811  21.486  19.488  1.00  0.00     0.052 A 
HETATM    4  C   LIG     1      23.585  22.335  20.298  1.00  0.00     0.059 A 
HETATM    5 CL   LIG     1      22.799  23.182  21.623  1.00  0.00    -0.082 Cl
HETATM    6  C   LIG     1      24.962  22.498  20.047  1.00  0.00     0.087 A 
HETATM    7 CL   LIG     1      25.948  23.558  21.053  1.00  0.00    -0.080 Cl
HETATM    8  C   LIG     1      25.544  21.804  18.980  1.00  0.00     0.121 A 
HETATM    9  N   LIG     1      26.861  21.900  18.666  1.00  0.00    -0.189 NA
HETATM   10  S   LIG     1      26.930  20.883  17.364  1.00  0.00     0.117 SA
HETATM   11  N   LIG     1      25.395  20.308  17.149  1.00  0.00    -0.190 NA
HETATM   12  C   LIG     1      24.754  20.945  18.163  1.00  0.00     0.119 A 
ENDROOT
TORSDOF 0
ENDMDL
MODEL 15
REMARK VINA RESULT:      -3.3     16.367     16.993
REMARK  0 active torsions:
REMARK  status: ('A' for Active; 'I' for Inactive)
ROOT
HETATM    1 CL   LIG     1      27.093  23.251  22.825  1.00  0.00    -0.082 Cl
HETATM    2  C   LIG     1      25.923  22.819  21.587  1.00  0.00     0.067 A 
HETATM    3  C   LIG     1      24.553  22.967  21.841  1.00  0.00     0.052 A 
HETATM    4  C   LIG     1      23.598  22.628  20.866  1.00  0.00     0.059 A 
HETATM    5 CL   LIG     1      21.894  22.835  21.248  1.00  0.00    -0.082 Cl
HETATM    6  C   LIG     1      24.007  22.133  19.611  1.00  0.00     0.087 A 
HETATM    7 CL   LIG     1      22.824  21.703  18.377  1.00  0.00    -0.080 Cl
HETATM    8  C   LIG     1      25.375  21.984  19.353  1.00  0.00     0.121 A 
HETATM    9  N   LIG     1      25.858  21.516  18.174  1.00  0.00    -0.189 NA
HETATM   10  S   LIG     1      27.482  21.573  18.476  1.00  0.00     0.117 SA
HETATM   11  N   LIG     1      27.642  22.156  20.014  1.00  0.00    -0.190 NA
HETATM   12  C   LIG     1      26.337  22.330  20.345  1.00  0.00     0.119 A 
ENDROOT
TORSDOF 0
ENDMDL
MODEL 16
REMARK VINA RESULT:      -3.3     15.537     16.351
REMARK  0 active torsions:
REMARK  status: ('A' for Active; 'I' for Inactive)
ROOT
HETATM    1 CL   LIG     1      28.030  26.971  18.666  1.00  0.00    -0.082 Cl
HETATM    2  C   LIG     1      27.298  25.540  19.377  1.00  0.00     0.067 A 
HETATM    3  C   LIG     1      26.388  24.779  18.631  1.00  0.00     0.052 A 
HETATM    4  C   LIG     1      25.789  23.631  19.178  1.00  0.00     0.059 A 
HETATM    5 CL   LIG     1      24.655  22.720  18.190  1.00  0.00    -0.082 Cl
HETATM    6  C   LIG     1      26.096  23.225  20.492  1.00  0.00     0.087 A 
HETATM    7 CL   LIG     1      25.356  21.788  21.195  1.00  0.00    -0.080 Cl
HETATM    8  C   LIG     1      27.005  23.983  21.241  1.00  0.00     0.121 A 
HETATM    9  N   LIG     1      27.359  23.666  22.513  1.00  0.00    -0.189 NA
HETATM   10  S   LIG     1      28.420  24.892  22.839  1.00  0.00     0.117 SA
HETATM   11  N   LIG     1      28.478  25.822  21.473  1.00  0.00    -0.190 NA
HETATM   12  C   LIG     1      27.609  25.145  20.681  1.00  0.00     0.119 A 
ENDROOT
TORSDOF 0
ENDMDL
MODEL 17
REMARK VINA RESULT:      -3.2     16.532     16.927
REMARK  0 active torsions:
REMARK  status: ('A' for Active; 'I' for Inactive)
ROOT
HETATM    1 CL   LIG     1      27.289  24.442  17.851  1.00  0.00    -0.082 Cl
HETATM    2  C   LIG     1      26.178  23.514  18.847  1.00  0.00     0.067 A 
HETATM    3  C   LIG     1      25.067  22.893  18.259  1.00  0.00     0.052 A 
HETATM    4  C   LIG     1      24.164  22.145  19.036  1.00  0.00     0.059 A 
HETATM    5 CL   LIG     1      22.790  21.392  18.238  1.00  0.00    -0.082 Cl
HETATM    6  C   LIG     1      24.363  22.008  20.424  1.00  0.00     0.087 A 
HETATM    7 CL   LIG     1      23.241  21.075  21.413  1.00  0.00    -0.080 Cl
HETATM    8  C   LIG     1      25.471  22.627  21.016  1.00  0.00     0.121 A 
HETATM    9  N   LIG     1      25.740  22.548  22.343  1.00  0.00    -0.189 NA
HETATM   10  S   LIG     1      27.124  23.449  22.419  1.00  0.00     0.117 SA
HETATM   11  N   LIG     1      27.430  23.950  20.874  1.00  0.00    -0.190 NA
HETATM   12  C   LIG     1      26.382  23.383  20.223  1.00  0.00     0.119 A 
ENDROOT
TORSDOF 0
ENDMDL
MODEL 18
REMARK VINA RESULT:      -3.1     16.273     16.521
REMARK  0 active torsions:
REMARK  status: ('A' for Active; 'I' for Inactive)
ROOT
HETATM    1 CL   LIG     1      26.789  23.267  23.529  1.00  0.00    -0.082 Cl
HETATM    2  C   LIG     1      25.859  22.922  22.078  1.00  0.00     0.067 A 
HETATM    3  C   LIG     1      26.171  23.575  20.878  1.00  0.00     0.052 A 
HETATM    4  C   LIG     1      25.441  23.316  19.705  1.00  0.00     0.059 A 
HETATM    5 CL   LIG     1      25.882  24.169  18.232  1.00  0.00    -0.082 Cl
HETATM    6  C   LIG     1      24.379  22.390  19.717  1.00  0.00     0.087 A 
HETATM    7 CL   LIG     1      23.452  22.052  18.256  1.00  0.00    -0.080 Cl
HETATM    8  C   LIG     1      24.063  21.735  20.914  1.00  0.00     0.121 A 
HETATM    9  N   LIG     1      23.058  20.829  21.018  1.00  0.00    -0.189 NA
HETATM   10  S   LIG     1      23.184  20.429  22.617  1.00  0.00     0.117 SA
HETATM   11  N   LIG     1      24.437  21.325  23.216  1.00  0.00    -0.190 NA
HETATM   12  C   LIG     1      24.807  22.002  22.099  1.00  0.00     0.119 A 
ENDROOT
TORSDOF 0
ENDMDL
MODEL 19
REMARK VINA RESULT:      -3.0     15.592     16.046
REMARK  0 active torsions:
REMARK  status: ('A' for Active; 'I' for Inactive)
ROOT
HETATM    1 CL   LIG     1      28.874  24.902  23.683  1.00  0.00    -0.082 Cl
HETATM    2  C   LIG     1      28.052  24.802  22.132  1.00  0.00     0.067 A 
HETATM    3  C   LIG     1      28.266  25.794  21.165  1.00  0.00     0.052 A 
HETATM    4  C   LIG     1      27.620  25.735  19.918  1.00  0.00     0.059 A 
HETATM    5 CL   LIG     1      27.929  27.011  18.748  1.00  0.00    -0.082 Cl
HETATM    6  C   LIG     1      26.744  24.673  19.619  1.00  0.00     0.087 A 
HETATM    7 CL   LIG     1      25.925  24.584  18.060  1.00  0.00    -0.080 Cl
HETATM    8  C   LIG     1      26.527  23.680  20.582  1.00  0.00     0.121 A 
HETATM    9  N   LIG     1      25.701  22.622  20.380  1.00  0.00    -0.189 NA
HETATM   10  S   LIG     1      25.864  21.839  21.827  1.00  0.00     0.117 SA
HETATM   11  N   LIG     1      26.921  22.743  22.721  1.00  0.00    -0.190 NA
HETATM   12  C   LIG     1      27.185  23.745  21.844  1.00  0.00     0.119 A 
ENDROOT
TORSDOF 0
ENDMDL
MODEL 20
REMARK VINA RESULT:      -3.0     16.339     16.465
REMARK  0 active torsions:
REMARK  status: ('A' for Active; 'I' for Inactive)
ROOT
HETATM    1 CL   LIG     1      22.815  20.963  22.863  1.00  0.00    -0.082 Cl
HETATM    2  C   LIG     1      23.987  21.824  21.876  1.00  0.00     0.067 A 
HETATM    3  C   LIG     1      25.065  22.479  22.486  1.00  0.00     0.052 A 
HETATM    4  C   LIG     1      26.016  23.174  21.718  1.00  0.00     0.059 A 
HETATM    5 CL   LIG     1      27.344  23.976  22.545  1.00  0.00    -0.082 Cl
HETATM    6  C   LIG     1      25.898  23.224  20.315  1.00  0.00     0.087 A 
HETATM    7 CL   LIG     1      27.079  24.091  19.336  1.00  0.00    -0.080 Cl
HETATM    8  C   LIG     1      24.822  22.572  19.700  1.00  0.00     0.121 A 
HETATM    9  N   LIG     1      24.631  22.566  18.357  1.00  0.00    -0.189 NA
HETATM   10  S   LIG     1      23.248  21.665  18.258  1.00  0.00     0.117 SA
HETATM   11  N   LIG     1      22.852  21.263  19.811  1.00  0.00    -0.190 NA
HETATM   12  C   LIG     1      23.863  21.868  20.484  1.00  0.00     0.119 A 
ENDROOT
TORSDOF 0
ENDMDL
