MODEL 1
REMARK VINA RESULT:      -5.9      0.000      0.000
REMARK  6 active torsions:
REMARK  status: ('A' for Active; 'I' for Inactive)
REMARK       I    between atoms: C_2  and  N_6 
REMARK    1  A    between atoms: C_2  and  S_3 
REMARK    2  A    between atoms: S_3  and  C_4 
REMARK    3  A    between atoms: N_6  and  C_7 
REMARK    4  A    between atoms: N_6  and  C_11 
REMARK    5  A    between atoms: C_7  and  C_8 
REMARK    6  A    between atoms: C_11  and  C_12 
ROOT
HETATM    1  O   LIG     1      19.192  38.650  23.762  1.00  0.00    -0.260 OA
HETATM    2  C   LIG     1      18.146  38.563  23.063  1.00  0.00     0.281 C 
HETATM    3  N   LIG     1      17.064  37.699  23.476  1.00  0.00    -0.342 N 
ENDROOT
BRANCH   3   4
HETATM    4  C   LIG     1      16.209  37.046  22.465  1.00  0.00     0.130 C 
BRANCH   4   5
HETATM    5  C   LIG     1      16.832  35.752  21.897  1.00  0.00    -0.005 C 
HETATM    6  C   LIG     1      17.519  36.043  20.557  1.00  0.00     0.011 C 
HETATM    7  C   LIG     1      15.782  34.648  21.721  1.00  0.00     0.011 C 
ENDBRANCH   4   5
ENDBRANCH   3   4
BRANCH   3   8
HETATM    8  C   LIG     1      16.925  37.355  24.905  1.00  0.00     0.130 C 
BRANCH   8   9
HETATM    9  C   LIG     1      17.909  36.249  25.346  1.00  0.00    -0.005 C 
HETATM   10  C   LIG     1      17.174  34.910  25.474  1.00  0.00     0.011 C 
HETATM   11  C   LIG     1      18.601  36.599  26.671  1.00  0.00     0.011 C 
ENDBRANCH   8   9
ENDBRANCH   3   8
BRANCH   2  12
HETATM   12  S   LIG     1      18.046  39.549  21.563  1.00  0.00    -0.070 SA
BRANCH  12  13
HETATM   13  C   LIG     1      19.647  38.962  20.920  1.00  0.00     0.079 C 
HETATM   14  C   LIG     1      19.604  38.898  19.401  1.00  0.00     0.016 C 
ENDBRANCH  12  13
ENDBRANCH   2  12
TORSDOF 6
ENDMDL
MODEL 2
REMARK VINA RESULT:      -5.9      2.008      4.642
REMARK  6 active torsions:
REMARK  status: ('A' for Active; 'I' for Inactive)
REMARK       I    between atoms: C_2  and  N_6 
REMARK    1  A    between atoms: C_2  and  S_3 
REMARK    2  A    between atoms: S_3  and  C_4 
REMARK    3  A    between atoms: N_6  and  C_7 
REMARK    4  A    between atoms: N_6  and  C_11 
REMARK    5  A    between atoms: C_7  and  C_8 
REMARK    6  A    between atoms: C_11  and  C_12 
ROOT
HETATM    1  O   LIG     1      16.350  38.114  23.865  1.00  0.00    -0.260 OA
HETATM    2  C   LIG     1      16.859  37.012  23.524  1.00  0.00     0.281 C 
HETATM    3  N   LIG     1      17.170  36.752  22.136  1.00  0.00    -0.342 N 
ENDROOT
BRANCH   3   4
HETATM    4  C   LIG     1      17.093  35.377  21.604  1.00  0.00     0.130 C 
BRANCH   4   5
HETATM    5  C   LIG     1      15.901  35.170  20.644  1.00  0.00    -0.005 C 
HETATM    6  C   LIG     1      14.623  35.753  21.260  1.00  0.00     0.011 C 
HETATM    7  C   LIG     1      15.695  33.688  20.309  1.00  0.00     0.011 C 
ENDBRANCH   4   5
ENDBRANCH   3   4
BRANCH   3   8
HETATM    8  C   LIG     1      17.407  37.891  21.228  1.00  0.00     0.130 C 
BRANCH   8   9
HETATM    9  C   LIG     1      18.811  37.852  20.583  1.00  0.00    -0.005 C 
HETATM   10  C   LIG     1      19.361  39.275  20.431  1.00  0.00     0.011 C 
HETATM   11  C   LIG     1      18.790  37.147  19.220  1.00  0.00     0.011 C 
ENDBRANCH   8   9
ENDBRANCH   3   8
BRANCH   2  12
HETATM   12  S   LIG     1      17.194  35.799  24.808  1.00  0.00    -0.070 SA
BRANCH  12  13
HETATM   13  C   LIG     1      17.921  37.021  25.948  1.00  0.00     0.079 C 
HETATM   14  C   LIG     1      18.788  36.317  26.979  1.00  0.00     0.016 C 
ENDBRANCH  12  13
ENDBRANCH   2  12
TORSDOF 6
ENDMDL
MODEL 3
REMARK VINA RESULT:      -5.6      1.426      3.586
REMARK  6 active torsions:
REMARK  status: ('A' for Active; 'I' for Inactive)
REMARK       I    between atoms: C_2  and  N_6 
REMARK    1  A    between atoms: C_2  and  S_3 
REMARK    2  A    between atoms: S_3  and  C_4 
REMARK    3  A    between atoms: N_6  and  C_7 
REMARK    4  A    between atoms: N_6  and  C_11 
REMARK    5  A    between atoms: C_7  and  C_8 
REMARK    6  A    between atoms: C_11  and  C_12 
ROOT
HETATM    1  O   LIG     1      15.919  39.280  22.573  1.00  0.00    -0.260 OA
HETATM    2  C   LIG     1      16.856  38.439  22.650  1.00  0.00     0.281 C 
HETATM    3  N   LIG     1      16.560  37.034  22.814  1.00  0.00    -0.342 N 
ENDROOT
BRANCH   3   4
HETATM    4  C   LIG     1      17.489  36.164  23.564  1.00  0.00     0.130 C 
BRANCH   4   5
HETATM    5  C   LIG     1      17.265  36.223  25.091  1.00  0.00    -0.005 C 
HETATM    6  C   LIG     1      18.345  37.092  25.747  1.00  0.00     0.011 C 
HETATM    7  C   LIG     1      17.263  34.824  25.718  1.00  0.00     0.011 C 
ENDBRANCH   4   5
ENDBRANCH   3   4
BRANCH   3   8
HETATM    8  C   LIG     1      15.253  36.517  22.363  1.00  0.00     0.130 C 
BRANCH   8   9
HETATM    9  C   LIG     1      15.362  35.678  21.071  1.00  0.00    -0.005 C 
HETATM   10  C   LIG     1      14.994  34.217  21.359  1.00  0.00     0.011 C 
HETATM   11  C   LIG     1      16.768  35.756  20.460  1.00  0.00     0.011 C 
ENDBRANCH   8   9
ENDBRANCH   3   8
BRANCH   2  12
HETATM   12  S   LIG     1      18.546  39.041  22.534  1.00  0.00    -0.070 SA
BRANCH  12  13
HETATM   13  C   LIG     1      18.454  39.329  20.737  1.00  0.00     0.079 C 
HETATM   14  C   LIG     1      19.750  38.888  20.074  1.00  0.00     0.016 C 
ENDBRANCH  12  13
ENDBRANCH   2  12
TORSDOF 6
ENDMDL
MODEL 4
REMARK VINA RESULT:      -5.5      2.529      4.258
REMARK  6 active torsions:
REMARK  status: ('A' for Active; 'I' for Inactive)
REMARK       I    between atoms: C_2  and  N_6 
REMARK    1  A    between atoms: C_2  and  S_3 
REMARK    2  A    between atoms: S_3  and  C_4 
REMARK    3  A    between atoms: N_6  and  C_7 
REMARK    4  A    between atoms: N_6  and  C_11 
REMARK    5  A    between atoms: C_7  and  C_8 
REMARK    6  A    between atoms: C_11  and  C_12 
ROOT
HETATM    1  O   LIG     1      14.449  36.180  21.635  1.00  0.00    -0.260 OA
HETATM    2  C   LIG     1      15.654  36.044  21.293  1.00  0.00     0.281 C 
HETATM    3  N   LIG     1      16.701  36.714  22.032  1.00  0.00    -0.342 N 
ENDROOT
BRANCH   3   4
HETATM    4  C   LIG     1      17.930  37.155  21.343  1.00  0.00     0.130 C 
BRANCH   4   5
HETATM    5  C   LIG     1      18.053  38.692  21.260  1.00  0.00    -0.005 C 
HETATM    6  C   LIG     1      18.690  39.097  19.924  1.00  0.00     0.011 C 
HETATM    7  C   LIG     1      18.871  39.259  22.426  1.00  0.00     0.011 C 
ENDBRANCH   4   5
ENDBRANCH   3   4
BRANCH   3   8
HETATM    8  C   LIG     1      16.459  37.089  23.439  1.00  0.00     0.130 C 
BRANCH   8   9
HETATM    9  C   LIG     1      17.535  36.529  24.395  1.00  0.00    -0.005 C 
HETATM   10  C   LIG     1      17.228  35.066  24.734  1.00  0.00     0.011 C 
HETATM   11  C   LIG     1      17.638  37.358  25.683  1.00  0.00     0.011 C 
ENDBRANCH   8   9
ENDBRANCH   3   8
BRANCH   2  12
HETATM   12  S   LIG     1      16.022  34.991  19.882  1.00  0.00    -0.070 SA
BRANCH  12  13
HETATM   13  C   LIG     1      15.279  33.507  20.637  1.00  0.00     0.079 C 
HETATM   14  C   LIG     1      15.298  32.356  19.644  1.00  0.00     0.016 C 
ENDBRANCH  12  13
ENDBRANCH   2  12
TORSDOF 6
ENDMDL
MODEL 5
REMARK VINA RESULT:      -5.3      2.337      4.832
REMARK  6 active torsions:
REMARK  status: ('A' for Active; 'I' for Inactive)
REMARK       I    between atoms: C_2  and  N_6 
REMARK    1  A    between atoms: C_2  and  S_3 
REMARK    2  A    between atoms: S_3  and  C_4 
REMARK    3  A    between atoms: N_6  and  C_7 
REMARK    4  A    between atoms: N_6  and  C_11 
REMARK    5  A    between atoms: C_7  and  C_8 
REMARK    6  A    between atoms: C_11  and  C_12 
ROOT
HETATM    1  O   LIG     1      17.372  36.087  20.377  1.00  0.00    -0.260 OA
HETATM    2  C   LIG     1      16.601  36.093  21.375  1.00  0.00     0.281 C 
HETATM    3  N   LIG     1      16.604  37.213  22.290  1.00  0.00    -0.342 N 
ENDROOT
BRANCH   3   4
HETATM    4  C   LIG     1      16.302  37.002  23.720  1.00  0.00     0.130 C 
BRANCH   4   5
HETATM    5  C   LIG     1      17.518  36.483  24.520  1.00  0.00    -0.005 C 
HETATM    6  C   LIG     1      17.297  35.019  24.921  1.00  0.00     0.011 C 
HETATM    7  C   LIG     1      17.781  37.336  25.766  1.00  0.00     0.011 C 
ENDBRANCH   4   5
ENDBRANCH   3   4
BRANCH   3   8
HETATM    8  C   LIG     1      17.064  38.531  21.811  1.00  0.00     0.130 C 
BRANCH   8   9
HETATM    9  C   LIG     1      18.599  38.599  21.649  1.00  0.00    -0.005 C 
HETATM   10  C   LIG     1      19.233  39.231  22.894  1.00  0.00     0.011 C 
HETATM   11  C   LIG     1      19.004  39.386  20.395  1.00  0.00     0.011 C 
ENDBRANCH   8   9
ENDBRANCH   3   8
BRANCH   2  12
HETATM   12  S   LIG     1      15.504  34.688  21.607  1.00  0.00    -0.070 SA
BRANCH  12  13
HETATM   13  C   LIG     1      15.694  34.096  19.894  1.00  0.00     0.079 C 
HETATM   14  C   LIG     1      15.442  32.598  19.832  1.00  0.00     0.016 C 
ENDBRANCH  12  13
ENDBRANCH   2  12
TORSDOF 6
ENDMDL
MODEL 6
REMARK VINA RESULT:      -5.3      2.018      4.598
REMARK  6 active torsions:
REMARK  status: ('A' for Active; 'I' for Inactive)
REMARK       I    between atoms: C_2  and  N_6 
REMARK    1  A    between atoms: C_2  and  S_3 
REMARK    2  A    between atoms: S_3  and  C_4 
REMARK    3  A    between atoms: N_6  and  C_7 
REMARK    4  A    between atoms: N_6  and  C_11 
REMARK    5  A    between atoms: C_7  and  C_8 
REMARK    6  A    between atoms: C_11  and  C_12 
ROOT
HETATM    1  O   LIG     1      17.492  35.051  23.924  1.00  0.00    -0.260 OA
HETATM    2  C   LIG     1      17.184  36.171  23.433  1.00  0.00     0.281 C 
HETATM    3  N   LIG     1      17.168  36.357  21.999  1.00  0.00    -0.342 N 
ENDROOT
BRANCH   3   4
HETATM    4  C   LIG     1      17.499  37.674  21.419  1.00  0.00     0.130 C 
BRANCH   4   5
HETATM    5  C   LIG     1      18.827  37.666  20.632  1.00  0.00    -0.005 C 
HETATM    6  C   LIG     1      19.427  39.078  20.600  1.00  0.00     0.011 C 
HETATM    7  C   LIG     1      18.637  37.144  19.203  1.00  0.00     0.011 C 
ENDBRANCH   4   5
ENDBRANCH   3   4
BRANCH   3   8
HETATM    8  C   LIG     1      16.973  35.184  21.125  1.00  0.00     0.130 C 
BRANCH   8   9
HETATM    9  C   LIG     1      15.570  34.558  21.278  1.00  0.00    -0.005 C 
HETATM   10  C   LIG     1      15.391  33.413  20.274  1.00  0.00     0.011 C 
HETATM   11  C   LIG     1      14.458  35.600  21.093  1.00  0.00     0.011 C 
ENDBRANCH   8   9
ENDBRANCH   3   8
BRANCH   2  12
HETATM   12  S   LIG     1      16.759  37.504  24.562  1.00  0.00    -0.070 SA
BRANCH  12  13
HETATM   13  C   LIG     1      18.385  37.492  25.387  1.00  0.00     0.079 C 
HETATM   14  C   LIG     1      18.325  36.629  26.637  1.00  0.00     0.016 C 
ENDBRANCH  12  13
ENDBRANCH   2  12
TORSDOF 6
ENDMDL
MODEL 7
REMARK VINA RESULT:      -4.6      2.561      5.479
REMARK  6 active torsions:
REMARK  status: ('A' for Active; 'I' for Inactive)
REMARK       I    between atoms: C_2  and  N_6 
REMARK    1  A    between atoms: C_2  and  S_3 
REMARK    2  A    between atoms: S_3  and  C_4 
REMARK    3  A    between atoms: N_6  and  C_7 
REMARK    4  A    between atoms: N_6  and  C_11 
REMARK    5  A    between atoms: C_7  and  C_8 
REMARK    6  A    between atoms: C_11  and  C_12 
ROOT
HETATM    1  O   LIG     1      17.796  36.141  19.400  1.00  0.00    -0.260 OA
HETATM    2  C   LIG     1      17.476  36.386  20.595  1.00  0.00     0.281 C 
HETATM    3  N   LIG     1      17.897  37.618  21.223  1.00  0.00    -0.342 N 
ENDROOT
BRANCH   3   4
HETATM    4  C   LIG     1      18.165  37.655  22.675  1.00  0.00     0.130 C 
BRANCH   4   5
HETATM    5  C   LIG     1      17.170  38.549  23.446  1.00  0.00    -0.005 C 
HETATM    6  C   LIG     1      17.327  38.330  24.956  1.00  0.00     0.011 C 
HETATM    7  C   LIG     1      15.721  38.279  23.024  1.00  0.00     0.011 C 
ENDBRANCH   4   5
ENDBRANCH   3   4
BRANCH   3   8
HETATM    8  C   LIG     1      18.208  38.787  20.377  1.00  0.00     0.130 C 
BRANCH   8   9
HETATM    9  C   LIG     1      19.146  38.434  19.202  1.00  0.00    -0.005 C 
HETATM   10  C   LIG     1      20.604  38.703  19.593  1.00  0.00     0.011 C 
HETATM   11  C   LIG     1      18.787  39.219  17.933  1.00  0.00     0.011 C 
ENDBRANCH   8   9
ENDBRANCH   3   8
BRANCH   2  12
HETATM   12  S   LIG     1      16.479  35.173  21.471  1.00  0.00    -0.070 SA
BRANCH  12  13
HETATM   13  C   LIG     1      15.681  34.549  19.956  1.00  0.00     0.079 C 
HETATM   14  C   LIG     1      15.457  33.049  20.067  1.00  0.00     0.016 C 
ENDBRANCH  12  13
ENDBRANCH   2  12
TORSDOF 6
ENDMDL
MODEL 8
REMARK VINA RESULT:      -4.6      8.390     10.103
REMARK  6 active torsions:
REMARK  status: ('A' for Active; 'I' for Inactive)
REMARK       I    between atoms: C_2  and  N_6 
REMARK    1  A    between atoms: C_2  and  S_3 
REMARK    2  A    between atoms: S_3  and  C_4 
REMARK    3  A    between atoms: N_6  and  C_7 
REMARK    4  A    between atoms: N_6  and  C_11 
REMARK    5  A    between atoms: C_7  and  C_8 
REMARK    6  A    between atoms: C_11  and  C_12 
ROOT
HETATM    1  O   LIG     1      17.994  32.969  15.441  1.00  0.00    -0.260 OA
HETATM    2  C   LIG     1      17.170  32.664  14.536  1.00  0.00     0.281 C 
HETATM    3  N   LIG     1      16.026  31.835  14.843  1.00  0.00    -0.342 N 
ENDROOT
BRANCH   3   4
HETATM    4  C   LIG     1      15.474  30.926  13.819  1.00  0.00     0.130 C 
BRANCH   4   5
HETATM    5  C   LIG     1      14.925  29.612  14.416  1.00  0.00    -0.005 C 
HETATM    6  C   LIG     1      15.432  28.413  13.605  1.00  0.00     0.011 C 
HETATM    7  C   LIG     1      13.392  29.606  14.459  1.00  0.00     0.011 C 
ENDBRANCH   4   5
ENDBRANCH   3   4
BRANCH   3   8
HETATM    8  C   LIG     1      15.520  31.793  16.229  1.00  0.00     0.130 C 
BRANCH   8   9
HETATM    9  C   LIG     1      14.464  32.885  16.507  1.00  0.00    -0.005 C 
HETATM   10  C   LIG     1      14.948  33.814  17.627  1.00  0.00     0.011 C 
HETATM   11  C   LIG     1      13.103  32.279  16.877  1.00  0.00     0.011 C 
ENDBRANCH   8   9
ENDBRANCH   3   8
BRANCH   2  12
HETATM   12  S   LIG     1      17.457  33.300  12.879  1.00  0.00    -0.070 SA
BRANCH  12  13
HETATM   13  C   LIG     1      19.190  33.752  13.217  1.00  0.00     0.079 C 
HETATM   14  C   LIG     1      19.902  34.085  11.915  1.00  0.00     0.016 C 
ENDBRANCH  12  13
ENDBRANCH   2  12
TORSDOF 6
ENDMDL
MODEL 9
REMARK VINA RESULT:      -4.6      7.406      8.980
REMARK  6 active torsions:
REMARK  status: ('A' for Active; 'I' for Inactive)
REMARK       I    between atoms: C_2  and  N_6 
REMARK    1  A    between atoms: C_2  and  S_3 
REMARK    2  A    between atoms: S_3  and  C_4 
REMARK    3  A    between atoms: N_6  and  C_7 
REMARK    4  A    between atoms: N_6  and  C_11 
REMARK    5  A    between atoms: C_7  and  C_8 
REMARK    6  A    between atoms: C_11  and  C_12 
ROOT
HETATM    1  O   LIG     1      16.974  34.325  15.641  1.00  0.00    -0.260 OA
HETATM    2  C   LIG     1      16.415  33.297  15.170  1.00  0.00     0.281 C 
HETATM    3  N   LIG     1      15.491  32.536  15.981  1.00  0.00    -0.342 N 
ENDROOT
BRANCH   3   4
HETATM    4  C   LIG     1      15.367  31.077  15.791  1.00  0.00     0.130 C 
BRANCH   4   5
HETATM    5  C   LIG     1      14.109  30.681  14.989  1.00  0.00    -0.005 C 
HETATM    6  C   LIG     1      12.922  30.478  15.939  1.00  0.00     0.011 C 
HETATM    7  C   LIG     1      14.341  29.412  14.160  1.00  0.00     0.011 C 
ENDBRANCH   4   5
ENDBRANCH   3   4
BRANCH   3   8
HETATM    8  C   LIG     1      14.797  33.204  17.099  1.00  0.00     0.130 C 
BRANCH   8   9
HETATM    9  C   LIG     1      15.425  32.870  18.470  1.00  0.00    -0.005 C 
HETATM   10  C   LIG     1      14.624  31.758  19.159  1.00  0.00     0.011 C 
HETATM   11  C   LIG     1      15.499  34.106  19.378  1.00  0.00     0.011 C 
ENDBRANCH   8   9
ENDBRANCH   3   8
BRANCH   2  12
HETATM   12  S   LIG     1      16.790  32.828  13.476  1.00  0.00    -0.070 SA
BRANCH  12  13
HETATM   13  C   LIG     1      17.917  34.235  13.203  1.00  0.00     0.079 C 
HETATM   14  C   LIG     1      19.315  33.726  12.889  1.00  0.00     0.016 C 
ENDBRANCH  12  13
ENDBRANCH   2  12
TORSDOF 6
ENDMDL
MODEL 10
REMARK VINA RESULT:      -4.5      6.370      8.821
REMARK  6 active torsions:
REMARK  status: ('A' for Active; 'I' for Inactive)
REMARK       I    between atoms: C_2  and  N_6 
REMARK    1  A    between atoms: C_2  and  S_3 
REMARK    2  A    between atoms: S_3  and  C_4 
REMARK    3  A    between atoms: N_6  and  C_7 
REMARK    4  A    between atoms: N_6  and  C_11 
REMARK    5  A    between atoms: C_7  and  C_8 
REMARK    6  A    between atoms: C_11  and  C_12 
ROOT
HETATM    1  O   LIG     1      15.501  34.874  18.267  1.00  0.00    -0.260 OA
HETATM    2  C   LIG     1      15.411  33.618  18.335  1.00  0.00     0.281 C 
HETATM    3  N   LIG     1      15.266  32.833  17.130  1.00  0.00    -0.342 N 
ENDROOT
BRANCH   3   4
HETATM    4  C   LIG     1      14.503  31.569  17.157  1.00  0.00     0.130 C 
BRANCH   4   5
HETATM    5  C   LIG     1      13.365  31.532  16.115  1.00  0.00    -0.005 C 
HETATM    6  C   LIG     1      12.030  31.889  16.781  1.00  0.00     0.011 C 
HETATM    7  C   LIG     1      13.262  30.161  15.436  1.00  0.00     0.011 C 
ENDBRANCH   4   5
ENDBRANCH   3   4
BRANCH   3   8
HETATM    8  C   LIG     1      15.749  33.386  15.850  1.00  0.00     0.130 C 
BRANCH   8   9
HETATM    9  C   LIG     1      16.658  32.399  15.084  1.00  0.00    -0.005 C 
HETATM   10  C   LIG     1      18.035  33.029  14.844  1.00  0.00     0.011 C 
HETATM   11  C   LIG     1      16.034  31.971  13.749  1.00  0.00     0.011 C 
ENDBRANCH   8   9
ENDBRANCH   3   8
BRANCH   2  12
HETATM   12  S   LIG     1      15.485  32.850  19.959  1.00  0.00    -0.070 SA
BRANCH  12  13
HETATM   13  C   LIG     1      15.293  34.427  20.853  1.00  0.00     0.079 C 
HETATM   14  C   LIG     1      16.577  34.762  21.594  1.00  0.00     0.016 C 
ENDBRANCH  12  13
ENDBRANCH   2  12
TORSDOF 6
ENDMDL
MODEL 11
REMARK VINA RESULT:      -4.3      8.705     11.176
REMARK  6 active torsions:
REMARK  status: ('A' for Active; 'I' for Inactive)
REMARK       I    between atoms: C_2  and  N_6 
REMARK    1  A    between atoms: C_2  and  S_3 
REMARK    2  A    between atoms: S_3  and  C_4 
REMARK    3  A    between atoms: N_6  and  C_7 
REMARK    4  A    between atoms: N_6  and  C_11 
REMARK    5  A    between atoms: C_7  and  C_8 
REMARK    6  A    between atoms: C_11  and  C_12 
ROOT
HETATM    1  O   LIG     1      12.822  30.476  16.753  1.00  0.00    -0.260 OA
HETATM    2  C   LIG     1      13.823  31.150  16.389  1.00  0.00     0.281 C 
HETATM    3  N   LIG     1      14.558  30.779  15.200  1.00  0.00    -0.342 N 
ENDROOT
BRANCH   3   4
HETATM    4  C   LIG     1      16.009  31.037  15.115  1.00  0.00     0.130 C 
BRANCH   4   5
HETATM    5  C   LIG     1      16.338  32.440  14.560  1.00  0.00    -0.005 C 
HETATM    6  C   LIG     1      16.349  32.410  13.027  1.00  0.00     0.011 C 
HETATM    7  C   LIG     1      17.683  32.956  15.086  1.00  0.00     0.011 C 
ENDBRANCH   4   5
ENDBRANCH   3   4
BRANCH   3   8
HETATM    8  C   LIG     1      13.875  30.002  14.147  1.00  0.00     0.130 C 
BRANCH   8   9
HETATM    9  C   LIG     1      14.170  28.489  14.243  1.00  0.00    -0.005 C 
HETATM   10  C   LIG     1      15.383  28.133  13.375  1.00  0.00     0.011 C 
HETATM   11  C   LIG     1      12.958  27.646  13.824  1.00  0.00     0.011 C 
ENDBRANCH   8   9
ENDBRANCH   3   8
BRANCH   2  12
HETATM   12  S   LIG     1      14.288  32.578  17.378  1.00  0.00    -0.070 SA
BRANCH  12  13
HETATM   13  C   LIG     1      14.532  31.603  18.898  1.00  0.00     0.079 C 
HETATM   14  C   LIG     1      15.612  32.242  19.757  1.00  0.00     0.016 C 
ENDBRANCH  12  13
ENDBRANCH   2  12
TORSDOF 6
ENDMDL
MODEL 12
REMARK VINA RESULT:      -4.2      8.123     10.139
REMARK  6 active torsions:
REMARK  status: ('A' for Active; 'I' for Inactive)
REMARK       I    between atoms: C_2  and  N_6 
REMARK    1  A    between atoms: C_2  and  S_3 
REMARK    2  A    between atoms: S_3  and  C_4 
REMARK    3  A    between atoms: N_6  and  C_7 
REMARK    4  A    between atoms: N_6  and  C_11 
REMARK    5  A    between atoms: C_7  and  C_8 
REMARK    6  A    between atoms: C_11  and  C_12 
ROOT
HETATM    1  O   LIG     1      12.756  31.016  15.671  1.00  0.00    -0.260 OA
HETATM    2  C   LIG     1      14.007  30.867  15.630  1.00  0.00     0.281 C 
HETATM    3  N   LIG     1      14.865  31.683  16.460  1.00  0.00    -0.342 N 
ENDROOT
BRANCH   3   4
HETATM    4  C   LIG     1      16.217  32.049  15.994  1.00  0.00     0.130 C 
BRANCH   4   5
HETATM    5  C   LIG     1      16.203  33.160  14.922  1.00  0.00    -0.005 C 
HETATM    6  C   LIG     1      16.531  32.565  13.546  1.00  0.00     0.011 C 
HETATM    7  C   LIG     1      17.191  34.283  15.257  1.00  0.00     0.011 C 
ENDBRANCH   4   5
ENDBRANCH   3   4
BRANCH   3   8
HETATM    8  C   LIG     1      14.316  32.273  17.697  1.00  0.00     0.130 C 
BRANCH   8   9
HETATM    9  C   LIG     1      15.320  32.227  18.870  1.00  0.00    -0.005 C 
HETATM   10  C   LIG     1      14.853  31.216  19.924  1.00  0.00     0.011 C 
HETATM   11  C   LIG     1      15.508  33.609  19.512  1.00  0.00     0.011 C 
ENDBRANCH   8   9
ENDBRANCH   3   8
BRANCH   2  12
HETATM   12  S   LIG     1      14.676  29.613  14.529  1.00  0.00    -0.070 SA
BRANCH  12  13
HETATM   13  C   LIG     1      13.041  28.917  14.124  1.00  0.00     0.079 C 
HETATM   14  C   LIG     1      13.182  27.452  13.741  1.00  0.00     0.016 C 
ENDBRANCH  12  13
ENDBRANCH   2  12
TORSDOF 6
ENDMDL
MODEL 13
REMARK VINA RESULT:      -4.0      8.383     10.371
REMARK  6 active torsions:
REMARK  status: ('A' for Active; 'I' for Inactive)
REMARK       I    between atoms: C_2  and  N_6 
REMARK    1  A    between atoms: C_2  and  S_3 
REMARK    2  A    between atoms: S_3  and  C_4 
REMARK    3  A    between atoms: N_6  and  C_7 
REMARK    4  A    between atoms: N_6  and  C_11 
REMARK    5  A    between atoms: C_7  and  C_8 
REMARK    6  A    between atoms: C_11  and  C_12 
ROOT
HETATM    1  O   LIG     1      15.044  34.593  16.293  1.00  0.00    -0.260 OA
HETATM    2  C   LIG     1      15.570  33.450  16.382  1.00  0.00     0.281 C 
HETATM    3  N   LIG     1      16.634  33.066  15.481  1.00  0.00    -0.342 N 
ENDROOT
BRANCH   3   4
HETATM    4  C   LIG     1      16.788  31.655  15.075  1.00  0.00     0.130 C 
BRANCH   4   5
HETATM    5  C   LIG     1      15.547  31.101  14.342  1.00  0.00    -0.005 C 
HETATM    6  C   LIG     1      15.511  29.572  14.451  1.00  0.00     0.011 C 
HETATM    7  C   LIG     1      15.523  31.525  12.869  1.00  0.00     0.011 C 
ENDBRANCH   4   5
ENDBRANCH   3   4
BRANCH   3   8
HETATM    8  C   LIG     1      17.457  34.118  14.852  1.00  0.00     0.130 C 
BRANCH   8   9
HETATM    9  C   LIG     1      17.927  33.733  13.432  1.00  0.00    -0.005 C 
HETATM   10  C   LIG     1      19.457  33.655  13.386  1.00  0.00     0.011 C 
HETATM   11  C   LIG     1      17.417  34.724  12.377  1.00  0.00     0.011 C 
ENDBRANCH   8   9
ENDBRANCH   3   8
BRANCH   2  12
HETATM   12  S   LIG     1      14.968  32.337  17.659  1.00  0.00    -0.070 SA
BRANCH  12  13
HETATM   13  C   LIG     1      13.286  32.248  16.965  1.00  0.00     0.079 C 
HETATM   14  C   LIG     1      12.945  30.808  16.614  1.00  0.00     0.016 C 
ENDBRANCH  12  13
ENDBRANCH   2  12
TORSDOF 6
ENDMDL
MODEL 14
REMARK VINA RESULT:      -4.0      6.046      8.459
REMARK  6 active torsions:
REMARK  status: ('A' for Active; 'I' for Inactive)
REMARK       I    between atoms: C_2  and  N_6 
REMARK    1  A    between atoms: C_2  and  S_3 
REMARK    2  A    between atoms: S_3  and  C_4 
REMARK    3  A    between atoms: N_6  and  C_7 
REMARK    4  A    between atoms: N_6  and  C_11 
REMARK    5  A    between atoms: C_7  and  C_8 
REMARK    6  A    between atoms: C_11  and  C_12 
ROOT
HETATM    1  O   LIG     1      15.723  32.194  19.784  1.00  0.00    -0.260 OA
HETATM    2  C   LIG     1      15.454  33.099  18.949  1.00  0.00     0.281 C 
HETATM    3  N   LIG     1      14.971  32.754  17.631  1.00  0.00    -0.342 N 
ENDROOT
BRANCH   3   4
HETATM    4  C   LIG     1      15.293  33.614  16.475  1.00  0.00     0.130 C 
BRANCH   4   5
HETATM    5  C   LIG     1      16.506  33.105  15.667  1.00  0.00    -0.005 C 
HETATM    6  C   LIG     1      17.327  34.292  15.147  1.00  0.00     0.011 C 
HETATM    7  C   LIG     1      16.074  32.212  14.497  1.00  0.00     0.011 C 
ENDBRANCH   4   5
ENDBRANCH   3   4
BRANCH   3   8
HETATM    8  C   LIG     1      14.292  31.458  17.431  1.00  0.00     0.130 C 
BRANCH   8   9
HETATM    9  C   LIG     1      13.280  31.494  16.265  1.00  0.00    -0.005 C 
HETATM   10  C   LIG     1      11.908  31.951  16.772  1.00  0.00     0.011 C 
HETATM   11  C   LIG     1      13.159  30.127  15.575  1.00  0.00     0.011 C 
ENDBRANCH   8   9
ENDBRANCH   3   8
BRANCH   2  12
HETATM   12  S   LIG     1      15.675  34.810  19.454  1.00  0.00    -0.070 SA
BRANCH  12  13
HETATM   13  C   LIG     1      15.566  34.431  21.233  1.00  0.00     0.079 C 
HETATM   14  C   LIG     1      16.726  35.079  21.974  1.00  0.00     0.016 C 
ENDBRANCH  12  13
ENDBRANCH   2  12
TORSDOF 6
ENDMDL
MODEL 15
REMARK VINA RESULT:      -3.7     15.662     16.399
REMARK  6 active torsions:
REMARK  status: ('A' for Active; 'I' for Inactive)
REMARK       I    between atoms: C_2  and  N_6 
REMARK    1  A    between atoms: C_2  and  S_3 
REMARK    2  A    between atoms: S_3  and  C_4 
REMARK    3  A    between atoms: N_6  and  C_7 
REMARK    4  A    between atoms: N_6  and  C_11 
REMARK    5  A    between atoms: C_7  and  C_8 
REMARK    6  A    between atoms: C_11  and  C_12 
ROOT
HETATM    1  O   LIG     1      27.142  23.926  20.991  1.00  0.00    -0.260 OA
HETATM    2  C   LIG     1      26.276  23.976  20.075  1.00  0.00     0.281 C 
HETATM    3  N   LIG     1      25.348  22.883  19.892  1.00  0.00    -0.342 N 
ENDROOT
BRANCH   3   4
HETATM    4  C   LIG     1      24.840  22.561  18.543  1.00  0.00     0.130 C 
BRANCH   4   5
HETATM    5  C   LIG     1      24.404  21.086  18.403  1.00  0.00    -0.005 C 
HETATM    6  C   LIG     1      25.220  20.400  17.300  1.00  0.00     0.011 C 
HETATM    7  C   LIG     1      22.906  20.965  18.100  1.00  0.00     0.011 C 
ENDBRANCH   4   5
ENDBRANCH   3   4
BRANCH   3   8
HETATM    8  C   LIG     1      25.040  22.002  21.036  1.00  0.00     0.130 C 
BRANCH   8   9
HETATM    9  C   LIG     1      24.029  22.636  22.016  1.00  0.00    -0.005 C 
HETATM   10  C   LIG     1      24.020  21.859  23.338  1.00  0.00     0.011 C 
HETATM   11  C   LIG     1      22.614  22.682  21.422  1.00  0.00     0.011 C 
ENDBRANCH   8   9
ENDBRANCH   3   8
BRANCH   2  12
HETATM   12  S   LIG     1      26.230  25.439  19.032  1.00  0.00    -0.070 SA
BRANCH  12  13
HETATM   13  C   LIG     1      27.798  26.105  19.679  1.00  0.00     0.079 C 
HETATM   14  C   LIG     1      28.499  26.918  18.603  1.00  0.00     0.016 C 
ENDBRANCH  12  13
ENDBRANCH   2  12
TORSDOF 6
ENDMDL
MODEL 16
REMARK VINA RESULT:      -3.6      8.535     10.692
REMARK  6 active torsions:
REMARK  status: ('A' for Active; 'I' for Inactive)
REMARK       I    between atoms: C_2  and  N_6 
REMARK    1  A    between atoms: C_2  and  S_3 
REMARK    2  A    between atoms: S_3  and  C_4 
REMARK    3  A    between atoms: N_6  and  C_7 
REMARK    4  A    between atoms: N_6  and  C_11 
REMARK    5  A    between atoms: C_7  and  C_8 
REMARK    6  A    between atoms: C_11  and  C_12 
ROOT
HETATM    1  O   LIG     1      14.075  30.515  16.027  1.00  0.00    -0.260 OA
HETATM    2  C   LIG     1      14.880  30.718  15.078  1.00  0.00     0.281 C 
HETATM    3  N   LIG     1      15.806  31.827  15.135  1.00  0.00    -0.342 N 
ENDROOT
BRANCH   3   4
HETATM    4  C   LIG     1      16.231  32.502  13.893  1.00  0.00     0.130 C 
BRANCH   4   5
HETATM    5  C   LIG     1      17.604  33.195  14.025  1.00  0.00    -0.005 C 
HETATM    6  C   LIG     1      17.426  34.612  14.586  1.00  0.00     0.011 C 
HETATM    7  C   LIG     1      18.342  33.251  12.682  1.00  0.00     0.011 C 
ENDBRANCH   4   5
ENDBRANCH   3   4
BRANCH   3   8
HETATM    8  C   LIG     1      16.195  32.371  16.451  1.00  0.00     0.130 C 
BRANCH   8   9
HETATM    9  C   LIG     1      14.980  32.846  17.277  1.00  0.00    -0.005 C 
HETATM   10  C   LIG     1      14.795  34.360  17.119  1.00  0.00     0.011 C 
HETATM   11  C   LIG     1      15.127  32.486  18.762  1.00  0.00     0.011 C 
ENDBRANCH   8   9
ENDBRANCH   3   8
BRANCH   2  12
HETATM   12  S   LIG     1      14.845  29.589  13.680  1.00  0.00    -0.070 SA
BRANCH  12  13
HETATM   13  C   LIG     1      13.213  28.903  14.114  1.00  0.00     0.079 C 
HETATM   14  C   LIG     1      13.138  27.441  13.701  1.00  0.00     0.016 C 
ENDBRANCH  12  13
ENDBRANCH   2  12
TORSDOF 6
ENDMDL
MODEL 17
REMARK VINA RESULT:      -3.5     16.020     17.249
REMARK  6 active torsions:
REMARK  status: ('A' for Active; 'I' for Inactive)
REMARK       I    between atoms: C_2  and  N_6 
REMARK    1  A    between atoms: C_2  and  S_3 
REMARK    2  A    between atoms: S_3  and  C_4 
REMARK    3  A    between atoms: N_6  and  C_7 
REMARK    4  A    between atoms: N_6  and  C_11 
REMARK    5  A    between atoms: C_7  and  C_8 
REMARK    6  A    between atoms: C_11  and  C_12 
ROOT
HETATM    1  O   LIG     1      25.613  21.251  18.417  1.00  0.00    -0.260 OA
HETATM    2  C   LIG     1      24.718  21.917  19.005  1.00  0.00     0.281 C 
HETATM    3  N   LIG     1      25.076  22.857  20.044  1.00  0.00    -0.342 N 
ENDROOT
BRANCH   3   4
HETATM    4  C   LIG     1      24.148  23.111  21.164  1.00  0.00     0.130 C 
BRANCH   4   5
HETATM    5  C   LIG     1      24.215  22.023  22.258  1.00  0.00    -0.005 C 
HETATM    6  C   LIG     1      22.859  21.318  22.381  1.00  0.00     0.011 C 
HETATM    7  C   LIG     1      24.628  22.608  23.614  1.00  0.00     0.011 C 
ENDBRANCH   4   5
ENDBRANCH   3   4
BRANCH   3   8
HETATM    8  C   LIG     1      26.435  23.433  20.055  1.00  0.00     0.130 C 
BRANCH   8   9
HETATM    9  C   LIG     1      26.516  24.771  19.288  1.00  0.00    -0.005 C 
HETATM   10  C   LIG     1      27.117  24.544  17.895  1.00  0.00     0.011 C 
HETATM   11  C   LIG     1      27.341  25.816  20.053  1.00  0.00     0.011 C 
ENDBRANCH   8   9
ENDBRANCH   3   8
BRANCH   2  12
HETATM   12  S   LIG     1      23.010  21.672  18.502  1.00  0.00    -0.070 SA
BRANCH  12  13
HETATM   13  C   LIG     1      22.990  19.913  18.978  1.00  0.00     0.079 C 
HETATM   14  C   LIG     1      22.208  19.107  17.953  1.00  0.00     0.016 C 
ENDBRANCH  12  13
ENDBRANCH   2  12
TORSDOF 6
ENDMDL
MODEL 18
REMARK VINA RESULT:      -3.4     18.122     20.480
REMARK  6 active torsions:
REMARK  status: ('A' for Active; 'I' for Inactive)
REMARK       I    between atoms: C_2  and  N_6 
REMARK    1  A    between atoms: C_2  and  S_3 
REMARK    2  A    between atoms: S_3  and  C_4 
REMARK    3  A    between atoms: N_6  and  C_7 
REMARK    4  A    between atoms: N_6  and  C_11 
REMARK    5  A    between atoms: C_7  and  C_8 
REMARK    6  A    between atoms: C_11  and  C_12 
ROOT
HETATM    1  O   LIG     1      21.137  24.274  36.109  1.00  0.00    -0.260 OA
HETATM    2  C   LIG     1      21.437  23.061  36.277  1.00  0.00     0.281 C 
HETATM    3  N   LIG     1      20.534  22.020  35.839  1.00  0.00    -0.342 N 
ENDROOT
BRANCH   3   4
HETATM    4  C   LIG     1      20.470  20.739  36.570  1.00  0.00     0.130 C 
BRANCH   4   5
HETATM    5  C   LIG     1      19.191  19.933  36.256  1.00  0.00    -0.005 C 
HETATM    6  C   LIG     1      18.447  19.601  37.556  1.00  0.00     0.011 C 
HETATM    7  C   LIG     1      19.508  18.644  35.489  1.00  0.00     0.011 C 
ENDBRANCH   4   5
ENDBRANCH   3   4
BRANCH   3   8
HETATM    8  C   LIG     1      19.571  22.312  34.758  1.00  0.00     0.130 C 
BRANCH   8   9
HETATM    9  C   LIG     1      20.233  22.319  33.362  1.00  0.00    -0.005 C 
HETATM   10  C   LIG     1      19.517  23.318  32.445  1.00  0.00     0.011 C 
HETATM   11  C   LIG     1      20.230  20.923  32.725  1.00  0.00     0.011 C 
ENDBRANCH   8   9
ENDBRANCH   3   8
BRANCH   2  12
HETATM   12  S   LIG     1      23.011  22.678  37.055  1.00  0.00    -0.070 SA
BRANCH  12  13
HETATM   13  C   LIG     1      23.891  22.487  35.471  1.00  0.00     0.079 C 
HETATM   14  C   LIG     1      25.224  21.791  35.698  1.00  0.00     0.016 C 
ENDBRANCH  12  13
ENDBRANCH   2  12
TORSDOF 6
ENDMDL
MODEL 19
REMARK VINA RESULT:      -3.2     17.416     19.166
REMARK  6 active torsions:
REMARK  status: ('A' for Active; 'I' for Inactive)
REMARK       I    between atoms: C_2  and  N_6 
REMARK    1  A    between atoms: C_2  and  S_3 
REMARK    2  A    between atoms: S_3  and  C_4 
REMARK    3  A    between atoms: N_6  and  C_7 
REMARK    4  A    between atoms: N_6  and  C_11 
REMARK    5  A    between atoms: C_7  and  C_8 
REMARK    6  A    between atoms: C_11  and  C_12 
ROOT
HETATM    1  O   LIG     1      18.922  23.532  32.602  1.00  0.00    -0.260 OA
HETATM    2  C   LIG     1      19.853  22.683  32.656  1.00  0.00     0.281 C 
HETATM    3  N   LIG     1      19.843  21.536  31.776  1.00  0.00    -0.342 N 
ENDROOT
BRANCH   3   4
HETATM    4  C   LIG     1      20.431  20.257  32.220  1.00  0.00     0.130 C 
BRANCH   4   5
HETATM    5  C   LIG     1      19.562  19.527  33.266  1.00  0.00    -0.005 C 
HETATM    6  C   LIG     1      20.389  19.232  34.524  1.00  0.00     0.011 C 
HETATM    7  C   LIG     1      18.975  18.226  32.706  1.00  0.00     0.011 C 
ENDBRANCH   4   5
ENDBRANCH   3   4
BRANCH   3   8
HETATM    8  C   LIG     1      19.102  21.615  30.501  1.00  0.00     0.130 C 
BRANCH   8   9
HETATM    9  C   LIG     1      19.483  20.481  29.525  1.00  0.00    -0.005 C 
HETATM   10  C   LIG     1      19.973  21.071  28.197  1.00  0.00     0.011 C 
HETATM   11  C   LIG     1      18.306  19.527  29.274  1.00  0.00     0.011 C 
ENDBRANCH   8   9
ENDBRANCH   3   8
BRANCH   2  12
HETATM   12  S   LIG     1      21.180  22.954  33.838  1.00  0.00    -0.070 SA
BRANCH  12  13
HETATM   13  C   LIG     1      20.064  22.960  35.279  1.00  0.00     0.079 C 
HETATM   14  C   LIG     1      20.613  23.884  36.356  1.00  0.00     0.016 C 
ENDBRANCH  12  13
ENDBRANCH   2  12
TORSDOF 6
ENDMDL
MODEL 20
REMARK VINA RESULT:      -3.1     18.480     20.263
REMARK  6 active torsions:
REMARK  status: ('A' for Active; 'I' for Inactive)
REMARK       I    between atoms: C_2  and  N_6 
REMARK    1  A    between atoms: C_2  and  S_3 
REMARK    2  A    between atoms: S_3  and  C_4 
REMARK    3  A    between atoms: N_6  and  C_7 
REMARK    4  A    between atoms: N_6  and  C_11 
REMARK    5  A    between atoms: C_7  and  C_8 
REMARK    6  A    between atoms: C_11  and  C_12 
ROOT
HETATM    1  O   LIG     1      19.600  23.172  33.314  1.00  0.00    -0.260 OA
HETATM    2  C   LIG     1      20.059  22.507  34.282  1.00  0.00     0.281 C 
HETATM    3  N   LIG     1      20.473  21.135  34.092  1.00  0.00    -0.342 N 
ENDROOT
BRANCH   3   4
HETATM    4  C   LIG     1      20.348  20.163  35.196  1.00  0.00     0.130 C 
BRANCH   4   5
HETATM    5  C   LIG     1      18.881  19.893  35.595  1.00  0.00    -0.005 C 
HETATM    6  C   LIG     1      18.752  19.846  37.123  1.00  0.00     0.011 C 
HETATM    7  C   LIG     1      18.359  18.588  34.983  1.00  0.00     0.011 C 
ENDBRANCH   4   5
ENDBRANCH   3   4
BRANCH   3   8
HETATM    8  C   LIG     1      20.870  20.685  32.743  1.00  0.00     0.130 C 
BRANCH   8   9
HETATM    9  C   LIG     1      19.693  20.069  31.955  1.00  0.00    -0.005 C 
HETATM   10  C   LIG     1      20.001  18.609  31.603  1.00  0.00     0.011 C 
HETATM   11  C   LIG     1      19.385  20.865  30.679  1.00  0.00     0.011 C 
ENDBRANCH   8   9
ENDBRANCH   3   8
BRANCH   2  12
HETATM   12  S   LIG     1      20.193  23.319  35.881  1.00  0.00    -0.070 SA
BRANCH  12  13
HETATM   13  C   LIG     1      21.998  23.542  35.758  1.00  0.00     0.079 C 
HETATM   14  C   LIG     1      22.658  23.165  37.075  1.00  0.00     0.016 C 
ENDBRANCH  12  13
ENDBRANCH   2  12
TORSDOF 6
ENDMDL
