REMARK  6 active torsions:
REMARK  status: ('A' for Active; 'I' for Inactive)
REMARK       I    between atoms: C_2  and  N_6 
REMARK    1  A    between atoms: C_2  and  S_3 
REMARK    2  A    between atoms: S_3  and  C_4 
REMARK    3  A    between atoms: N_6  and  C_7 
REMARK    4  A    between atoms: N_6  and  C_11 
REMARK    5  A    between atoms: C_7  and  C_8 
REMARK    6  A    between atoms: C_11  and  C_12 
ROOT
HETATM    1  O   LIG     1       1.635  -1.555  -1.594  1.00  0.00    -0.260 OA
HETATM    2  C   LIG     1       1.156  -0.439  -1.255  1.00  0.00     0.281 C 
HETATM    3  N   LIG     1      -0.011  -0.376  -0.404  1.00  0.00    -0.342 N 
ENDROOT
BRANCH   3   4
HETATM    4  C   LIG     1      -0.968   0.740  -0.540  1.00  0.00     0.130 C 
BRANCH   4   5
HETATM    5  C   LIG     1      -1.222   1.479   0.792  1.00  0.00    -0.005 C 
HETATM    6  C   LIG     1      -2.197   2.642   0.570  1.00  0.00     0.011 C 
HETATM    7  C   LIG     1       0.082   1.997   1.410  1.00  0.00     0.011 C 
ENDBRANCH   4   5
ENDBRANCH   3   4
BRANCH   3   8
HETATM    8  C   LIG     1      -0.314  -1.515   0.485  1.00  0.00     0.130 C 
BRANCH   8   9
HETATM    9  C   LIG     1      -1.538  -2.328   0.009  1.00  0.00    -0.005 C 
HETATM   10  C   LIG     1      -1.817  -3.479   0.983  1.00  0.00     0.011 C 
HETATM   11  C   LIG     1      -1.339  -2.876  -1.411  1.00  0.00     0.011 C 
ENDBRANCH   8   9
ENDBRANCH   3   8
BRANCH   2  12
HETATM   12  S   LIG     1       1.973   1.049  -1.847  1.00  0.00    -0.070 SA
BRANCH  12  13
HETATM   13  C   LIG     1       3.243   1.023  -0.540  1.00  0.00     0.079 C 
HETATM   14  C   LIG     1       4.080   2.291  -0.605  1.00  0.00     0.016 C 
ENDBRANCH  12  13
ENDBRANCH   2  12
TORSDOF 6
