REMARK  6 active torsions:
REMARK  status: ('A' for Active; 'I' for Inactive)
REMARK    1  A    between atoms: O_2  and  C_3 
REMARK       I    between atoms: N_7  and  C_15 
REMARK    2  A    between atoms: C_10  and  C_11 
REMARK    3  A    between atoms: C_11  and  C_12 
REMARK    4  A    between atoms: C_12  and  O_13 
REMARK    5  A    between atoms: C_15  and  C_16 
REMARK    6  A    between atoms: C_17  and  C_18 
ROOT
HETATM    1  C   LIG     1       3.856  -1.505   0.425  1.00  0.00     0.069 A 
HETATM    2  C   LIG     1       3.679  -0.169   0.017  1.00  0.00     0.051 A 
HETATM    3  C   LIG     1       2.384   0.349  -0.017  1.00  0.00     0.003 A 
HETATM    4  C   LIG     1       1.290  -0.410   0.318  1.00  0.00     0.053 A 
HETATM    5  N   LIG     1       0.156   0.317   0.210  1.00  0.00    -0.282 N 
HETATM    6  C   LIG     1       0.536   1.556  -0.198  1.00  0.00     0.024 A 
HETATM    7  C   LIG     1      -0.409   2.700  -0.425  1.00  0.00     0.069 C 
HETATM    8  C   LIG     1       1.926   1.616  -0.332  1.00  0.00    -0.013 A 
HETATM    9  C   LIG     1      -1.185  -0.112   0.491  1.00  0.00     0.252 C 
HETATM   10  O   LIG     1      -1.871   0.531   1.329  1.00  0.00    -0.268 OA
HETATM   11  C   LIG     1       1.432  -1.731   0.752  1.00  0.00     0.034 A 
HETATM   12  C   LIG     1       2.725  -2.281   0.797  1.00  0.00     0.039 A 
ENDROOT
BRANCH   9  13
HETATM   13  C   LIG     1      -1.737  -1.306  -0.191  1.00  0.00     0.076 C 
HETATM   14  C   LIG     1      -3.030  -1.668  -0.214  1.00  0.00     0.017 C 
BRANCH  14  15
HETATM   15  C   LIG     1      -4.155  -0.850   0.282  1.00  0.00    -0.036 A 
HETATM   16  C   LIG     1      -4.336   0.475  -0.152  1.00  0.00     0.011 A 
HETATM   17  C   LIG     1      -5.435   1.216   0.290  1.00  0.00     0.001 A 
HETATM   18  C   LIG     1      -6.372   0.635   1.150  1.00  0.00     0.000 A 
HETATM   19  C   LIG     1      -6.214  -0.692   1.561  1.00  0.00     0.001 A 
HETATM   20  C   LIG     1      -5.115  -1.436   1.120  1.00  0.00     0.011 A 
ENDBRANCH  14  15
ENDBRANCH   9  13
BRANCH   8  21
HETATM   21  C   LIG     1       2.749   2.788  -0.784  1.00  0.00     0.151 C 
BRANCH  21  22
HETATM   22  C   LIG     1       2.865   2.791  -2.275  1.00  0.00     0.143 C 
HETATM   23  O   LIG     1       2.380   3.742  -2.945  1.00  0.00    -0.650 OA
BRANCH  22  24
HETATM   24  O   LIG     1       3.515   1.745  -2.922  1.00  0.00    -0.776 OA
HETATM   25  H   LIG     1       3.602   1.733  -3.931  1.00  0.00     0.167 HD
ENDBRANCH  22  24
ENDBRANCH  21  22
ENDBRANCH   8  21
BRANCH   1  26
HETATM   26  O   LIG     1       5.160  -2.021   0.453  1.00  0.00    -0.356 OA
HETATM   27  C   LIG     1       5.489  -3.350   0.842  1.00  0.00     0.210 C 
ENDBRANCH   1  26
TORSDOF 6
