REMARK  8 active torsions:
REMARK  status: ('A' for Active; 'I' for Inactive)
REMARK    1  A    between atoms: C_2  and  C_3 
REMARK    2  A    between atoms: C_3  and  C_4 
REMARK    3  A    between atoms: C_4  and  C_5 
REMARK    4  A    between atoms: C_5  and  C_6 
REMARK    5  A    between atoms: C_6  and  C_7 
REMARK    6  A    between atoms: C_7  and  C_8 
REMARK    7  A    between atoms: C_8  and  O_9 
REMARK    8  A    between atoms: O_9  and  C_10 
REMARK       I    between atoms: C_10  and  N_11 
ROOT
HETATM    1  C   LIG     1      -1.334  -0.191   1.133  1.00  0.00     0.027 C 
ENDROOT
BRANCH   1   2
HETATM    2  C   LIG     1      -0.397   0.283   0.004  1.00  0.00     0.002 C 
BRANCH   2   3
HETATM    3  C   LIG     1       0.380  -0.864  -0.673  1.00  0.00     0.000 C 
BRANCH   3   4
HETATM    4  C   LIG     1       1.567  -1.375   0.174  1.00  0.00     0.000 C 
BRANCH   4   5
HETATM    5  C   LIG     1       2.935  -0.882  -0.327  1.00  0.00    -0.000 C 
BRANCH   5   6
HETATM    6  C   LIG     1       3.123   0.630  -0.143  1.00  0.00    -0.005 C 
HETATM    7  C   LIG     1       4.537   1.058  -0.524  1.00  0.00     0.005 C 
ENDBRANCH   5   6
ENDBRANCH   4   5
ENDBRANCH   3   4
ENDBRANCH   2   3
ENDBRANCH   1   2
BRANCH   1   8
HETATM    8  C   LIG     1      -2.635  -0.818   0.620  1.00  0.00     0.180 C 
BRANCH   8   9
HETATM    9  O   LIG     1      -3.381   0.141  -0.132  1.00  0.00    -0.304 OA
BRANCH   9  10
HETATM   10  C   LIG     1      -4.663   0.585   0.213  1.00  0.00     0.358 C 
HETATM   11  N   LIG     1      -5.316   1.544  -0.614  1.00  0.00    -0.346 N 
HETATM   12  H   LIG     1      -4.841   1.910  -1.469  1.00  0.00     0.161 HD
HETATM   13  H   LIG     1      -6.272   1.888  -0.374  1.00  0.00     0.161 HD
HETATM   14  O   LIG     1      -5.246   0.151   1.243  1.00  0.00    -0.239 OA
ENDBRANCH   9  10
ENDBRANCH   8   9
ENDBRANCH   1   8
TORSDOF 8
