MODEL 1
REMARK VINA RESULT:      -6.6      0.000      0.000
REMARK  3 active torsions:
REMARK  status: ('A' for Active; 'I' for Inactive)
REMARK       I    between atoms: N_2  and  C_3 
REMARK    1  A    between atoms: C_3  and  O_4 
REMARK    2  A    between atoms: O_4  and  C_5 
REMARK    3  A    between atoms: C_8  and  N_12 
ROOT
HETATM    1  C   LIG     1      17.191  37.757  22.869  1.00  0.00     0.081 A 
HETATM    2  C   LIG     1      17.929  38.940  22.776  1.00  0.00     0.040 A 
HETATM    3  C   LIG     1      18.618  39.255  21.604  1.00  0.00     0.033 A 
HETATM    4  C   LIG     1      18.593  38.382  20.508  1.00  0.00     0.035 A 
HETATM    5  C   LIG     1      17.890  37.160  20.605  1.00  0.00    -0.033 A 
HETATM    6  C   LIG     1      17.860  36.186  19.460  1.00  0.00     0.050 C 
HETATM    7  C   LIG     1      17.184  36.863  21.784  1.00  0.00     0.046 A 
ENDROOT
BRANCH   1   8
HETATM    8  O   LIG     1      16.514  37.488  24.068  1.00  0.00    -0.262 OA
BRANCH   8   9
HETATM    9  C   LIG     1      17.059  37.616  25.353  1.00  0.00     0.365 C 
HETATM   10  N   LIG     1      17.557  36.460  26.032  1.00  0.00    -0.341 N 
HETATM   11  C   LIG     1      17.477  35.133  25.435  1.00  0.00     0.151 C 
HETATM   12  H   LIG     1      17.983  36.566  26.981  1.00  0.00     0.164 HD
HETATM   13  O   LIG     1      17.166  38.746  25.901  1.00  0.00    -0.238 OA
ENDBRANCH   8   9
ENDBRANCH   1   8
BRANCH   4  14
HETATM   14  N   LIG     1      19.290  38.734  19.301  1.00  0.00    -0.389 N 
HETATM   15  C   LIG     1      20.751  38.764  19.301  1.00  0.00     0.149 C 
HETATM   16  C   LIG     1      18.575  39.471  18.260  1.00  0.00     0.149 C 
ENDBRANCH   4  14
TORSDOF 3
ENDMDL
MODEL 2
REMARK VINA RESULT:      -6.3      2.833      5.931
REMARK  3 active torsions:
REMARK  status: ('A' for Active; 'I' for Inactive)
REMARK       I    between atoms: N_2  and  C_3 
REMARK    1  A    between atoms: C_3  and  O_4 
REMARK    2  A    between atoms: O_4  and  C_5 
REMARK    3  A    between atoms: C_8  and  N_12 
ROOT
HETATM    1  C   LIG     1      18.404  38.674  20.412  1.00  0.00     0.081 A 
HETATM    2  C   LIG     1      18.504  37.364  19.933  1.00  0.00     0.040 A 
HETATM    3  C   LIG     1      17.871  36.315  20.601  1.00  0.00     0.033 A 
HETATM    4  C   LIG     1      17.138  36.556  21.771  1.00  0.00     0.035 A 
HETATM    5  C   LIG     1      17.067  37.867  22.292  1.00  0.00    -0.033 A 
HETATM    6  C   LIG     1      16.310  38.163  23.557  1.00  0.00     0.050 C 
HETATM    7  C   LIG     1      17.693  38.919  21.600  1.00  0.00     0.046 A 
ENDROOT
BRANCH   1   8
HETATM    8  O   LIG     1      19.057  39.693  19.703  1.00  0.00    -0.262 OA
BRANCH   8   9
HETATM    9  C   LIG     1      20.013  39.497  18.697  1.00  0.00     0.365 C 
HETATM   10  N   LIG     1      19.659  39.711  17.328  1.00  0.00    -0.341 N 
HETATM   11  C   LIG     1      18.306  40.094  16.943  1.00  0.00     0.151 C 
HETATM   12  H   LIG     1      20.383  39.584  16.585  1.00  0.00     0.164 HD
HETATM   13  O   LIG     1      21.200  39.184  18.985  1.00  0.00    -0.238 OA
ENDBRANCH   8   9
ENDBRANCH   1   8
BRANCH   4  14
HETATM   14  N   LIG     1      16.473  35.467  22.431  1.00  0.00    -0.389 N 
HETATM   15  C   LIG     1      17.038  34.926  23.666  1.00  0.00     0.149 C 
HETATM   16  C   LIG     1      15.539  34.640  21.668  1.00  0.00     0.149 C 
ENDBRANCH   4  14
TORSDOF 3
ENDMDL
MODEL 3
REMARK VINA RESULT:      -6.3      2.580      5.825
REMARK  3 active torsions:
REMARK  status: ('A' for Active; 'I' for Inactive)
REMARK       I    between atoms: N_2  and  C_3 
REMARK    1  A    between atoms: C_3  and  O_4 
REMARK    2  A    between atoms: O_4  and  C_5 
REMARK    3  A    between atoms: C_8  and  N_12 
ROOT
HETATM    1  C   LIG     1      18.385  37.843  20.257  1.00  0.00     0.081 A 
HETATM    2  C   LIG     1      18.558  38.830  21.231  1.00  0.00     0.040 A 
HETATM    3  C   LIG     1      18.163  38.602  22.549  1.00  0.00     0.033 A 
HETATM    4  C   LIG     1      17.571  37.385  22.914  1.00  0.00     0.035 A 
HETATM    5  C   LIG     1      17.346  36.396  21.930  1.00  0.00    -0.033 A 
HETATM    6  C   LIG     1      16.693  35.087  22.277  1.00  0.00     0.050 C 
HETATM    7  C   LIG     1      17.766  36.630  20.609  1.00  0.00     0.046 A 
ENDROOT
BRANCH   1   8
HETATM    8  O   LIG     1      18.801  38.120  18.946  1.00  0.00    -0.262 OA
BRANCH   8   9
HETATM    9  C   LIG     1      19.813  39.023  18.591  1.00  0.00     0.365 C 
HETATM   10  N   LIG     1      19.694  39.789  17.389  1.00  0.00    -0.341 N 
HETATM   11  C   LIG     1      18.555  39.628  16.494  1.00  0.00     0.151 C 
HETATM   12  H   LIG     1      20.441  40.476  17.142  1.00  0.00     0.164 HD
HETATM   13  O   LIG     1      20.807  39.209  19.344  1.00  0.00    -0.238 OA
ENDBRANCH   8   9
ENDBRANCH   1   8
BRANCH   4  14
HETATM   14  N   LIG     1      17.192  37.159  24.282  1.00  0.00    -0.389 N 
HETATM   15  C   LIG     1      17.054  38.301  25.183  1.00  0.00     0.149 C 
HETATM   16  C   LIG     1      17.384  35.830  24.860  1.00  0.00     0.149 C 
ENDBRANCH   4  14
TORSDOF 3
ENDMDL
MODEL 4
REMARK VINA RESULT:      -6.1      9.610     11.804
REMARK  3 active torsions:
REMARK  status: ('A' for Active; 'I' for Inactive)
REMARK       I    between atoms: N_2  and  C_3 
REMARK    1  A    between atoms: C_3  and  O_4 
REMARK    2  A    between atoms: O_4  and  C_5 
REMARK    3  A    between atoms: C_8  and  N_12 
ROOT
HETATM    1  C   LIG     1      13.519  30.013  14.813  1.00  0.00     0.081 A 
HETATM    2  C   LIG     1      12.829  30.375  15.974  1.00  0.00     0.040 A 
HETATM    3  C   LIG     1      13.351  31.338  16.837  1.00  0.00     0.033 A 
HETATM    4  C   LIG     1      14.584  31.946  16.563  1.00  0.00     0.035 A 
HETATM    5  C   LIG     1      15.315  31.555  15.420  1.00  0.00    -0.033 A 
HETATM    6  C   LIG     1      16.652  32.167  15.103  1.00  0.00     0.050 C 
HETATM    7  C   LIG     1      14.770  30.598  14.546  1.00  0.00     0.046 A 
ENDROOT
BRANCH   1   8
HETATM    8  O   LIG     1      12.951  29.041  13.976  1.00  0.00    -0.262 OA
BRANCH   8   9
HETATM    9  C   LIG     1      13.543  27.816  13.637  1.00  0.00     0.365 C 
HETATM   10  N   LIG     1      12.763  26.800  13.001  1.00  0.00    -0.341 N 
HETATM   11  C   LIG     1      11.344  26.991  12.728  1.00  0.00     0.151 C 
HETATM   12  H   LIG     1      13.216  25.899  12.731  1.00  0.00     0.164 HD
HETATM   13  O   LIG     1      14.772  27.615  13.837  1.00  0.00    -0.238 OA
ENDBRANCH   8   9
ENDBRANCH   1   8
BRANCH   4  14
HETATM   14  N   LIG     1      15.094  32.953  17.452  1.00  0.00    -0.389 N 
HETATM   15  C   LIG     1      15.293  32.628  18.863  1.00  0.00     0.149 C 
HETATM   16  C   LIG     1      14.985  34.359  17.067  1.00  0.00     0.149 C 
ENDBRANCH   4  14
TORSDOF 3
ENDMDL
MODEL 5
REMARK VINA RESULT:      -5.9      8.749     10.927
REMARK  3 active torsions:
REMARK  status: ('A' for Active; 'I' for Inactive)
REMARK       I    between atoms: N_2  and  C_3 
REMARK    1  A    between atoms: C_3  and  O_4 
REMARK    2  A    between atoms: O_4  and  C_5 
REMARK    3  A    between atoms: C_8  and  N_12 
ROOT
HETATM    1  C   LIG     1      17.115  32.839  14.244  1.00  0.00     0.081 A 
HETATM    2  C   LIG     1      16.885  33.644  15.363  1.00  0.00     0.040 A 
HETATM    3  C   LIG     1      15.881  33.319  16.276  1.00  0.00     0.033 A 
HETATM    4  C   LIG     1      15.077  32.189  16.076  1.00  0.00     0.035 A 
HETATM    5  C   LIG     1      15.267  31.392  14.925  1.00  0.00    -0.033 A 
HETATM    6  C   LIG     1      14.409  30.185  14.663  1.00  0.00     0.050 C 
HETATM    7  C   LIG     1      16.294  31.719  14.023  1.00  0.00     0.046 A 
ENDROOT
BRANCH   1   8
HETATM    8  O   LIG     1      18.138  33.207  13.358  1.00  0.00    -0.262 OA
BRANCH   8   9
HETATM    9  C   LIG     1      18.023  34.165  12.340  1.00  0.00     0.365 C 
HETATM   10  N   LIG     1      18.720  33.978  11.105  1.00  0.00    -0.341 N 
HETATM   11  C   LIG     1      19.586  32.826  10.888  1.00  0.00     0.151 C 
HETATM   12  H   LIG     1      18.612  34.684  10.344  1.00  0.00     0.164 HD
HETATM   13  O   LIG     1      17.271  35.167  12.477  1.00  0.00    -0.238 OA
ENDBRANCH   8   9
ENDBRANCH   1   8
BRANCH   4  14
HETATM   14  N   LIG     1      14.063  31.857  17.040  1.00  0.00    -0.389 N 
HETATM   15  C   LIG     1      12.660  32.111  16.718  1.00  0.00     0.149 C 
HETATM   16  C   LIG     1      14.443  31.703  18.443  1.00  0.00     0.149 C 
ENDBRANCH   4  14
TORSDOF 3
ENDMDL
MODEL 6
REMARK VINA RESULT:      -5.7      4.186      6.076
REMARK  3 active torsions:
REMARK  status: ('A' for Active; 'I' for Inactive)
REMARK       I    between atoms: N_2  and  C_3 
REMARK    1  A    between atoms: C_3  and  O_4 
REMARK    2  A    between atoms: O_4  and  C_5 
REMARK    3  A    between atoms: C_8  and  N_12 
ROOT
HETATM    1  C   LIG     1      15.792  34.767  19.826  1.00  0.00     0.081 A 
HETATM    2  C   LIG     1      15.070  34.845  21.020  1.00  0.00     0.040 A 
HETATM    3  C   LIG     1      15.438  35.754  22.012  1.00  0.00     0.033 A 
HETATM    4  C   LIG     1      16.547  36.592  21.833  1.00  0.00     0.035 A 
HETATM    5  C   LIG     1      17.315  36.490  20.652  1.00  0.00    -0.033 A 
HETATM    6  C   LIG     1      18.526  37.355  20.433  1.00  0.00     0.050 C 
HETATM    7  C   LIG     1      16.923  35.584  19.651  1.00  0.00     0.046 A 
ENDROOT
BRANCH   1   8
HETATM    8  O   LIG     1      15.380  33.838  18.858  1.00  0.00    -0.262 OA
BRANCH   8   9
HETATM    9  C   LIG     1      15.175  32.469  19.084  1.00  0.00     0.365 C 
HETATM   10  N   LIG     1      14.303  31.730  18.225  1.00  0.00    -0.341 N 
HETATM   11  C   LIG     1      13.584  32.375  17.134  1.00  0.00     0.151 C 
HETATM   12  H   LIG     1      14.173  30.706  18.386  1.00  0.00     0.164 HD
HETATM   13  O   LIG     1      15.792  31.866  20.004  1.00  0.00    -0.238 OA
ENDBRANCH   8   9
ENDBRANCH   1   8
BRANCH   4  14
HETATM   14  N   LIG     1      16.897  37.538  22.857  1.00  0.00    -0.389 N 
HETATM   15  C   LIG     1      17.156  37.062  24.214  1.00  0.00     0.149 C 
HETATM   16  C   LIG     1      16.562  38.948  22.663  1.00  0.00     0.149 C 
ENDBRANCH   4  14
TORSDOF 3
ENDMDL
MODEL 7
REMARK VINA RESULT:      -5.7      7.227      9.148
REMARK  3 active torsions:
REMARK  status: ('A' for Active; 'I' for Inactive)
REMARK       I    between atoms: N_2  and  C_3 
REMARK    1  A    between atoms: C_3  and  O_4 
REMARK    2  A    between atoms: O_4  and  C_5 
REMARK    3  A    between atoms: C_8  and  N_12 
ROOT
HETATM    1  C   LIG     1      15.008  32.570  17.433  1.00  0.00     0.081 A 
HETATM    2  C   LIG     1      14.032  31.587  17.623  1.00  0.00     0.040 A 
HETATM    3  C   LIG     1      13.731  30.682  16.605  1.00  0.00     0.033 A 
HETATM    4  C   LIG     1      14.390  30.754  15.371  1.00  0.00     0.035 A 
HETATM    5  C   LIG     1      15.344  31.772  15.148  1.00  0.00    -0.033 A 
HETATM    6  C   LIG     1      16.056  31.898  13.829  1.00  0.00     0.050 C 
HETATM    7  C   LIG     1      15.653  32.666  16.188  1.00  0.00     0.046 A 
ENDROOT
BRANCH   1   8
HETATM    8  O   LIG     1      15.276  33.454  18.489  1.00  0.00    -0.262 OA
BRANCH   8   9
HETATM    9  C   LIG     1      15.632  33.078  19.792  1.00  0.00     0.365 C 
HETATM   10  N   LIG     1      15.614  34.048  20.842  1.00  0.00    -0.341 N 
HETATM   11  C   LIG     1      15.270  35.441  20.585  1.00  0.00     0.151 C 
HETATM   12  H   LIG     1      15.859  33.755  21.814  1.00  0.00     0.164 HD
HETATM   13  O   LIG     1      15.918  31.880  20.063  1.00  0.00    -0.238 OA
ENDBRANCH   8   9
ENDBRANCH   1   8
BRANCH   4  14
HETATM   14  N   LIG     1      14.083  29.798  14.342  1.00  0.00    -0.389 N 
HETATM   15  C   LIG     1      12.690  29.430  14.100  1.00  0.00     0.149 C 
HETATM   16  C   LIG     1      15.136  28.898  13.875  1.00  0.00     0.149 C 
ENDBRANCH   4  14
TORSDOF 3
ENDMDL
MODEL 8
REMARK VINA RESULT:      -5.4      3.290      5.887
REMARK  3 active torsions:
REMARK  status: ('A' for Active; 'I' for Inactive)
REMARK       I    between atoms: N_2  and  C_3 
REMARK    1  A    between atoms: C_3  and  O_4 
REMARK    2  A    between atoms: O_4  and  C_5 
REMARK    3  A    between atoms: C_8  and  N_12 
ROOT
HETATM    1  C   LIG     1      16.588  35.546  20.921  1.00  0.00     0.081 A 
HETATM    2  C   LIG     1      16.439  34.765  22.070  1.00  0.00     0.040 A 
HETATM    3  C   LIG     1      16.789  35.271  23.322  1.00  0.00     0.033 A 
HETATM    4  C   LIG     1      17.312  36.566  23.444  1.00  0.00     0.035 A 
HETATM    5  C   LIG     1      17.513  37.349  22.286  1.00  0.00    -0.033 A 
HETATM    6  C   LIG     1      18.093  38.734  22.374  1.00  0.00     0.050 C 
HETATM    7  C   LIG     1      17.138  36.835  21.033  1.00  0.00     0.046 A 
ENDROOT
BRANCH   1   8
HETATM    8  O   LIG     1      16.219  34.991  19.686  1.00  0.00    -0.262 OA
BRANCH   8   9
HETATM    9  C   LIG     1      15.489  33.806  19.516  1.00  0.00     0.365 C 
HETATM   10  N   LIG     1      15.030  33.435  18.213  1.00  0.00    -0.341 N 
HETATM   11  C   LIG     1      15.270  34.283  17.052  1.00  0.00     0.151 C 
HETATM   12  H   LIG     1      14.506  32.540  18.089  1.00  0.00     0.164 HD
HETATM   13  O   LIG     1      15.275  33.033  20.488  1.00  0.00    -0.238 OA
ENDBRANCH   8   9
ENDBRANCH   1   8
BRANCH   4  14
HETATM   14  N   LIG     1      17.645  37.079  24.745  1.00  0.00    -0.389 N 
HETATM   15  C   LIG     1      18.083  36.154  25.788  1.00  0.00     0.149 C 
HETATM   16  C   LIG     1      17.134  38.390  25.142  1.00  0.00     0.149 C 
ENDBRANCH   4  14
TORSDOF 3
ENDMDL
MODEL 9
REMARK VINA RESULT:      -5.2      8.356     10.451
REMARK  3 active torsions:
REMARK  status: ('A' for Active; 'I' for Inactive)
REMARK       I    between atoms: N_2  and  C_3 
REMARK    1  A    between atoms: C_3  and  O_4 
REMARK    2  A    between atoms: O_4  and  C_5 
REMARK    3  A    between atoms: C_8  and  N_12 
ROOT
HETATM    1  C   LIG     1      15.045  31.772  16.360  1.00  0.00     0.081 A 
HETATM    2  C   LIG     1      13.749  31.399  16.730  1.00  0.00     0.040 A 
HETATM    3  C   LIG     1      13.031  30.478  15.966  1.00  0.00     0.033 A 
HETATM    4  C   LIG     1      13.592  29.924  14.807  1.00  0.00     0.035 A 
HETATM    5  C   LIG     1      14.882  30.327  14.395  1.00  0.00    -0.033 A 
HETATM    6  C   LIG     1      15.508  29.773  13.145  1.00  0.00     0.050 C 
HETATM    7  C   LIG     1      15.603  31.241  15.183  1.00  0.00     0.046 A 
ENDROOT
BRANCH   1   8
HETATM    8  O   LIG     1      15.726  32.700  17.162  1.00  0.00    -0.262 OA
BRANCH   8   9
HETATM    9  C   LIG     1      15.284  33.999  17.451  1.00  0.00     0.365 C 
HETATM   10  N   LIG     1      15.201  34.434  18.811  1.00  0.00    -0.341 N 
HETATM   11  C   LIG     1      15.529  33.543  19.917  1.00  0.00     0.151 C 
HETATM   12  H   LIG     1      14.893  35.410  19.019  1.00  0.00     0.164 HD
HETATM   13  O   LIG     1      15.009  34.810  16.526  1.00  0.00    -0.238 OA
ENDBRANCH   8   9
ENDBRANCH   1   8
BRANCH   4  14
HETATM   14  N   LIG     1      12.846  28.959  14.047  1.00  0.00    -0.389 N 
HETATM   15  C   LIG     1      11.473  29.265  13.653  1.00  0.00     0.149 C 
HETATM   16  C   LIG     1      13.275  27.562  14.062  1.00  0.00     0.149 C 
ENDBRANCH   4  14
TORSDOF 3
ENDMDL
MODEL 10
REMARK VINA RESULT:      -5.1      3.676      5.173
REMARK  3 active torsions:
REMARK  status: ('A' for Active; 'I' for Inactive)
REMARK       I    between atoms: N_2  and  C_3 
REMARK    1  A    between atoms: C_3  and  O_4 
REMARK    2  A    between atoms: O_4  and  C_5 
REMARK    3  A    between atoms: C_8  and  N_12 
ROOT
HETATM    1  C   LIG     1      16.173  35.202  20.864  1.00  0.00     0.081 A 
HETATM    2  C   LIG     1      17.355  35.550  20.205  1.00  0.00     0.040 A 
HETATM    3  C   LIG     1      18.029  36.727  20.533  1.00  0.00     0.033 A 
HETATM    4  C   LIG     1      17.521  37.586  21.517  1.00  0.00     0.035 A 
HETATM    5  C   LIG     1      16.302  37.271  22.156  1.00  0.00    -0.033 A 
HETATM    6  C   LIG     1      15.712  38.180  23.200  1.00  0.00     0.050 C 
HETATM    7  C   LIG     1      15.642  36.073  21.832  1.00  0.00     0.046 A 
ENDROOT
BRANCH   1   8
HETATM    8  O   LIG     1      15.534  34.007  20.500  1.00  0.00    -0.262 OA
BRANCH   8   9
HETATM    9  C   LIG     1      15.366  33.545  19.186  1.00  0.00     0.365 C 
HETATM   10  N   LIG     1      14.999  32.183  18.953  1.00  0.00    -0.341 N 
HETATM   11  C   LIG     1      14.832  31.241  20.052  1.00  0.00     0.151 C 
HETATM   12  H   LIG     1      14.854  31.852  17.973  1.00  0.00     0.164 HD
HETATM   13  O   LIG     1      15.482  34.329  18.205  1.00  0.00    -0.238 OA
ENDBRANCH   8   9
ENDBRANCH   1   8
BRANCH   4  14
HETATM   14  N   LIG     1      18.242  38.783  21.857  1.00  0.00    -0.389 N 
HETATM   15  C   LIG     1      18.764  39.632  20.788  1.00  0.00     0.149 C 
HETATM   16  C   LIG     1      18.820  38.905  23.194  1.00  0.00     0.149 C 
ENDBRANCH   4  14
TORSDOF 3
ENDMDL
MODEL 11
REMARK VINA RESULT:      -4.6      7.171      8.555
REMARK  3 active torsions:
REMARK  status: ('A' for Active; 'I' for Inactive)
REMARK       I    between atoms: N_2  and  C_3 
REMARK    1  A    between atoms: C_3  and  O_4 
REMARK    2  A    between atoms: O_4  and  C_5 
REMARK    3  A    between atoms: C_8  and  N_12 
ROOT
HETATM    1  C   LIG     1      15.361  33.111  16.283  1.00  0.00     0.081 A 
HETATM    2  C   LIG     1      16.237  34.200  16.294  1.00  0.00     0.040 A 
HETATM    3  C   LIG     1      17.118  34.412  15.233  1.00  0.00     0.033 A 
HETATM    4  C   LIG     1      17.149  33.527  14.147  1.00  0.00     0.035 A 
HETATM    5  C   LIG     1      16.304  32.396  14.145  1.00  0.00    -0.033 A 
HETATM    6  C   LIG     1      16.325  31.410  13.008  1.00  0.00     0.050 C 
HETATM    7  C   LIG     1      15.407  32.203  15.210  1.00  0.00     0.046 A 
ENDROOT
BRANCH   1   8
HETATM    8  O   LIG     1      14.493  32.943  17.372  1.00  0.00    -0.262 OA
BRANCH   8   9
HETATM    9  C   LIG     1      14.195  31.720  17.990  1.00  0.00     0.365 C 
HETATM   10  N   LIG     1      14.492  31.533  19.377  1.00  0.00    -0.341 N 
HETATM   11  C   LIG     1      15.138  32.577  20.163  1.00  0.00     0.151 C 
HETATM   12  H   LIG     1      14.248  30.628  19.836  1.00  0.00     0.164 HD
HETATM   13  O   LIG     1      13.619  30.797  17.353  1.00  0.00    -0.238 OA
ENDBRANCH   8   9
ENDBRANCH   1   8
BRANCH   4  14
HETATM   14  N   LIG     1      18.047  33.776  13.053  1.00  0.00    -0.389 N 
HETATM   15  C   LIG     1      19.471  33.492  13.217  1.00  0.00     0.149 C 
HETATM   16  C   LIG     1      17.634  34.693  11.992  1.00  0.00     0.149 C 
ENDBRANCH   4  14
TORSDOF 3
ENDMDL
MODEL 12
REMARK VINA RESULT:      -4.4      2.193      5.455
REMARK  3 active torsions:
REMARK  status: ('A' for Active; 'I' for Inactive)
REMARK       I    between atoms: N_2  and  C_3 
REMARK    1  A    between atoms: C_3  and  O_4 
REMARK    2  A    between atoms: O_4  and  C_5 
REMARK    3  A    between atoms: C_8  and  N_12 
ROOT
HETATM    1  C   LIG     1      17.843  38.234  21.913  1.00  0.00     0.081 A 
HETATM    2  C   LIG     1      18.223  38.857  23.105  1.00  0.00     0.040 A 
HETATM    3  C   LIG     1      18.126  38.180  24.321  1.00  0.00     0.033 A 
HETATM    4  C   LIG     1      17.631  36.869  24.367  1.00  0.00     0.035 A 
HETATM    5  C   LIG     1      17.199  36.244  23.177  1.00  0.00    -0.033 A 
HETATM    6  C   LIG     1      16.640  34.848  23.188  1.00  0.00     0.050 C 
HETATM    7  C   LIG     1      17.319  36.930  21.955  1.00  0.00     0.046 A 
ENDROOT
BRANCH   1   8
HETATM    8  O   LIG     1      17.962  38.957  20.716  1.00  0.00    -0.262 OA
BRANCH   8   9
HETATM    9  C   LIG     1      19.077  38.940  19.866  1.00  0.00     0.365 C 
HETATM   10  N   LIG     1      19.237  37.874  18.926  1.00  0.00    -0.341 N 
HETATM   11  C   LIG     1      18.285  36.773  18.854  1.00  0.00     0.151 C 
HETATM   12  H   LIG     1      20.059  37.879  18.281  1.00  0.00     0.164 HD
HETATM   13  O   LIG     1      19.916  39.881  19.881  1.00  0.00    -0.238 OA
ENDBRANCH   8   9
ENDBRANCH   1   8
BRANCH   4  14
HETATM   14  N   LIG     1      17.561  36.179  25.626  1.00  0.00    -0.389 N 
HETATM   15  C   LIG     1      18.341  36.676  26.758  1.00  0.00     0.149 C 
HETATM   16  C   LIG     1      17.099  34.793  25.649  1.00  0.00     0.149 C 
ENDBRANCH   4  14
TORSDOF 3
ENDMDL
MODEL 13
REMARK VINA RESULT:      -4.2      4.873      6.585
REMARK  3 active torsions:
REMARK  status: ('A' for Active; 'I' for Inactive)
REMARK       I    between atoms: N_2  and  C_3 
REMARK    1  A    between atoms: C_3  and  O_4 
REMARK    2  A    between atoms: O_4  and  C_5 
REMARK    3  A    between atoms: C_8  and  N_12 
ROOT
HETATM    1  C   LIG     1      15.853  34.508  19.702  1.00  0.00     0.081 A 
HETATM    2  C   LIG     1      15.679  34.992  18.402  1.00  0.00     0.040 A 
HETATM    3  C   LIG     1      15.133  34.178  17.410  1.00  0.00     0.033 A 
HETATM    4  C   LIG     1      14.764  32.856  17.697  1.00  0.00     0.035 A 
HETATM    5  C   LIG     1      14.978  32.339  18.993  1.00  0.00    -0.033 A 
HETATM    6  C   LIG     1      14.618  30.919  19.334  1.00  0.00     0.050 C 
HETATM    7  C   LIG     1      15.511  33.174  19.990  1.00  0.00     0.046 A 
ENDROOT
BRANCH   1   8
HETATM    8  O   LIG     1      16.404  35.367  20.664  1.00  0.00    -0.262 OA
BRANCH   8   9
HETATM    9  C   LIG     1      15.671  36.184  21.537  1.00  0.00     0.365 C 
HETATM   10  N   LIG     1      16.293  37.324  22.135  1.00  0.00    -0.341 N 
HETATM   11  C   LIG     1      17.695  37.640  21.891  1.00  0.00     0.151 C 
HETATM   12  H   LIG     1      15.735  37.941  22.766  1.00  0.00     0.164 HD
HETATM   13  O   LIG     1      14.450  35.959  21.762  1.00  0.00    -0.238 OA
ENDBRANCH   8   9
ENDBRANCH   1   8
BRANCH   4  14
HETATM   14  N   LIG     1      14.181  32.041  16.667  1.00  0.00    -0.389 N 
HETATM   15  C   LIG     1      12.787  31.619  16.792  1.00  0.00     0.149 C 
HETATM   16  C   LIG     1      15.062  31.290  15.774  1.00  0.00     0.149 C 
ENDBRANCH   4  14
TORSDOF 3
ENDMDL
MODEL 14
REMARK VINA RESULT:      -4.1      3.240      4.298
REMARK  3 active torsions:
REMARK  status: ('A' for Active; 'I' for Inactive)
REMARK       I    between atoms: N_2  and  C_3 
REMARK    1  A    between atoms: C_3  and  O_4 
REMARK    2  A    between atoms: O_4  and  C_5 
REMARK    3  A    between atoms: C_8  and  N_12 
ROOT
HETATM    1  C   LIG     1      16.780  35.221  21.517  1.00  0.00     0.081 A 
HETATM    2  C   LIG     1      16.618  36.057  22.625  1.00  0.00     0.040 A 
HETATM    3  C   LIG     1      17.207  37.321  22.651  1.00  0.00     0.033 A 
HETATM    4  C   LIG     1      17.983  37.767  21.572  1.00  0.00     0.035 A 
HETATM    5  C   LIG     1      18.195  36.914  20.466  1.00  0.00    -0.033 A 
HETATM    6  C   LIG     1      19.041  37.346  19.300  1.00  0.00     0.050 C 
HETATM    7  C   LIG     1      17.581  35.650  20.443  1.00  0.00     0.046 A 
ENDROOT
BRANCH   1   8
HETATM    8  O   LIG     1      16.166  33.960  21.538  1.00  0.00    -0.262 OA
BRANCH   8   9
HETATM    9  C   LIG     1      14.834  33.701  21.184  1.00  0.00     0.365 C 
HETATM   10  N   LIG     1      14.542  32.709  20.195  1.00  0.00    -0.341 N 
HETATM   11  C   LIG     1      15.603  31.981  19.511  1.00  0.00     0.151 C 
HETATM   12  H   LIG     1      13.546  32.506  19.952  1.00  0.00     0.164 HD
HETATM   13  O   LIG     1      13.883  34.293  21.763  1.00  0.00    -0.238 OA
ENDBRANCH   8   9
ENDBRANCH   1   8
BRANCH   4  14
HETATM   14  N   LIG     1      18.562  39.082  21.607  1.00  0.00    -0.389 N 
HETATM   15  C   LIG     1      18.672  39.848  20.367  1.00  0.00     0.149 C 
HETATM   16  C   LIG     1      19.414  39.452  22.736  1.00  0.00     0.149 C 
ENDBRANCH   4  14
TORSDOF 3
ENDMDL
MODEL 15
REMARK VINA RESULT:      -3.9     17.898     19.430
REMARK  3 active torsions:
REMARK  status: ('A' for Active; 'I' for Inactive)
REMARK       I    between atoms: N_2  and  C_3 
REMARK    1  A    between atoms: C_3  and  O_4 
REMARK    2  A    between atoms: O_4  and  C_5 
REMARK    3  A    between atoms: C_8  and  N_12 
ROOT
HETATM    1  C   LIG     1      23.488  19.440  17.412  1.00  0.00     0.081 A 
HETATM    2  C   LIG     1      24.826  19.707  17.108  1.00  0.00     0.040 A 
HETATM    3  C   LIG     1      25.492  20.771  17.717  1.00  0.00     0.033 A 
HETATM    4  C   LIG     1      24.825  21.599  18.630  1.00  0.00     0.035 A 
HETATM    5  C   LIG     1      23.460  21.370  18.911  1.00  0.00    -0.033 A 
HETATM    6  C   LIG     1      22.704  22.250  19.868  1.00  0.00     0.050 C 
HETATM    7  C   LIG     1      22.805  20.283  18.306  1.00  0.00     0.046 A 
ENDROOT
BRANCH   1   8
HETATM    8  O   LIG     1      22.864  18.357  16.775  1.00  0.00    -0.262 OA
BRANCH   8   9
HETATM    9  C   LIG     1      22.342  18.373  15.474  1.00  0.00     0.365 C 
HETATM   10  N   LIG     1      20.926  18.359  15.276  1.00  0.00    -0.341 N 
HETATM   11  C   LIG     1      20.001  18.289  16.400  1.00  0.00     0.151 C 
HETATM   12  H   LIG     1      20.544  18.394  14.304  1.00  0.00     0.164 HD
HETATM   13  O   LIG     1      23.104  18.453  14.472  1.00  0.00    -0.238 OA
ENDBRANCH   8   9
ENDBRANCH   1   8
BRANCH   4  14
HETATM   14  N   LIG     1      25.535  22.675  19.265  1.00  0.00    -0.389 N 
HETATM   15  C   LIG     1      25.836  23.884  18.499  1.00  0.00     0.149 C 
HETATM   16  C   LIG     1      26.319  22.396  20.467  1.00  0.00     0.149 C 
ENDBRANCH   4  14
TORSDOF 3
ENDMDL
MODEL 16
REMARK VINA RESULT:      -3.9     17.590     19.276
REMARK  3 active torsions:
REMARK  status: ('A' for Active; 'I' for Inactive)
REMARK       I    between atoms: N_2  and  C_3 
REMARK    1  A    between atoms: C_3  and  O_4 
REMARK    2  A    between atoms: O_4  and  C_5 
REMARK    3  A    between atoms: C_8  and  N_12 
ROOT
HETATM    1  C   LIG     1      22.610  19.293  18.448  1.00  0.00     0.081 A 
HETATM    2  C   LIG     1      22.729  20.600  17.966  1.00  0.00     0.040 A 
HETATM    3  C   LIG     1      23.128  21.633  18.814  1.00  0.00     0.033 A 
HETATM    4  C   LIG     1      23.401  21.380  20.165  1.00  0.00     0.035 A 
HETATM    5  C   LIG     1      23.239  20.074  20.676  1.00  0.00    -0.033 A 
HETATM    6  C   LIG     1      23.499  19.766  22.126  1.00  0.00     0.050 C 
HETATM    7  C   LIG     1      22.854  19.036  19.809  1.00  0.00     0.046 A 
ENDROOT
BRANCH   1   8
HETATM    8  O   LIG     1      22.207  18.288  17.555  1.00  0.00    -0.262 OA
BRANCH   8   9
HETATM    9  C   LIG     1      21.495  18.499  16.366  1.00  0.00     0.365 C 
HETATM   10  N   LIG     1      22.185  18.487  15.113  1.00  0.00    -0.341 N 
HETATM   11  C   LIG     1      23.628  18.299  15.041  1.00  0.00     0.151 C 
HETATM   12  H   LIG     1      21.644  18.622  14.229  1.00  0.00     0.164 HD
HETATM   13  O   LIG     1      20.243  18.646  16.379  1.00  0.00    -0.238 OA
ENDBRANCH   8   9
ENDBRANCH   1   8
BRANCH   4  14
HETATM   14  N   LIG     1      23.834  22.454  21.017  1.00  0.00    -0.389 N 
HETATM   15  C   LIG     1      22.835  23.309  21.654  1.00  0.00     0.149 C 
HETATM   16  C   LIG     1      25.202  22.952  20.889  1.00  0.00     0.149 C 
ENDBRANCH   4  14
TORSDOF 3
ENDMDL
MODEL 17
REMARK VINA RESULT:      -3.9     16.819     17.799
REMARK  3 active torsions:
REMARK  status: ('A' for Active; 'I' for Inactive)
REMARK       I    between atoms: N_2  and  C_3 
REMARK    1  A    between atoms: C_3  and  O_4 
REMARK    2  A    between atoms: O_4  and  C_5 
REMARK    3  A    between atoms: C_8  and  N_12 
ROOT
HETATM    1  C   LIG     1      26.996  30.103  34.634  1.00  0.00     0.081 A 
HETATM    2  C   LIG     1      26.229  28.955  34.418  1.00  0.00     0.040 A 
HETATM    3  C   LIG     1      26.609  28.019  33.455  1.00  0.00     0.033 A 
HETATM    4  C   LIG     1      27.758  28.224  32.679  1.00  0.00     0.035 A 
HETATM    5  C   LIG     1      28.516  29.403  32.853  1.00  0.00    -0.033 A 
HETATM    6  C   LIG     1      29.742  29.671  32.023  1.00  0.00     0.050 C 
HETATM    7  C   LIG     1      28.134  30.329  33.839  1.00  0.00     0.046 A 
ENDROOT
BRANCH   1   8
HETATM    8  O   LIG     1      26.573  31.012  35.615  1.00  0.00    -0.262 OA
BRANCH   8   9
HETATM    9  C   LIG     1      26.454  30.731  36.983  1.00  0.00     0.365 C 
HETATM   10  N   LIG     1      27.481  31.151  37.887  1.00  0.00    -0.341 N 
HETATM   11  C   LIG     1      28.676  31.837  37.413  1.00  0.00     0.151 C 
HETATM   12  H   LIG     1      27.375  30.958  38.908  1.00  0.00     0.164 HD
HETATM   13  O   LIG     1      25.428  30.158  37.440  1.00  0.00    -0.238 OA
ENDBRANCH   8   9
ENDBRANCH   1   8
BRANCH   4  14
HETATM   14  N   LIG     1      28.147  27.237  31.709  1.00  0.00    -0.389 N 
HETATM   15  C   LIG     1      27.444  27.176  30.429  1.00  0.00     0.149 C 
HETATM   16  C   LIG     1      28.892  26.062  32.154  1.00  0.00     0.149 C 
ENDBRANCH   4  14
TORSDOF 3
ENDMDL
MODEL 18
REMARK VINA RESULT:      -3.9      8.380     10.371
REMARK  3 active torsions:
REMARK  status: ('A' for Active; 'I' for Inactive)
REMARK       I    between atoms: N_2  and  C_3 
REMARK    1  A    between atoms: C_3  and  O_4 
REMARK    2  A    between atoms: O_4  and  C_5 
REMARK    3  A    between atoms: C_8  and  N_12 
ROOT
HETATM    1  C   LIG     1      17.892  33.859  13.708  1.00  0.00     0.081 A 
HETATM    2  C   LIG     1      19.182  33.367  13.923  1.00  0.00     0.040 A 
HETATM    3  C   LIG     1      20.160  33.487  12.935  1.00  0.00     0.033 A 
HETATM    4  C   LIG     1      19.859  34.089  11.705  1.00  0.00     0.035 A 
HETATM    5  C   LIG     1      18.546  34.548  11.456  1.00  0.00    -0.033 A 
HETATM    6  C   LIG     1      18.178  35.177  10.141  1.00  0.00     0.050 C 
HETATM    7  C   LIG     1      17.574  34.438  12.466  1.00  0.00     0.046 A 
ENDROOT
BRANCH   1   8
HETATM    8  O   LIG     1      16.945  33.715  14.733  1.00  0.00    -0.262 OA
BRANCH   8   9
HETATM    9  C   LIG     1      16.232  32.542  15.020  1.00  0.00     0.365 C 
HETATM   10  N   LIG     1      15.252  32.543  16.062  1.00  0.00    -0.341 N 
HETATM   11  C   LIG     1      14.998  33.731  16.866  1.00  0.00     0.151 C 
HETATM   12  H   LIG     1      14.709  31.672  16.255  1.00  0.00     0.164 HD
HETATM   13  O   LIG     1      16.406  31.497  14.338  1.00  0.00    -0.238 OA
ENDBRANCH   8   9
ENDBRANCH   1   8
BRANCH   4  14
HETATM   14  N   LIG     1      20.886  34.225  10.709  1.00  0.00    -0.389 N 
HETATM   15  C   LIG     1      21.361  33.036  10.004  1.00  0.00     0.149 C 
HETATM   16  C   LIG     1      21.734  35.416  10.724  1.00  0.00     0.149 C 
ENDBRANCH   4  14
TORSDOF 3
ENDMDL
MODEL 19
REMARK VINA RESULT:      -3.7     15.921     17.140
REMARK  3 active torsions:
REMARK  status: ('A' for Active; 'I' for Inactive)
REMARK       I    between atoms: N_2  and  C_3 
REMARK    1  A    between atoms: C_3  and  O_4 
REMARK    2  A    between atoms: O_4  and  C_5 
REMARK    3  A    between atoms: C_8  and  N_12 
ROOT
HETATM    1  C   LIG     1      25.191  21.965  23.264  1.00  0.00     0.081 A 
HETATM    2  C   LIG     1      25.932  21.265  22.308  1.00  0.00     0.040 A 
HETATM    3  C   LIG     1      25.452  21.123  21.005  1.00  0.00     0.033 A 
HETATM    4  C   LIG     1      24.213  21.667  20.640  1.00  0.00     0.035 A 
HETATM    5  C   LIG     1      23.432  22.335  21.608  1.00  0.00    -0.033 A 
HETATM    6  C   LIG     1      22.087  22.912  21.262  1.00  0.00     0.050 C 
HETATM    7  C   LIG     1      23.934  22.489  22.913  1.00  0.00     0.046 A 
ENDROOT
BRANCH   1   8
HETATM    8  O   LIG     1      25.718  22.082  24.559  1.00  0.00    -0.262 OA
BRANCH   8   9
HETATM    9  C   LIG     1      25.615  23.217  25.377  1.00  0.00     0.365 C 
HETATM   10  N   LIG     1      24.734  23.204  26.504  1.00  0.00    -0.341 N 
HETATM   11  C   LIG     1      23.903  22.045  26.806  1.00  0.00     0.151 C 
HETATM   12  H   LIG     1      24.679  24.045  27.121  1.00  0.00     0.164 HD
HETATM   13  O   LIG     1      26.328  24.235  25.164  1.00  0.00    -0.238 OA
ENDBRANCH   8   9
ENDBRANCH   1   8
BRANCH   4  14
HETATM   14  N   LIG     1      23.747  21.530  19.287  1.00  0.00    -0.389 N 
HETATM   15  C   LIG     1      23.039  20.314  18.893  1.00  0.00     0.149 C 
HETATM   16  C   LIG     1      24.350  22.358  18.244  1.00  0.00     0.149 C 
ENDBRANCH   4  14
TORSDOF 3
ENDMDL
