REMARK  3 active torsions:
REMARK  status: ('A' for Active; 'I' for Inactive)
REMARK       I    between atoms: N_2  and  C_3 
REMARK    1  A    between atoms: C_3  and  O_4 
REMARK    2  A    between atoms: O_4  and  C_5 
REMARK    3  A    between atoms: C_8  and  N_12 
ROOT
HETATM    1  C   LIG     1       1.197  -0.253  -0.283  1.00  0.00     0.081 A 
HETATM    2  C   LIG     1       0.423  -0.970  -1.200  1.00  0.00     0.040 A 
HETATM    3  C   LIG     1      -0.970  -0.923  -1.141  1.00  0.00     0.033 A 
HETATM    4  C   LIG     1      -1.615  -0.169  -0.151  1.00  0.00     0.035 A 
HETATM    5  C   LIG     1      -0.846   0.522   0.811  1.00  0.00    -0.033 A 
HETATM    6  C   LIG     1      -1.501   1.323   1.903  1.00  0.00     0.050 C 
HETATM    7  C   LIG     1       0.557   0.483   0.730  1.00  0.00     0.046 A 
ENDROOT
BRANCH   1   8
HETATM    8  O   LIG     1       2.594  -0.331  -0.386  1.00  0.00    -0.262 OA
BRANCH   8   9
HETATM    9  C   LIG     1       3.493   0.670   0.009  1.00  0.00     0.365 C 
HETATM   10  N   LIG     1       4.885   0.366   0.135  1.00  0.00    -0.341 N 
HETATM   11  C   LIG     1       5.394  -0.979  -0.101  1.00  0.00     0.151 C 
HETATM   12  H   LIG     1       5.552   1.122   0.408  1.00  0.00     0.164 HD
HETATM   13  O   LIG     1       3.100   1.852   0.205  1.00  0.00    -0.238 OA
ENDBRANCH   8   9
ENDBRANCH   1   8
BRANCH   4  14
HETATM   14  N   LIG     1      -3.051  -0.114  -0.121  1.00  0.00    -0.389 N 
HETATM   15  C   LIG     1      -3.812  -1.355   0.009  1.00  0.00     0.149 C 
HETATM   16  C   LIG     1      -3.726   1.068  -0.654  1.00  0.00     0.149 C 
ENDBRANCH   4  14
TORSDOF 3
