REMARK  1 active torsions:
REMARK  status: ('A' for Active; 'I' for Inactive)
REMARK    1  A    between atoms: N_5  and  C_8 
ROOT
HETATM    1  C   LIG     1      -4.004   0.360  -0.229  1.00  0.00     0.167 C 
HETATM    2  N   LIG     1      -2.665  -0.136   0.073  1.00  0.00    -0.246 N 
HETATM    3  C   LIG     1      -2.298  -1.274   0.696  1.00  0.00     0.393 A 
HETATM    4  O   LIG     1      -0.991  -1.386   0.764  1.00  0.00    -0.169 OA
HETATM    5  N   LIG     1      -0.450  -0.340   0.205  1.00  0.00    -0.160 N 
HETATM    6  C   LIG     1      -1.479   0.424  -0.229  1.00  0.00     0.358 A 
HETATM    7  O   LIG     1      -1.354   1.501  -0.873  1.00  0.00    -0.244 OA
HETATM    8  O   LIG     1      -3.104  -2.128   1.151  1.00  0.00    -0.236 OA
ENDROOT
BRANCH   5   9
HETATM    9  C   LIG     1       0.968  -0.133   0.074  1.00  0.00     0.070 A 
HETATM   10  C   LIG     1       1.833  -1.239   0.102  1.00  0.00     0.034 A 
HETATM   11  C   LIG     1       3.213  -1.063  -0.015  1.00  0.00     0.028 A 
HETATM   12  C   LIG     1       3.753   0.219  -0.152  1.00  0.00     0.055 A 
HETATM   13  C   LIG     1       2.900   1.335  -0.165  1.00  0.00     0.058 A 
HETATM   14 CL   LIG     1       5.496   0.400  -0.297  1.00  0.00    -0.083 Cl
HETATM   15  C   LIG     1       1.516   1.157  -0.048  1.00  0.00     0.057 A 
HETATM   16 CL   LIG     1       3.539   2.967  -0.313  1.00  0.00    -0.082 Cl
ENDBRANCH   5   9
TORSDOF 1
