MODEL 1
REMARK VINA RESULT:      -7.3      0.000      0.000
REMARK  1 active torsions:
REMARK  status: ('A' for Active; 'I' for Inactive)
REMARK    1  A    between atoms: N_5  and  C_8 
ROOT
HETATM    1  C   LIG     1      14.544  32.115  17.097  1.00  0.00     0.167 C 
HETATM    2  N   LIG     1      14.945  32.729  18.359  1.00  0.00    -0.246 N 
HETATM    3  C   LIG     1      14.962  32.199  19.598  1.00  0.00     0.393 A 
HETATM    4  O   LIG     1      15.411  33.059  20.484  1.00  0.00    -0.169 OA
HETATM    5  N   LIG     1      15.696  34.177  19.877  1.00  0.00    -0.160 N 
HETATM    6  C   LIG     1      15.419  33.971  18.569  1.00  0.00     0.358 A 
HETATM    7  O   LIG     1      15.618  34.813  17.651  1.00  0.00    -0.244 OA
HETATM    8  O   LIG     1      14.601  31.024  19.874  1.00  0.00    -0.236 OA
ENDROOT
BRANCH   5   9
HETATM    9  C   LIG     1      16.237  35.339  20.532  1.00  0.00     0.070 A 
HETATM   10  C   LIG     1      15.592  35.854  21.668  1.00  0.00     0.034 A 
HETATM   11  C   LIG     1      16.093  36.985  22.315  1.00  0.00     0.028 A 
HETATM   12  C   LIG     1      17.239  37.626  21.834  1.00  0.00     0.055 A 
HETATM   13  C   LIG     1      17.883  37.130  20.688  1.00  0.00     0.058 A 
HETATM   14 CL   LIG     1      17.839  39.048  22.676  1.00  0.00    -0.083 Cl
HETATM   15  C   LIG     1      17.380  35.995  20.041  1.00  0.00     0.057 A 
HETATM   16 CL   LIG     1      19.314  37.919  20.036  1.00  0.00    -0.082 Cl
ENDBRANCH   5   9
TORSDOF 1
ENDMDL
MODEL 2
REMARK VINA RESULT:      -7.1      3.913      5.915
REMARK  1 active torsions:
REMARK  status: ('A' for Active; 'I' for Inactive)
REMARK    1  A    between atoms: N_5  and  C_8 
ROOT
HETATM    1  C   LIG     1      18.272  38.408  22.266  1.00  0.00     0.167 C 
HETATM    2  N   LIG     1      17.241  37.441  21.904  1.00  0.00    -0.246 N 
HETATM    3  C   LIG     1      16.005  37.279  22.419  1.00  0.00     0.393 A 
HETATM    4  O   LIG     1      15.355  36.310  21.815  1.00  0.00    -0.169 OA
HETATM    5  N   LIG     1      16.124  35.796  20.897  1.00  0.00    -0.160 N 
HETATM    6  C   LIG     1      17.280  36.497  20.945  1.00  0.00     0.358 A 
HETATM    7  O   LIG     1      18.258  36.327  20.166  1.00  0.00    -0.244 OA
HETATM    8  O   LIG     1      15.529  37.972  23.356  1.00  0.00    -0.236 OA
ENDROOT
BRANCH   5   9
HETATM    9  C   LIG     1      15.734  34.726  20.018  1.00  0.00     0.070 A 
HETATM   10  C   LIG     1      15.517  34.994  18.657  1.00  0.00     0.034 A 
HETATM   11  C   LIG     1      15.130  33.975  17.785  1.00  0.00     0.028 A 
HETATM   12  C   LIG     1      14.942  32.673  18.259  1.00  0.00     0.055 A 
HETATM   13  C   LIG     1      15.140  32.394  19.622  1.00  0.00     0.058 A 
HETATM   14 CL   LIG     1      14.454  31.416  17.131  1.00  0.00    -0.083 Cl
HETATM   15  C   LIG     1      15.529  33.418  20.495  1.00  0.00     0.057 A 
HETATM   16 CL   LIG     1      14.893  30.776  20.264  1.00  0.00    -0.082 Cl
ENDBRANCH   5   9
TORSDOF 1
ENDMDL
MODEL 3
REMARK VINA RESULT:      -6.9      2.107      2.998
REMARK  1 active torsions:
REMARK  status: ('A' for Active; 'I' for Inactive)
REMARK    1  A    between atoms: N_5  and  C_8 
ROOT
HETATM    1  C   LIG     1      14.585  32.271  18.440  1.00  0.00     0.167 C 
HETATM    2  N   LIG     1      15.215  33.438  19.050  1.00  0.00    -0.246 N 
HETATM    3  C   LIG     1      15.810  34.492  18.457  1.00  0.00     0.393 A 
HETATM    4  O   LIG     1      16.244  35.361  19.342  1.00  0.00    -0.169 OA
HETATM    5  N   LIG     1      15.964  34.920  20.536  1.00  0.00    -0.160 N 
HETATM    6  C   LIG     1      15.322  33.742  20.357  1.00  0.00     0.358 A 
HETATM    7  O   LIG     1      14.844  33.035  21.284  1.00  0.00    -0.244 OA
HETATM    8  O   LIG     1      15.932  34.633  17.211  1.00  0.00    -0.236 OA
ENDROOT
BRANCH   5   9
HETATM    9  C   LIG     1      16.269  35.625  21.753  1.00  0.00     0.070 A 
HETATM   10  C   LIG     1      16.030  37.007  21.829  1.00  0.00     0.034 A 
HETATM   11  C   LIG     1      16.325  37.714  22.996  1.00  0.00     0.028 A 
HETATM   12  C   LIG     1      16.872  37.057  24.102  1.00  0.00     0.055 A 
HETATM   13  C   LIG     1      17.131  35.678  24.033  1.00  0.00     0.058 A 
HETATM   14 CL   LIG     1      17.230  37.982  25.553  1.00  0.00    -0.083 Cl
HETATM   15  C   LIG     1      16.834  34.969  22.862  1.00  0.00     0.057 A 
HETATM   16 CL   LIG     1      17.839  34.816  25.393  1.00  0.00    -0.082 Cl
ENDBRANCH   5   9
TORSDOF 1
ENDMDL
MODEL 4
REMARK VINA RESULT:      -6.7      6.305      8.020
REMARK  1 active torsions:
REMARK  status: ('A' for Active; 'I' for Inactive)
REMARK    1  A    between atoms: N_5  and  C_8 
ROOT
HETATM    1  C   LIG     1      15.119  32.990  16.566  1.00  0.00     0.167 C 
HETATM    2  N   LIG     1      15.953  32.830  15.378  1.00  0.00    -0.246 N 
HETATM    3  C   LIG     1      15.963  31.831  14.473  1.00  0.00     0.393 A 
HETATM    4  O   LIG     1      16.844  32.051  13.523  1.00  0.00    -0.169 OA
HETATM    5  N   LIG     1      17.448  33.181  13.764  1.00  0.00    -0.160 N 
HETATM    6  C   LIG     1      16.893  33.665  14.899  1.00  0.00     0.358 A 
HETATM    7  O   LIG     1      17.180  34.775  15.424  1.00  0.00    -0.244 OA
HETATM    8  O   LIG     1      15.218  30.817  14.523  1.00  0.00    -0.236 OA
ENDROOT
BRANCH   5   9
HETATM    9  C   LIG     1      18.461  33.755  12.918  1.00  0.00     0.070 A 
HETATM   10  C   LIG     1      18.113  34.212  11.637  1.00  0.00     0.034 A 
HETATM   11  C   LIG     1      19.080  34.765  10.795  1.00  0.00     0.028 A 
HETATM   12  C   LIG     1      20.410  34.862  11.213  1.00  0.00     0.055 A 
HETATM   13  C   LIG     1      20.774  34.393  12.486  1.00  0.00     0.058 A 
HETATM   14 CL   LIG     1      21.598  35.565  10.125  1.00  0.00    -0.083 Cl
HETATM   15  C   LIG     1      19.803  33.839  13.330  1.00  0.00     0.057 A 
HETATM   16 CL   LIG     1      22.440  34.475  13.044  1.00  0.00    -0.082 Cl
ENDBRANCH   5   9
TORSDOF 1
ENDMDL
MODEL 5
REMARK VINA RESULT:      -6.7      1.817      2.208
REMARK  1 active torsions:
REMARK  status: ('A' for Active; 'I' for Inactive)
REMARK    1  A    between atoms: N_5  and  C_8 
ROOT
HETATM    1  C   LIG     1      15.106  32.802  17.336  1.00  0.00     0.167 C 
HETATM    2  N   LIG     1      15.199  33.095  18.763  1.00  0.00    -0.246 N 
HETATM    3  C   LIG     1      14.890  32.312  19.815  1.00  0.00     0.393 A 
HETATM    4  O   LIG     1      15.130  32.919  20.955  1.00  0.00    -0.169 OA
HETATM    5  N   LIG     1      15.592  34.113  20.706  1.00  0.00    -0.160 N 
HETATM    6  C   LIG     1      15.644  34.217  19.358  1.00  0.00     0.358 A 
HETATM    7  O   LIG     1      16.092  35.215  18.730  1.00  0.00    -0.244 OA
HETATM    8  O   LIG     1      14.434  31.141  19.722  1.00  0.00    -0.236 OA
ENDROOT
BRANCH   5   9
HETATM    9  C   LIG     1      15.988  35.056  21.717  1.00  0.00     0.070 A 
HETATM   10  C   LIG     1      15.728  36.423  21.527  1.00  0.00     0.034 A 
HETATM   11  C   LIG     1      16.111  37.358  22.490  1.00  0.00     0.028 A 
HETATM   12  C   LIG     1      16.767  36.947  23.654  1.00  0.00     0.055 A 
HETATM   13  C   LIG     1      17.048  35.584  23.849  1.00  0.00     0.058 A 
HETATM   14 CL   LIG     1      17.232  38.155  24.844  1.00  0.00    -0.083 Cl
HETATM   15  C   LIG     1      16.663  34.647  22.882  1.00  0.00     0.057 A 
HETATM   16 CL   LIG     1      17.891  35.026  25.288  1.00  0.00    -0.082 Cl
ENDBRANCH   5   9
TORSDOF 1
ENDMDL
MODEL 6
REMARK VINA RESULT:      -6.5      1.146      2.173
REMARK  1 active torsions:
REMARK  status: ('A' for Active; 'I' for Inactive)
REMARK    1  A    between atoms: N_5  and  C_8 
ROOT
HETATM    1  C   LIG     1      14.333  31.907  17.747  1.00  0.00     0.167 C 
HETATM    2  N   LIG     1      14.988  33.110  18.251  1.00  0.00    -0.246 N 
HETATM    3  C   LIG     1      15.398  34.203  17.577  1.00  0.00     0.393 A 
HETATM    4  O   LIG     1      15.928  35.095  18.382  1.00  0.00    -0.169 OA
HETATM    5  N   LIG     1      15.897  34.632  19.601  1.00  0.00    -0.160 N 
HETATM    6  C   LIG     1      15.310  33.416  19.522  1.00  0.00     0.358 A 
HETATM    7  O   LIG     1      15.052  32.675  20.509  1.00  0.00    -0.244 OA
HETATM    8  O   LIG     1      15.283  34.356  16.332  1.00  0.00    -0.236 OA
ENDROOT
BRANCH   5   9
HETATM    9  C   LIG     1      16.371  35.351  20.753  1.00  0.00     0.070 A 
HETATM   10  C   LIG     1      16.156  34.820  22.035  1.00  0.00     0.034 A 
HETATM   11  C   LIG     1      16.600  35.503  23.170  1.00  0.00     0.028 A 
HETATM   12  C   LIG     1      17.256  36.730  23.044  1.00  0.00     0.055 A 
HETATM   13  C   LIG     1      17.463  37.281  21.768  1.00  0.00     0.058 A 
HETATM   14 CL   LIG     1      17.801  37.560  24.496  1.00  0.00    -0.083 Cl
HETATM   15  C   LIG     1      17.018  36.594  20.631  1.00  0.00     0.057 A 
HETATM   16 CL   LIG     1      18.265  38.833  21.566  1.00  0.00    -0.082 Cl
ENDBRANCH   5   9
TORSDOF 1
ENDMDL
MODEL 7
REMARK VINA RESULT:      -6.3      5.730      8.639
REMARK  1 active torsions:
REMARK  status: ('A' for Active; 'I' for Inactive)
REMARK    1  A    between atoms: N_5  and  C_8 
ROOT
HETATM    1  C   LIG     1      15.313  34.146  18.604  1.00  0.00     0.167 C 
HETATM    2  N   LIG     1      15.245  33.389  17.358  1.00  0.00    -0.246 N 
HETATM    3  C   LIG     1      15.819  33.654  16.167  1.00  0.00     0.393 A 
HETATM    4  O   LIG     1      15.545  32.722  15.282  1.00  0.00    -0.169 OA
HETATM    5  N   LIG     1      14.786  31.822  15.841  1.00  0.00    -0.160 N 
HETATM    6  C   LIG     1      14.609  32.227  17.120  1.00  0.00     0.358 A 
HETATM    7  O   LIG     1      13.971  31.583  17.997  1.00  0.00    -0.244 OA
HETATM    8  O   LIG     1      16.534  34.663  15.930  1.00  0.00    -0.236 OA
ENDROOT
BRANCH   5   9
HETATM    9  C   LIG     1      14.308  30.639  15.177  1.00  0.00     0.070 A 
HETATM   10  C   LIG     1      12.933  30.352  15.180  1.00  0.00     0.034 A 
HETATM   11  C   LIG     1      12.446  29.206  14.550  1.00  0.00     0.028 A 
HETATM   12  C   LIG     1      13.323  28.322  13.914  1.00  0.00     0.055 A 
HETATM   13  C   LIG     1      14.702  28.589  13.917  1.00  0.00     0.058 A 
HETATM   14 CL   LIG     1      12.671  26.889  13.130  1.00  0.00    -0.083 Cl
HETATM   15  C   LIG     1      15.189  29.739  14.550  1.00  0.00     0.057 A 
HETATM   16 CL   LIG     1      15.842  27.492  13.148  1.00  0.00    -0.082 Cl
ENDBRANCH   5   9
TORSDOF 1
ENDMDL
MODEL 8
REMARK VINA RESULT:      -6.1      6.792      8.954
REMARK  1 active torsions:
REMARK  status: ('A' for Active; 'I' for Inactive)
REMARK    1  A    between atoms: N_5  and  C_8 
ROOT
HETATM    1  C   LIG     1      17.546  34.585  14.888  1.00  0.00     0.167 C 
HETATM    2  N   LIG     1      16.569  33.543  15.186  1.00  0.00    -0.246 N 
HETATM    3  C   LIG     1      15.712  33.448  16.223  1.00  0.00     0.393 A 
HETATM    4  O   LIG     1      14.967  32.369  16.136  1.00  0.00    -0.169 OA
HETATM    5  N   LIG     1      15.302  31.714  15.060  1.00  0.00    -0.160 N 
HETATM    6  C   LIG     1      16.279  32.440  14.470  1.00  0.00     0.358 A 
HETATM    7  O   LIG     1      16.825  32.153  13.370  1.00  0.00    -0.244 OA
HETATM    8  O   LIG     1      15.628  34.290  17.156  1.00  0.00    -0.236 OA
ENDROOT
BRANCH   5   9
HETATM    9  C   LIG     1      14.677  30.491  14.629  1.00  0.00     0.070 A 
HETATM   10  C   LIG     1      13.311  30.286  14.882  1.00  0.00     0.034 A 
HETATM   11  C   LIG     1      12.685  29.105  14.481  1.00  0.00     0.028 A 
HETATM   12  C   LIG     1      13.413  28.105  13.830  1.00  0.00     0.055 A 
HETATM   13  C   LIG     1      14.784  28.290  13.585  1.00  0.00     0.058 A 
HETATM   14 CL   LIG     1      12.589  26.631  13.340  1.00  0.00    -0.083 Cl
HETATM   15  C   LIG     1      15.411  29.476  13.988  1.00  0.00     0.057 A 
HETATM   16 CL   LIG     1      15.742  27.048  12.789  1.00  0.00    -0.082 Cl
ENDBRANCH   5   9
TORSDOF 1
ENDMDL
MODEL 9
REMARK VINA RESULT:      -6.0      4.181      6.090
REMARK  1 active torsions:
REMARK  status: ('A' for Active; 'I' for Inactive)
REMARK    1  A    between atoms: N_5  and  C_8 
ROOT
HETATM    1  C   LIG     1      17.343  38.137  25.706  1.00  0.00     0.167 C 
HETATM    2  N   LIG     1      17.228  36.974  24.831  1.00  0.00    -0.246 N 
HETATM    3  C   LIG     1      17.502  35.681  25.093  1.00  0.00     0.393 A 
HETATM    4  O   LIG     1      17.251  34.916  24.055  1.00  0.00    -0.169 OA
HETATM    5  N   LIG     1      16.816  35.662  23.079  1.00  0.00    -0.160 N 
HETATM    6  C   LIG     1      16.792  36.926  23.559  1.00  0.00     0.358 A 
HETATM    7  O   LIG     1      16.375  37.931  22.921  1.00  0.00    -0.244 OA
HETATM    8  O   LIG     1      17.937  35.254  26.195  1.00  0.00    -0.236 OA
ENDROOT
BRANCH   5   9
HETATM    9  C   LIG     1      16.417  35.160  21.790  1.00  0.00     0.070 A 
HETATM   10  C   LIG     1      16.694  35.915  20.639  1.00  0.00     0.034 A 
HETATM   11  C   LIG     1      16.310  35.453  19.379  1.00  0.00     0.028 A 
HETATM   12  C   LIG     1      15.636  34.235  19.247  1.00  0.00     0.055 A 
HETATM   13  C   LIG     1      15.338  33.478  20.393  1.00  0.00     0.058 A 
HETATM   14 CL   LIG     1      15.169  33.687  17.643  1.00  0.00    -0.083 Cl
HETATM   15  C   LIG     1      15.724  33.943  21.656  1.00  0.00     0.057 A 
HETATM   16 CL   LIG     1      14.472  31.952  20.275  1.00  0.00    -0.082 Cl
ENDBRANCH   5   9
TORSDOF 1
ENDMDL
MODEL 10
REMARK VINA RESULT:      -5.8      5.905      7.367
REMARK  1 active torsions:
REMARK  status: ('A' for Active; 'I' for Inactive)
REMARK    1  A    between atoms: N_5  and  C_8 
ROOT
HETATM    1  C   LIG     1      14.799  26.506  12.437  1.00  0.00     0.167 C 
HETATM    2  N   LIG     1      14.266  27.596  13.248  1.00  0.00    -0.246 N 
HETATM    3  C   LIG     1      13.003  27.805  13.669  1.00  0.00     0.393 A 
HETATM    4  O   LIG     1      12.914  28.891  14.404  1.00  0.00    -0.169 OA
HETATM    5  N   LIG     1      14.094  29.438  14.489  1.00  0.00    -0.160 N 
HETATM    6  C   LIG     1      14.927  28.636  13.787  1.00  0.00     0.358 A 
HETATM    7  O   LIG     1      16.172  28.808  13.682  1.00  0.00    -0.244 OA
HETATM    8  O   LIG     1      12.029  27.054  13.401  1.00  0.00    -0.236 OA
ENDROOT
BRANCH   5   9
HETATM    9  C   LIG     1      14.381  30.633  15.238  1.00  0.00     0.070 A 
HETATM   10  C   LIG     1      13.559  30.984  16.321  1.00  0.00     0.034 A 
HETATM   11  C   LIG     1      13.812  32.142  17.058  1.00  0.00     0.028 A 
HETATM   12  C   LIG     1      14.884  32.974  16.721  1.00  0.00     0.055 A 
HETATM   13  C   LIG     1      15.704  32.643  15.629  1.00  0.00     0.058 A 
HETATM   14 CL   LIG     1      15.171  34.424  17.673  1.00  0.00    -0.083 Cl
HETATM   15  C   LIG     1      15.449  31.480  14.892  1.00  0.00     0.057 A 
HETATM   16 CL   LIG     1      17.050  33.673  15.157  1.00  0.00    -0.082 Cl
ENDBRANCH   5   9
TORSDOF 1
ENDMDL
MODEL 11
REMARK VINA RESULT:      -5.8      3.911      5.796
REMARK  1 active torsions:
REMARK  status: ('A' for Active; 'I' for Inactive)
REMARK    1  A    between atoms: N_5  and  C_8 
ROOT
HETATM    1  C   LIG     1      19.551  39.014  20.659  1.00  0.00     0.167 C 
HETATM    2  N   LIG     1      18.456  38.071  20.868  1.00  0.00    -0.246 N 
HETATM    3  C   LIG     1      17.480  38.092  21.798  1.00  0.00     0.393 A 
HETATM    4  O   LIG     1      16.657  37.078  21.655  1.00  0.00    -0.169 OA
HETATM    5  N   LIG     1      17.054  36.354  20.646  1.00  0.00    -0.160 N 
HETATM    6  C   LIG     1      18.154  36.970  20.156  1.00  0.00     0.358 A 
HETATM    7  O   LIG     1      18.795  36.595  19.137  1.00  0.00    -0.244 OA
HETATM    8  O   LIG     1      17.364  38.974  22.689  1.00  0.00    -0.236 OA
ENDROOT
BRANCH   5   9
HETATM    9  C   LIG     1      16.376  35.173  20.179  1.00  0.00     0.070 A 
HETATM   10  C   LIG     1      16.150  34.110  21.068  1.00  0.00     0.034 A 
HETATM   11  C   LIG     1      15.502  32.951  20.637  1.00  0.00     0.028 A 
HETATM   12  C   LIG     1      15.079  32.829  19.310  1.00  0.00     0.055 A 
HETATM   13  C   LIG     1      15.314  33.879  18.407  1.00  0.00     0.058 A 
HETATM   14 CL   LIG     1      14.266  31.354  18.805  1.00  0.00    -0.083 Cl
HETATM   15  C   LIG     1      15.963  35.041  18.841  1.00  0.00     0.057 A 
HETATM   16 CL   LIG     1      14.818  33.759  16.724  1.00  0.00    -0.082 Cl
ENDBRANCH   5   9
TORSDOF 1
ENDMDL
MODEL 12
REMARK VINA RESULT:      -5.6      6.582      9.629
REMARK  1 active torsions:
REMARK  status: ('A' for Active; 'I' for Inactive)
REMARK    1  A    between atoms: N_5  and  C_8 
ROOT
HETATM    1  C   LIG     1      14.961  33.098  18.045  1.00  0.00     0.167 C 
HETATM    2  N   LIG     1      15.014  32.310  16.818  1.00  0.00    -0.246 N 
HETATM    3  C   LIG     1      15.820  32.453  15.747  1.00  0.00     0.393 A 
HETATM    4  O   LIG     1      15.584  31.533  14.839  1.00  0.00    -0.169 OA
HETATM    5  N   LIG     1      14.622  30.762  15.263  1.00  0.00    -0.160 N 
HETATM    6  C   LIG     1      14.278  31.233  16.484  1.00  0.00     0.358 A 
HETATM    7  O   LIG     1      13.413  30.712  17.239  1.00  0.00    -0.244 OA
HETATM    8  O   LIG     1      16.695  33.351  15.630  1.00  0.00    -0.236 OA
ENDROOT
BRANCH   5   9
HETATM    9  C   LIG     1      14.114  29.628  14.539  1.00  0.00     0.070 A 
HETATM   10  C   LIG     1      14.990  28.593  14.172  1.00  0.00     0.034 A 
HETATM   11  C   LIG     1      14.522  27.486  13.461  1.00  0.00     0.028 A 
HETATM   12  C   LIG     1      13.175  27.398  13.097  1.00  0.00     0.055 A 
HETATM   13  C   LIG     1      12.291  28.433  13.444  1.00  0.00     0.058 A 
HETATM   14 CL   LIG     1      12.623  25.988  12.204  1.00  0.00    -0.083 Cl
HETATM   15  C   LIG     1      12.762  29.543  14.157  1.00  0.00     0.057 A 
HETATM   16 CL   LIG     1      10.594  28.373  12.987  1.00  0.00    -0.082 Cl
ENDBRANCH   5   9
TORSDOF 1
ENDMDL
MODEL 13
REMARK VINA RESULT:      -5.5      4.172      6.140
REMARK  1 active torsions:
REMARK  status: ('A' for Active; 'I' for Inactive)
REMARK    1  A    between atoms: N_5  and  C_8 
ROOT
HETATM    1  C   LIG     1      17.288  38.856  26.514  1.00  0.00     0.167 C 
HETATM    2  N   LIG     1      17.290  37.751  25.560  1.00  0.00    -0.246 N 
HETATM    3  C   LIG     1      17.651  36.465  25.746  1.00  0.00     0.393 A 
HETATM    4  O   LIG     1      17.493  35.758  24.651  1.00  0.00    -0.169 OA
HETATM    5  N   LIG     1      17.037  36.536  23.710  1.00  0.00    -0.160 N 
HETATM    6  C   LIG     1      16.902  37.759  24.272  1.00  0.00     0.358 A 
HETATM    7  O   LIG     1      16.433  38.773  23.685  1.00  0.00    -0.244 OA
HETATM    8  O   LIG     1      18.079  35.996  26.833  1.00  0.00    -0.236 OA
ENDROOT
BRANCH   5   9
HETATM    9  C   LIG     1      16.721  36.097  22.376  1.00  0.00     0.070 A 
HETATM   10  C   LIG     1      15.633  35.232  22.174  1.00  0.00     0.034 A 
HETATM   11  C   LIG     1      15.312  34.785  20.890  1.00  0.00     0.028 A 
HETATM   12  C   LIG     1      16.076  35.186  19.791  1.00  0.00     0.055 A 
HETATM   13  C   LIG     1      17.176  36.038  19.982  1.00  0.00     0.058 A 
HETATM   14 CL   LIG     1      15.640  34.603  18.190  1.00  0.00    -0.083 Cl
HETATM   15  C   LIG     1      17.497  36.485  21.269  1.00  0.00     0.057 A 
HETATM   16 CL   LIG     1      18.177  36.549  18.629  1.00  0.00    -0.082 Cl
ENDBRANCH   5   9
TORSDOF 1
ENDMDL
MODEL 14
REMARK VINA RESULT:      -5.3      4.444      6.037
REMARK  1 active torsions:
REMARK  status: ('A' for Active; 'I' for Inactive)
REMARK    1  A    between atoms: N_5  and  C_8 
ROOT
HETATM    1  C   LIG     1      15.056  28.038  13.120  1.00  0.00     0.167 C 
HETATM    2  N   LIG     1      14.518  29.049  14.025  1.00  0.00    -0.246 N 
HETATM    3  C   LIG     1      13.233  29.329  14.323  1.00  0.00     0.393 A 
HETATM    4  O   LIG     1      13.143  30.299  15.204  1.00  0.00    -0.169 OA
HETATM    5  N   LIG     1      14.345  30.698  15.513  1.00  0.00    -0.160 N 
HETATM    6  C   LIG     1      15.191  29.923  14.796  1.00  0.00     0.358 A 
HETATM    7  O   LIG     1      16.449  29.974  14.867  1.00  0.00    -0.244 OA
HETATM    8  O   LIG     1      12.241  28.733  13.826  1.00  0.00    -0.236 OA
ENDROOT
BRANCH   5   9
HETATM    9  C   LIG     1      14.634  31.733  16.470  1.00  0.00     0.070 A 
HETATM   10  C   LIG     1      15.079  32.987  16.019  1.00  0.00     0.034 A 
HETATM   11  C   LIG     1      15.374  34.004  16.929  1.00  0.00     0.028 A 
HETATM   12  C   LIG     1      15.239  33.785  18.303  1.00  0.00     0.055 A 
HETATM   13  C   LIG     1      14.811  32.530  18.768  1.00  0.00     0.058 A 
HETATM   14 CL   LIG     1      15.620  35.091  19.417  1.00  0.00    -0.083 Cl
HETATM   15  C   LIG     1      14.515  31.511  17.854  1.00  0.00     0.057 A 
HETATM   16 CL   LIG     1      14.649  32.205  20.489  1.00  0.00    -0.082 Cl
ENDBRANCH   5   9
TORSDOF 1
ENDMDL
MODEL 15
REMARK VINA RESULT:      -5.0      6.798      9.674
REMARK  1 active torsions:
REMARK  status: ('A' for Active; 'I' for Inactive)
REMARK    1  A    between atoms: N_5  and  C_8 
ROOT
HETATM    1  C   LIG     1      15.548  33.549  16.359  1.00  0.00     0.167 C 
HETATM    2  N   LIG     1      14.959  32.227  16.172  1.00  0.00    -0.246 N 
HETATM    3  C   LIG     1      14.214  31.497  17.027  1.00  0.00     0.393 A 
HETATM    4  O   LIG     1      13.844  30.357  16.491  1.00  0.00    -0.169 OA
HETATM    5  N   LIG     1      14.327  30.284  15.282  1.00  0.00    -0.160 N 
HETATM    6  C   LIG     1      15.005  31.438  15.083  1.00  0.00     0.358 A 
HETATM    7  O   LIG     1      15.572  31.762  14.004  1.00  0.00    -0.244 OA
HETATM    8  O   LIG     1      13.905  31.863  18.192  1.00  0.00    -0.236 OA
ENDROOT
BRANCH   5   9
HETATM    9  C   LIG     1      14.103  29.182  14.385  1.00  0.00     0.070 A 
HETATM   10  C   LIG     1      12.794  28.724  14.167  1.00  0.00     0.034 A 
HETATM   11  C   LIG     1      12.552  27.651  13.306  1.00  0.00     0.028 A 
HETATM   12  C   LIG     1      13.612  27.012  12.658  1.00  0.00     0.055 A 
HETATM   13  C   LIG     1      14.928  27.450  12.880  1.00  0.00     0.058 A 
HETATM   14 CL   LIG     1      13.267  25.665  11.581  1.00  0.00    -0.083 Cl
HETATM   15  C   LIG     1      15.170  28.526  13.742  1.00  0.00     0.057 A 
HETATM   16 CL   LIG     1      16.294  26.661  12.101  1.00  0.00    -0.082 Cl
ENDBRANCH   5   9
TORSDOF 1
ENDMDL
MODEL 16
REMARK VINA RESULT:      -5.0      1.499      2.584
REMARK  1 active torsions:
REMARK  status: ('A' for Active; 'I' for Inactive)
REMARK    1  A    between atoms: N_5  and  C_8 
ROOT
HETATM    1  C   LIG     1      14.456  31.670  19.937  1.00  0.00     0.167 C 
HETATM    2  N   LIG     1      15.116  32.941  19.652  1.00  0.00    -0.246 N 
HETATM    3  C   LIG     1      15.284  33.567  18.470  1.00  0.00     0.393 A 
HETATM    4  O   LIG     1      15.912  34.712  18.617  1.00  0.00    -0.169 OA
HETATM    5  N   LIG     1      16.187  34.881  19.880  1.00  0.00    -0.160 N 
HETATM    6  C   LIG     1      15.688  33.797  20.518  1.00  0.00     0.358 A 
HETATM    7  O   LIG     1      15.712  33.623  21.767  1.00  0.00    -0.244 OA
HETATM    8  O   LIG     1      14.885  33.118  17.363  1.00  0.00    -0.236 OA
ENDROOT
BRANCH   5   9
HETATM    9  C   LIG     1      16.851  36.040  20.416  1.00  0.00     0.070 A 
HETATM   10  C   LIG     1      17.883  36.646  19.683  1.00  0.00     0.034 A 
HETATM   11  C   LIG     1      18.548  37.766  20.186  1.00  0.00     0.028 A 
HETATM   12  C   LIG     1      18.200  38.293  21.433  1.00  0.00     0.055 A 
HETATM   13  C   LIG     1      17.180  37.686  22.185  1.00  0.00     0.058 A 
HETATM   14 CL   LIG     1      19.060  39.704  22.033  1.00  0.00    -0.083 Cl
HETATM   15  C   LIG     1      16.514  36.563  21.678  1.00  0.00     0.057 A 
HETATM   16 CL   LIG     1      16.726  38.303  23.768  1.00  0.00    -0.082 Cl
ENDBRANCH   5   9
TORSDOF 1
ENDMDL
MODEL 17
REMARK VINA RESULT:      -4.5     14.528     15.313
REMARK  1 active torsions:
REMARK  status: ('A' for Active; 'I' for Inactive)
REMARK    1  A    between atoms: N_5  and  C_8 
ROOT
HETATM    1  C   LIG     1      23.514  20.739  20.870  1.00  0.00     0.167 C 
HETATM    2  N   LIG     1      24.110  21.660  19.907  1.00  0.00    -0.246 N 
HETATM    3  C   LIG     1      23.749  21.913  18.633  1.00  0.00     0.393 A 
HETATM    4  O   LIG     1      24.517  22.828  18.086  1.00  0.00    -0.169 OA
HETATM    5  N   LIG     1      25.408  23.205  18.960  1.00  0.00    -0.160 N 
HETATM    6  C   LIG     1      25.152  22.494  20.083  1.00  0.00     0.358 A 
HETATM    7  O   LIG     1      25.774  22.621  21.172  1.00  0.00    -0.244 OA
HETATM    8  O   LIG     1      22.791  21.350  18.040  1.00  0.00    -0.236 OA
ENDROOT
BRANCH   5   9
HETATM    9  C   LIG     1      26.404  24.214  18.718  1.00  0.00     0.070 A 
HETATM   10  C   LIG     1      26.374  25.406  19.460  1.00  0.00     0.034 A 
HETATM   11  C   LIG     1      27.325  26.404  19.238  1.00  0.00     0.028 A 
HETATM   12  C   LIG     1      28.315  26.233  18.265  1.00  0.00     0.055 A 
HETATM   13  C   LIG     1      28.346  25.053  17.505  1.00  0.00     0.058 A 
HETATM   14 CL   LIG     1      29.495  27.512  18.015  1.00  0.00    -0.083 Cl
HETATM   15  C   LIG     1      27.392  24.053  17.729  1.00  0.00     0.057 A 
HETATM   16 CL   LIG     1      29.560  24.806  16.256  1.00  0.00    -0.082 Cl
ENDBRANCH   5   9
TORSDOF 1
ENDMDL
MODEL 18
REMARK VINA RESULT:      -4.5     18.539     19.497
REMARK  1 active torsions:
REMARK  status: ('A' for Active; 'I' for Inactive)
REMARK    1  A    between atoms: N_5  and  C_8 
ROOT
HETATM    1  C   LIG     1      26.450  29.062  38.129  1.00  0.00     0.167 C 
HETATM    2  N   LIG     1      26.531  29.270  36.687  1.00  0.00    -0.246 N 
HETATM    3  C   LIG     1      26.197  30.358  35.963  1.00  0.00     0.393 A 
HETATM    4  O   LIG     1      26.432  30.176  34.684  1.00  0.00    -0.169 OA
HETATM    5  N   LIG     1      26.916  28.978  34.512  1.00  0.00    -0.160 N 
HETATM    6  C   LIG     1      26.986  28.424  35.745  1.00  0.00     0.358 A 
HETATM    7  O   LIG     1      27.456  27.281  35.995  1.00  0.00    -0.244 OA
HETATM    8  O   LIG     1      25.724  31.419  36.450  1.00  0.00    -0.236 OA
ENDROOT
BRANCH   5   9
HETATM    9  C   LIG     1      27.315  28.439  33.239  1.00  0.00     0.070 A 
HETATM   10  C   LIG     1      26.510  27.472  32.615  1.00  0.00     0.034 A 
HETATM   11  C   LIG     1      26.880  26.929  31.383  1.00  0.00     0.028 A 
HETATM   12  C   LIG     1      28.063  27.334  30.759  1.00  0.00     0.055 A 
HETATM   13  C   LIG     1      28.885  28.289  31.380  1.00  0.00     0.058 A 
HETATM   14 CL   LIG     1      28.495  26.627  29.208  1.00  0.00    -0.083 Cl
HETATM   15  C   LIG     1      28.513  28.833  32.615  1.00  0.00     0.057 A 
HETATM   16 CL   LIG     1      30.393  28.810  30.640  1.00  0.00    -0.082 Cl
ENDBRANCH   5   9
TORSDOF 1
ENDMDL
MODEL 19
REMARK VINA RESULT:      -4.3     15.262     16.383
REMARK  1 active torsions:
REMARK  status: ('A' for Active; 'I' for Inactive)
REMARK    1  A    between atoms: N_5  and  C_8 
ROOT
HETATM    1  C   LIG     1      28.323  25.635  21.490  1.00  0.00     0.167 C 
HETATM    2  N   LIG     1      27.378  25.078  20.527  1.00  0.00    -0.246 N 
HETATM    3  C   LIG     1      26.993  25.566  19.330  1.00  0.00     0.393 A 
HETATM    4  O   LIG     1      26.136  24.766  18.737  1.00  0.00    -0.169 OA
HETATM    5  N   LIG     1      25.918  23.738  19.508  1.00  0.00    -0.160 N 
HETATM    6  C   LIG     1      26.690  23.924  20.604  1.00  0.00     0.358 A 
HETATM    7  O   LIG     1      26.791  23.108  21.560  1.00  0.00    -0.244 OA
HETATM    8  O   LIG     1      27.406  26.649  18.837  1.00  0.00    -0.236 OA
ENDROOT
BRANCH   5   9
HETATM    9  C   LIG     1      25.050  22.641  19.170  1.00  0.00     0.070 A 
HETATM   10  C   LIG     1      23.852  22.464  19.881  1.00  0.00     0.034 A 
HETATM   11  C   LIG     1      22.997  21.403  19.577  1.00  0.00     0.028 A 
HETATM   12  C   LIG     1      23.329  20.495  18.567  1.00  0.00     0.055 A 
HETATM   13  C   LIG     1      24.532  20.651  17.860  1.00  0.00     0.058 A 
HETATM   14 CL   LIG     1      22.226  19.172  18.213  1.00  0.00    -0.083 Cl
HETATM   15  C   LIG     1      25.388  21.716  18.165  1.00  0.00     0.057 A 
HETATM   16 CL   LIG     1      24.999  19.519  16.597  1.00  0.00    -0.082 Cl
ENDBRANCH   5   9
TORSDOF 1
ENDMDL
MODEL 20
REMARK VINA RESULT:      -4.3     14.874     16.174
REMARK  1 active torsions:
REMARK  status: ('A' for Active; 'I' for Inactive)
REMARK    1  A    between atoms: N_5  and  C_8 
ROOT
HETATM    1  C   LIG     1      30.218  26.106  20.079  1.00  0.00     0.167 C 
HETATM    2  N   LIG     1      28.859  25.733  19.698  1.00  0.00    -0.246 N 
HETATM    3  C   LIG     1      27.932  26.453  19.035  1.00  0.00     0.393 A 
HETATM    4  O   LIG     1      26.826  25.766  18.857  1.00  0.00    -0.169 OA
HETATM    5  N   LIG     1      26.973  24.587  19.394  1.00  0.00    -0.160 N 
HETATM    6  C   LIG     1      28.226  24.563  19.902  1.00  0.00     0.358 A 
HETATM    7  O   LIG     1      28.758  23.563  20.457  1.00  0.00    -0.244 OA
HETATM    8  O   LIG     1      28.103  27.633  18.630  1.00  0.00    -0.236 OA
ENDROOT
BRANCH   5   9
HETATM    9  C   LIG     1      25.970  23.555  19.369  1.00  0.00     0.070 A 
HETATM   10  C   LIG     1      25.932  22.655  18.292  1.00  0.00     0.034 A 
HETATM   11  C   LIG     1      24.964  21.650  18.242  1.00  0.00     0.028 A 
HETATM   12  C   LIG     1      24.013  21.533  19.259  1.00  0.00     0.055 A 
HETATM   13  C   LIG     1      24.030  22.438  20.334  1.00  0.00     0.058 A 
HETATM   14 CL   LIG     1      22.809  20.255  19.161  1.00  0.00    -0.083 Cl
HETATM   15  C   LIG     1      25.001  23.445  20.383  1.00  0.00     0.057 A 
HETATM   16 CL   LIG     1      22.838  22.341  21.624  1.00  0.00    -0.082 Cl
ENDBRANCH   5   9
TORSDOF 1
ENDMDL
