MODEL 1
REMARK VINA RESULT:      -6.0      0.000      0.000
REMARK  2 active torsions:
REMARK  status: ('A' for Active; 'I' for Inactive)
REMARK    1  A    between atoms: C_2  and  C_3 
REMARK    2  A    between atoms: C_3  and  C_4 
ROOT
HETATM    1  C   LIG     1      17.103  36.463  24.834  1.00  0.00    -0.014 C 
HETATM    2  C   LIG     1      18.190  37.189  25.620  1.00  0.00     0.004 C 
HETATM    3  C   LIG     1      18.496  36.285  26.797  1.00  0.00     0.000 C 
HETATM    4  C   LIG     1      18.277  34.867  26.291  1.00  0.00     0.000 C 
HETATM    5  C   LIG     1      17.382  34.972  25.056  1.00  0.00     0.004 C 
ENDROOT
BRANCH   1   6
HETATM    6  C   LIG     1      17.099  36.890  23.348  1.00  0.00     0.004 C 
BRANCH   6   7
HETATM    7  C   LIG     1      16.904  35.720  22.365  1.00  0.00    -0.004 C 
HETATM    8  C   LIG     1      17.336  36.051  20.937  1.00  0.00     0.005 C 
ENDBRANCH   6   7
ENDBRANCH   1   6
TORSDOF 2
ENDMDL
MODEL 2
REMARK VINA RESULT:      -6.0      1.094      1.454
REMARK  2 active torsions:
REMARK  status: ('A' for Active; 'I' for Inactive)
REMARK    1  A    between atoms: C_2  and  C_3 
REMARK    2  A    between atoms: C_3  and  C_4 
ROOT
HETATM    1  C   LIG     1      17.089  36.530  24.844  1.00  0.00    -0.014 C 
HETATM    2  C   LIG     1      18.185  37.228  25.643  1.00  0.00     0.004 C 
HETATM    3  C   LIG     1      18.493  36.290  26.793  1.00  0.00     0.000 C 
HETATM    4  C   LIG     1      18.262  34.888  26.250  1.00  0.00     0.000 C 
HETATM    5  C   LIG     1      17.360  35.032  25.024  1.00  0.00     0.004 C 
ENDROOT
BRANCH   1   6
HETATM    6  C   LIG     1      17.079  36.997  23.370  1.00  0.00     0.004 C 
BRANCH   6   7
HETATM    7  C   LIG     1      17.562  38.446  23.173  1.00  0.00    -0.004 C 
HETATM    8  C   LIG     1      17.980  38.755  21.736  1.00  0.00     0.005 C 
ENDBRANCH   6   7
ENDBRANCH   1   6
TORSDOF 2
ENDMDL
MODEL 3
REMARK VINA RESULT:      -5.6      0.755      4.233
REMARK  2 active torsions:
REMARK  status: ('A' for Active; 'I' for Inactive)
REMARK    1  A    between atoms: C_2  and  C_3 
REMARK    2  A    between atoms: C_3  and  C_4 
ROOT
HETATM    1  C   LIG     1      16.783  36.751  23.232  1.00  0.00    -0.014 C 
HETATM    2  C   LIG     1      17.017  35.480  22.421  1.00  0.00     0.004 C 
HETATM    3  C   LIG     1      17.144  35.946  20.984  1.00  0.00     0.000 C 
HETATM    4  C   LIG     1      17.780  37.327  21.058  1.00  0.00     0.000 C 
HETATM    5  C   LIG     1      17.540  37.849  22.474  1.00  0.00     0.004 C 
ENDROOT
BRANCH   1   6
HETATM    6  C   LIG     1      17.230  36.575  24.701  1.00  0.00     0.004 C 
BRANCH   6   7
HETATM    7  C   LIG     1      17.398  35.104  25.129  1.00  0.00    -0.004 C 
HETATM    8  C   LIG     1      18.299  34.928  26.349  1.00  0.00     0.005 C 
ENDBRANCH   6   7
ENDBRANCH   1   6
TORSDOF 2
ENDMDL
MODEL 4
REMARK VINA RESULT:      -5.4      2.397      5.255
REMARK  2 active torsions:
REMARK  status: ('A' for Active; 'I' for Inactive)
REMARK    1  A    between atoms: C_2  and  C_3 
REMARK    2  A    between atoms: C_3  and  C_4 
ROOT
HETATM    1  C   LIG     1      17.891  38.621  21.198  1.00  0.00    -0.014 C 
HETATM    2  C   LIG     1      18.002  37.121  20.940  1.00  0.00     0.004 C 
HETATM    3  C   LIG     1      18.789  37.000  19.650  1.00  0.00     0.000 C 
HETATM    4  C   LIG     1      19.746  38.183  19.643  1.00  0.00     0.000 C 
HETATM    5  C   LIG     1      19.174  39.220  20.609  1.00  0.00     0.004 C 
ENDROOT
BRANCH   1   6
HETATM    6  C   LIG     1      17.684  38.922  22.700  1.00  0.00     0.004 C 
BRANCH   6   7
HETATM    7  C   LIG     1      17.197  37.711  23.517  1.00  0.00    -0.004 C 
HETATM    8  C   LIG     1      17.342  37.900  25.026  1.00  0.00     0.005 C 
ENDBRANCH   6   7
ENDBRANCH   1   6
TORSDOF 2
ENDMDL
MODEL 5
REMARK VINA RESULT:      -5.4      1.650      4.066
REMARK  2 active torsions:
REMARK  status: ('A' for Active; 'I' for Inactive)
REMARK    1  A    between atoms: C_2  and  C_3 
REMARK    2  A    between atoms: C_3  and  C_4 
ROOT
HETATM    1  C   LIG     1      17.587  37.462  24.332  1.00  0.00    -0.014 C 
HETATM    2  C   LIG     1      18.549  38.518  23.797  1.00  0.00     0.004 C 
HETATM    3  C   LIG     1      18.043  38.845  22.407  1.00  0.00     0.000 C 
HETATM    4  C   LIG     1      16.532  38.678  22.472  1.00  0.00     0.000 C 
HETATM    5  C   LIG     1      16.238  37.790  23.680  1.00  0.00     0.004 C 
ENDROOT
BRANCH   1   6
HETATM    6  C   LIG     1      17.556  37.456  25.878  1.00  0.00     0.004 C 
BRANCH   6   7
HETATM    7  C   LIG     1      18.455  36.379  26.514  1.00  0.00    -0.004 C 
HETATM    8  C   LIG     1      18.016  34.952  26.186  1.00  0.00     0.005 C 
ENDBRANCH   6   7
ENDBRANCH   1   6
TORSDOF 2
ENDMDL
MODEL 6
REMARK VINA RESULT:      -5.3      2.273      4.873
REMARK  2 active torsions:
REMARK  status: ('A' for Active; 'I' for Inactive)
REMARK    1  A    between atoms: C_2  and  C_3 
REMARK    2  A    between atoms: C_3  and  C_4 
ROOT
HETATM    1  C   LIG     1      18.067  37.209  21.225  1.00  0.00    -0.014 C 
HETATM    2  C   LIG     1      17.952  38.729  21.302  1.00  0.00     0.004 C 
HETATM    3  C   LIG     1      19.108  39.254  20.474  1.00  0.00     0.000 C 
HETATM    4  C   LIG     1      19.318  38.230  19.369  1.00  0.00     0.000 C 
HETATM    5  C   LIG     1      18.674  36.928  19.845  1.00  0.00     0.004 C 
ENDROOT
BRANCH   1   6
HETATM    6  C   LIG     1      16.701  36.526  21.465  1.00  0.00     0.004 C 
BRANCH   6   7
HETATM    7  C   LIG     1      16.807  35.132  22.110  1.00  0.00    -0.004 C 
HETATM    8  C   LIG     1      17.088  35.179  23.611  1.00  0.00     0.005 C 
ENDBRANCH   6   7
ENDBRANCH   1   6
TORSDOF 2
ENDMDL
MODEL 7
REMARK VINA RESULT:      -5.3      2.412      5.190
REMARK  2 active torsions:
REMARK  status: ('A' for Active; 'I' for Inactive)
REMARK    1  A    between atoms: C_2  and  C_3 
REMARK    2  A    between atoms: C_3  and  C_4 
ROOT
HETATM    1  C   LIG     1      17.998  37.248  20.198  1.00  0.00    -0.014 C 
HETATM    2  C   LIG     1      19.369  36.981  19.584  1.00  0.00     0.004 C 
HETATM    3  C   LIG     1      20.017  38.345  19.458  1.00  0.00     0.000 C 
HETATM    4  C   LIG     1      19.484  39.160  20.627  1.00  0.00     0.000 C 
HETATM    5  C   LIG     1      18.196  38.479  21.090  1.00  0.00     0.004 C 
ENDROOT
BRANCH   1   6
HETATM    6  C   LIG     1      17.462  36.006  20.946  1.00  0.00     0.004 C 
BRANCH   6   7
HETATM    7  C   LIG     1      16.898  36.317  22.345  1.00  0.00    -0.004 C 
HETATM    8  C   LIG     1      17.048  35.159  23.331  1.00  0.00     0.005 C 
ENDBRANCH   6   7
ENDBRANCH   1   6
TORSDOF 2
ENDMDL
MODEL 8
REMARK VINA RESULT:      -5.1      3.258      4.481
REMARK  2 active torsions:
REMARK  status: ('A' for Active; 'I' for Inactive)
REMARK    1  A    between atoms: C_2  and  C_3 
REMARK    2  A    between atoms: C_3  and  C_4 
ROOT
HETATM    1  C   LIG     1      18.013  38.436  21.969  1.00  0.00    -0.014 C 
HETATM    2  C   LIG     1      17.605  37.123  21.308  1.00  0.00     0.004 C 
HETATM    3  C   LIG     1      16.512  36.558  22.193  1.00  0.00     0.000 C 
HETATM    4  C   LIG     1      15.784  37.766  22.764  1.00  0.00     0.000 C 
HETATM    5  C   LIG     1      16.736  38.955  22.639  1.00  0.00     0.004 C 
ENDROOT
BRANCH   1   6
HETATM    6  C   LIG     1      18.632  39.416  20.946  1.00  0.00     0.004 C 
BRANCH   6   7
HETATM    7  C   LIG     1      19.535  38.735  19.900  1.00  0.00    -0.004 C 
HETATM    8  C   LIG     1      19.084  38.979  18.461  1.00  0.00     0.005 C 
ENDBRANCH   6   7
ENDBRANCH   1   6
TORSDOF 2
ENDMDL
MODEL 9
REMARK VINA RESULT:      -5.1      2.203      3.007
REMARK  2 active torsions:
REMARK  status: ('A' for Active; 'I' for Inactive)
REMARK    1  A    between atoms: C_2  and  C_3 
REMARK    2  A    between atoms: C_3  and  C_4 
ROOT
HETATM    1  C   LIG     1      17.229  37.909  22.597  1.00  0.00    -0.014 C 
HETATM    2  C   LIG     1      18.108  38.550  23.668  1.00  0.00     0.004 C 
HETATM    3  C   LIG     1      17.641  37.944  24.976  1.00  0.00     0.000 C 
HETATM    4  C   LIG     1      17.191  36.532  24.635  1.00  0.00     0.000 C 
HETATM    5  C   LIG     1      16.913  36.507  23.132  1.00  0.00     0.004 C 
ENDROOT
BRANCH   1   6
HETATM    6  C   LIG     1      17.923  37.917  21.216  1.00  0.00     0.004 C 
BRANCH   6   7
HETATM    7  C   LIG     1      18.738  39.193  20.936  1.00  0.00    -0.004 C 
HETATM    8  C   LIG     1      19.883  38.977  19.947  1.00  0.00     0.005 C 
ENDBRANCH   6   7
ENDBRANCH   1   6
TORSDOF 2
ENDMDL
MODEL 10
REMARK VINA RESULT:      -5.0      3.325      4.401
REMARK  2 active torsions:
REMARK  status: ('A' for Active; 'I' for Inactive)
REMARK    1  A    between atoms: C_2  and  C_3 
REMARK    2  A    between atoms: C_3  and  C_4 
ROOT
HETATM    1  C   LIG     1      16.905  37.217  22.159  1.00  0.00    -0.014 C 
HETATM    2  C   LIG     1      17.427  36.396  20.984  1.00  0.00     0.004 C 
HETATM    3  C   LIG     1      16.523  35.181  20.920  1.00  0.00     0.000 C 
HETATM    4  C   LIG     1      15.160  35.660  21.398  1.00  0.00     0.000 C 
HETATM    5  C   LIG     1      15.398  36.941  22.197  1.00  0.00     0.004 C 
ENDROOT
BRANCH   1   6
HETATM    6  C   LIG     1      17.269  38.712  22.010  1.00  0.00     0.004 C 
BRANCH   6   7
HETATM    7  C   LIG     1      18.766  38.965  21.746  1.00  0.00    -0.004 C 
HETATM    8  C   LIG     1      19.055  39.469  20.333  1.00  0.00     0.005 C 
ENDBRANCH   6   7
ENDBRANCH   1   6
TORSDOF 2
ENDMDL
MODEL 11
REMARK VINA RESULT:      -4.9      3.324      4.132
REMARK  2 active torsions:
REMARK  status: ('A' for Active; 'I' for Inactive)
REMARK    1  A    between atoms: C_2  and  C_3 
REMARK    2  A    between atoms: C_3  and  C_4 
ROOT
HETATM    1  C   LIG     1      17.025  36.680  21.927  1.00  0.00    -0.014 C 
HETATM    2  C   LIG     1      16.665  38.071  22.441  1.00  0.00     0.004 C 
HETATM    3  C   LIG     1      17.878  38.928  22.142  1.00  0.00     0.000 C 
HETATM    4  C   LIG     1      18.477  38.357  20.866  1.00  0.00     0.000 C 
HETATM    5  C   LIG     1      17.953  36.928  20.732  1.00  0.00     0.004 C 
ENDROOT
BRANCH   1   6
HETATM    6  C   LIG     1      15.760  35.859  21.584  1.00  0.00     0.004 C 
BRANCH   6   7
HETATM    7  C   LIG     1      15.839  35.131  20.229  1.00  0.00    -0.004 C 
HETATM    8  C   LIG     1      15.577  33.629  20.332  1.00  0.00     0.005 C 
ENDBRANCH   6   7
ENDBRANCH   1   6
TORSDOF 2
ENDMDL
MODEL 12
REMARK VINA RESULT:      -4.9      7.204     10.318
REMARK  2 active torsions:
REMARK  status: ('A' for Active; 'I' for Inactive)
REMARK    1  A    between atoms: C_2  and  C_3 
REMARK    2  A    between atoms: C_3  and  C_4 
ROOT
HETATM    1  C   LIG     1      14.427  32.075  16.094  1.00  0.00    -0.014 C 
HETATM    2  C   LIG     1      13.450  30.940  16.386  1.00  0.00     0.004 C 
HETATM    3  C   LIG     1      13.370  30.147  15.097  1.00  0.00     0.000 C 
HETATM    4  C   LIG     1      14.746  30.267  14.458  1.00  0.00     0.000 C 
HETATM    5  C   LIG     1      15.414  31.496  15.074  1.00  0.00     0.004 C 
ENDROOT
BRANCH   1   6
HETATM    6  C   LIG     1      15.090  32.597  17.389  1.00  0.00     0.004 C 
BRANCH   6   7
HETATM    7  C   LIG     1      14.642  31.854  18.662  1.00  0.00    -0.004 C 
HETATM    8  C   LIG     1      15.587  32.055  19.846  1.00  0.00     0.005 C 
ENDBRANCH   6   7
ENDBRANCH   1   6
TORSDOF 2
ENDMDL
MODEL 13
REMARK VINA RESULT:      -4.8      9.192     11.349
REMARK  2 active torsions:
REMARK  status: ('A' for Active; 'I' for Inactive)
REMARK    1  A    between atoms: C_2  and  C_3 
REMARK    2  A    between atoms: C_3  and  C_4 
ROOT
HETATM    1  C   LIG     1      13.784  30.821  15.113  1.00  0.00    -0.014 C 
HETATM    2  C   LIG     1      15.169  31.450  15.223  1.00  0.00     0.004 C 
HETATM    3  C   LIG     1      15.084  32.390  16.408  1.00  0.00     0.000 C 
HETATM    4  C   LIG     1      14.099  31.744  17.372  1.00  0.00     0.000 C 
HETATM    5  C   LIG     1      13.262  30.761  16.554  1.00  0.00     0.004 C 
ENDROOT
BRANCH   1   6
HETATM    6  C   LIG     1      13.840  29.449  14.404  1.00  0.00     0.004 C 
BRANCH   6   7
HETATM    7  C   LIG     1      15.251  29.048  13.934  1.00  0.00    -0.004 C 
HETATM    8  C   LIG     1      15.369  27.571  13.561  1.00  0.00     0.005 C 
ENDBRANCH   6   7
ENDBRANCH   1   6
TORSDOF 2
ENDMDL
MODEL 14
REMARK VINA RESULT:      -4.7      2.315      4.569
REMARK  2 active torsions:
REMARK  status: ('A' for Active; 'I' for Inactive)
REMARK    1  A    between atoms: C_2  and  C_3 
REMARK    2  A    between atoms: C_3  and  C_4 
ROOT
HETATM    1  C   LIG     1      17.008  36.593  21.963  1.00  0.00    -0.014 C 
HETATM    2  C   LIG     1      17.191  35.938  20.598  1.00  0.00     0.004 C 
HETATM    3  C   LIG     1      16.055  34.942  20.482  1.00  0.00     0.000 C 
HETATM    4  C   LIG     1      14.894  35.555  21.252  1.00  0.00     0.000 C 
HETATM    5  C   LIG     1      15.493  36.590  22.203  1.00  0.00     0.004 C 
ENDROOT
BRANCH   1   6
HETATM    6  C   LIG     1      17.651  37.998  22.008  1.00  0.00     0.004 C 
BRANCH   6   7
HETATM    7  C   LIG     1      17.284  38.812  23.263  1.00  0.00    -0.004 C 
HETATM    8  C   LIG     1      17.784  38.181  24.561  1.00  0.00     0.005 C 
ENDBRANCH   6   7
ENDBRANCH   1   6
TORSDOF 2
ENDMDL
MODEL 15
REMARK VINA RESULT:      -4.4      9.344     10.532
REMARK  2 active torsions:
REMARK  status: ('A' for Active; 'I' for Inactive)
REMARK    1  A    between atoms: C_2  and  C_3 
REMARK    2  A    between atoms: C_3  and  C_4 
ROOT
HETATM    1  C   LIG     1      15.313  31.516  15.578  1.00  0.00    -0.014 C 
HETATM    2  C   LIG     1      14.146  30.683  15.058  1.00  0.00     0.004 C 
HETATM    3  C   LIG     1      13.149  30.644  16.200  1.00  0.00     0.000 C 
HETATM    4  C   LIG     1      13.305  31.974  16.923  1.00  0.00     0.000 C 
HETATM    5  C   LIG     1      14.681  32.523  16.546  1.00  0.00     0.004 C 
ENDROOT
BRANCH   1   6
HETATM    6  C   LIG     1      16.105  32.165  14.419  1.00  0.00     0.004 C 
BRANCH   6   7
HETATM    7  C   LIG     1      17.327  32.980  14.881  1.00  0.00    -0.004 C 
HETATM    8  C   LIG     1      18.030  33.716  13.740  1.00  0.00     0.005 C 
ENDBRANCH   6   7
ENDBRANCH   1   6
TORSDOF 2
ENDMDL
MODEL 16
REMARK VINA RESULT:      -4.4      9.902     11.062
REMARK  2 active torsions:
REMARK  status: ('A' for Active; 'I' for Inactive)
REMARK    1  A    between atoms: C_2  and  C_3 
REMARK    2  A    between atoms: C_3  and  C_4 
ROOT
HETATM    1  C   LIG     1      15.642  31.081  14.784  1.00  0.00    -0.014 C 
HETATM    2  C   LIG     1      16.098  32.259  15.639  1.00  0.00     0.004 C 
HETATM    3  C   LIG     1      17.159  32.959  14.813  1.00  0.00     0.000 C 
HETATM    4  C   LIG     1      16.745  32.758  13.363  1.00  0.00     0.000 C 
HETATM    5  C   LIG     1      15.797  31.560  13.335  1.00  0.00     0.004 C 
ENDROOT
BRANCH   1   6
HETATM    6  C   LIG     1      14.208  30.637  15.152  1.00  0.00     0.004 C 
BRANCH   6   7
HETATM    7  C   LIG     1      13.817  30.940  16.610  1.00  0.00    -0.004 C 
HETATM    8  C   LIG     1      12.665  31.936  16.734  1.00  0.00     0.005 C 
ENDBRANCH   6   7
ENDBRANCH   1   6
TORSDOF 2
ENDMDL
MODEL 17
REMARK VINA RESULT:      -4.3      9.681     12.602
REMARK  2 active torsions:
REMARK  status: ('A' for Active; 'I' for Inactive)
REMARK    1  A    between atoms: C_2  and  C_3 
REMARK    2  A    between atoms: C_3  and  C_4 
ROOT
HETATM    1  C   LIG     1      14.398  29.872  14.036  1.00  0.00    -0.014 C 
HETATM    2  C   LIG     1      13.081  29.171  14.353  1.00  0.00     0.004 C 
HETATM    3  C   LIG     1      13.171  27.827  13.658  1.00  0.00     0.000 C 
HETATM    4  C   LIG     1      14.645  27.449  13.691  1.00  0.00     0.000 C 
HETATM    5  C   LIG     1      15.428  28.742  13.914  1.00  0.00     0.004 C 
ENDROOT
BRANCH   1   6
HETATM    6  C   LIG     1      14.747  30.931  15.107  1.00  0.00     0.004 C 
BRANCH   6   7
HETATM    7  C   LIG     1      13.755  30.977  16.284  1.00  0.00    -0.004 C 
HETATM    8  C   LIG     1      13.839  32.268  17.097  1.00  0.00     0.005 C 
ENDBRANCH   6   7
ENDBRANCH   1   6
TORSDOF 2
ENDMDL
MODEL 18
REMARK VINA RESULT:      -4.2      9.760     11.572
REMARK  2 active torsions:
REMARK  status: ('A' for Active; 'I' for Inactive)
REMARK    1  A    between atoms: C_2  and  C_3 
REMARK    2  A    between atoms: C_3  and  C_4 
ROOT
HETATM    1  C   LIG     1      15.478  31.993  14.733  1.00  0.00    -0.014 C 
HETATM    2  C   LIG     1      16.076  31.945  13.330  1.00  0.00     0.004 C 
HETATM    3  C   LIG     1      17.115  33.048  13.305  1.00  0.00     0.000 C 
HETATM    4  C   LIG     1      17.662  33.126  14.723  1.00  0.00     0.000 C 
HETATM    5  C   LIG     1      16.622  32.473  15.634  1.00  0.00     0.004 C 
ENDROOT
BRANCH   1   6
HETATM    6  C   LIG     1      14.884  30.626  15.141  1.00  0.00     0.004 C 
BRANCH   6   7
HETATM    7  C   LIG     1      14.464  29.747  13.948  1.00  0.00    -0.004 C 
HETATM    8  C   LIG     1      15.275  28.457  13.831  1.00  0.00     0.005 C 
ENDBRANCH   6   7
ENDBRANCH   1   6
TORSDOF 2
ENDMDL
MODEL 19
REMARK VINA RESULT:      -3.5     16.571     18.345
REMARK  2 active torsions:
REMARK  status: ('A' for Active; 'I' for Inactive)
REMARK    1  A    between atoms: C_2  and  C_3 
REMARK    2  A    between atoms: C_3  and  C_4 
ROOT
HETATM    1  C   LIG     1      21.462  23.732  36.083  1.00  0.00    -0.014 C 
HETATM    2  C   LIG     1      20.233  22.829  36.103  1.00  0.00     0.004 C 
HETATM    3  C   LIG     1      19.712  22.838  34.680  1.00  0.00     0.000 C 
HETATM    4  C   LIG     1      20.942  22.989  33.797  1.00  0.00     0.000 C 
HETATM    5  C   LIG     1      22.049  23.570  34.676  1.00  0.00     0.004 C 
ENDROOT
BRANCH   1   6
HETATM    6  C   LIG     1      22.445  23.376  37.222  1.00  0.00     0.004 C 
BRANCH   6   7
HETATM    7  C   LIG     1      22.608  21.862  37.453  1.00  0.00    -0.004 C 
HETATM    8  C   LIG     1      23.909  21.299  36.884  1.00  0.00     0.005 C 
ENDBRANCH   6   7
ENDBRANCH   1   6
TORSDOF 2
ENDMDL
MODEL 20
REMARK VINA RESULT:      -3.5     14.923     15.615
REMARK  2 active torsions:
REMARK  status: ('A' for Active; 'I' for Inactive)
REMARK    1  A    between atoms: C_2  and  C_3 
REMARK    2  A    between atoms: C_3  and  C_4 
ROOT
HETATM    1  C   LIG     1      27.297  31.058  34.990  1.00  0.00    -0.014 C 
HETATM    2  C   LIG     1      28.330  31.078  36.112  1.00  0.00     0.004 C 
HETATM    3  C   LIG     1      27.655  31.806  37.257  1.00  0.00     0.000 C 
HETATM    4  C   LIG     1      26.176  31.467  37.140  1.00  0.00     0.000 C 
HETATM    5  C   LIG     1      25.940  31.008  35.702  1.00  0.00     0.004 C 
ENDROOT
BRANCH   1   6
HETATM    6  C   LIG     1      27.543  29.882  34.017  1.00  0.00     0.004 C 
BRANCH   6   7
HETATM    7  C   LIG     1      26.631  28.666  34.266  1.00  0.00    -0.004 C 
HETATM    8  C   LIG     1      26.473  27.766  33.041  1.00  0.00     0.005 C 
ENDBRANCH   6   7
ENDBRANCH   1   6
TORSDOF 2
ENDMDL
