REMARK  2 active torsions:
REMARK  status: ('A' for Active; 'I' for Inactive)
REMARK    1  A    between atoms: C_2  and  C_3 
REMARK    2  A    between atoms: C_3  and  C_4 
ROOT
HETATM    1  C   LIG     1      -0.361  -0.408   0.282  1.00  0.00    -0.014 C 
HETATM    2  C   LIG     1      -1.624  -1.006  -0.330  1.00  0.00     0.004 C 
HETATM    3  C   LIG     1      -2.663   0.094  -0.245  1.00  0.00     0.000 C 
HETATM    4  C   LIG     1      -1.891   1.397  -0.390  1.00  0.00     0.000 C 
HETATM    5  C   LIG     1      -0.435   1.089  -0.042  1.00  0.00     0.004 C 
ENDROOT
BRANCH   1   6
HETATM    6  C   LIG     1       0.911  -1.107  -0.250  1.00  0.00     0.004 C 
BRANCH   6   7
HETATM    7  C   LIG     1       2.170  -0.836   0.595  1.00  0.00    -0.004 C 
HETATM    8  C   LIG     1       2.822   0.513   0.295  1.00  0.00     0.005 C 
ENDBRANCH   6   7
ENDBRANCH   1   6
TORSDOF 2
