MODEL 1
REMARK VINA RESULT:      -5.8      0.000      0.000
REMARK  1 active torsions:
REMARK  status: ('A' for Active; 'I' for Inactive)
REMARK    1  A    between atoms: S_2  and  C_3 
ROOT
HETATM    1  C   LIG     1      16.466  35.986  22.034  1.00  0.00     0.113 A 
HETATM    2  N   LIG     1      16.854  35.145  23.031  1.00  0.00    -0.219 NA
HETATM    3  C   LIG     1      17.243  35.628  24.239  1.00  0.00     0.182 A 
HETATM    4  N   LIG     1      17.630  34.785  25.230  1.00  0.00    -0.220 NA
HETATM    5  C   LIG     1      18.019  35.272  26.440  1.00  0.00     0.235 A 
HETATM    6  N   LIG     1      18.024  36.613  26.670  1.00  0.00    -0.252 NA
HETATM    7  C   LIG     1      17.644  37.492  25.706  1.00  0.00     0.153 A 
HETATM    8  C   LIG     1      17.242  37.016  24.459  1.00  0.00     0.121 A 
HETATM    9  N   LIG     1      16.852  37.855  23.465  1.00  0.00    -0.253 NA
HETATM   10  C   LIG     1      16.464  37.369  22.256  1.00  0.00     0.156 A 
ENDROOT
BRANCH   1  11
HETATM   11  S   LIG     1      15.957  35.318  20.452  1.00  0.00    -0.113 SA
HETATM   12  C   LIG     1      14.967  33.987  21.197  1.00  0.00     0.097 C 
ENDBRANCH   1  11
TORSDOF 1
ENDMDL
MODEL 2
REMARK VINA RESULT:      -5.5      3.018      4.397
REMARK  1 active torsions:
REMARK  status: ('A' for Active; 'I' for Inactive)
REMARK    1  A    between atoms: S_2  and  C_3 
ROOT
HETATM    1  C   LIG     1      16.478  36.011  21.371  1.00  0.00     0.113 A 
HETATM    2  N   LIG     1      17.459  36.081  20.430  1.00  0.00    -0.219 NA
HETATM    3  C   LIG     1      18.266  37.169  20.343  1.00  0.00     0.182 A 
HETATM    4  N   LIG     1      19.242  37.234  19.402  1.00  0.00    -0.220 NA
HETATM    5  C   LIG     1      20.051  38.325  19.317  1.00  0.00     0.235 A 
HETATM    6  N   LIG     1      19.890  39.366  20.179  1.00  0.00    -0.252 NA
HETATM    7  C   LIG     1      18.926  39.342  21.136  1.00  0.00     0.153 A 
HETATM    8  C   LIG     1      18.086  38.234  21.241  1.00  0.00     0.121 A 
HETATM    9  N   LIG     1      17.110  38.165  22.182  1.00  0.00    -0.253 NA
HETATM   10  C   LIG     1      16.301  37.074  22.266  1.00  0.00     0.156 A 
ENDROOT
BRANCH   1  11
HETATM   11  S   LIG     1      15.430  34.562  21.461  1.00  0.00    -0.113 SA
HETATM   12  C   LIG     1      15.645  34.150  19.702  1.00  0.00     0.097 C 
ENDBRANCH   1  11
TORSDOF 1
ENDMDL
MODEL 3
REMARK VINA RESULT:      -5.4      3.215      5.360
REMARK  1 active torsions:
REMARK  status: ('A' for Active; 'I' for Inactive)
REMARK    1  A    between atoms: S_2  and  C_3 
ROOT
HETATM    1  C   LIG     1      17.496  37.812  23.533  1.00  0.00     0.113 A 
HETATM    2  N   LIG     1      18.210  38.684  22.770  1.00  0.00    -0.219 NA
HETATM    3  C   LIG     1      18.457  38.424  21.460  1.00  0.00     0.182 A 
HETATM    4  N   LIG     1      19.170  39.297  20.704  1.00  0.00    -0.220 NA
HETATM    5  C   LIG     1      19.416  39.035  19.392  1.00  0.00     0.235 A 
HETATM    6  N   LIG     1      18.946  37.892  18.821  1.00  0.00    -0.252 NA
HETATM    7  C   LIG     1      18.227  36.992  19.541  1.00  0.00     0.153 A 
HETATM    8  C   LIG     1      17.964  37.240  20.888  1.00  0.00     0.121 A 
HETATM    9  N   LIG     1      17.249  36.371  21.647  1.00  0.00    -0.253 NA
HETATM   10  C   LIG     1      17.004  36.632  22.959  1.00  0.00     0.156 A 
ENDROOT
BRANCH   1  11
HETATM   11  S   LIG     1      17.186  38.183  25.258  1.00  0.00    -0.113 SA
HETATM   12  C   LIG     1      18.355  36.927  25.861  1.00  0.00     0.097 C 
ENDBRANCH   1  11
TORSDOF 1
ENDMDL
MODEL 4
REMARK VINA RESULT:      -5.1      8.286     10.302
REMARK  1 active torsions:
REMARK  status: ('A' for Active; 'I' for Inactive)
REMARK    1  A    between atoms: S_2  and  C_3 
ROOT
HETATM    1  C   LIG     1      14.443  29.988  14.424  1.00  0.00     0.113 A 
HETATM    2  N   LIG     1      14.099  30.796  15.464  1.00  0.00    -0.219 NA
HETATM    3  C   LIG     1      14.784  31.941  15.714  1.00  0.00     0.182 A 
HETATM    4  N   LIG     1      14.437  32.743  16.754  1.00  0.00    -0.220 NA
HETATM    5  C   LIG     1      15.125  33.890  17.002  1.00  0.00     0.235 A 
HETATM    6  N   LIG     1      16.171  34.248  16.208  1.00  0.00    -0.252 NA
HETATM    7  C   LIG     1      16.551  33.475  15.157  1.00  0.00     0.153 A 
HETATM    8  C   LIG     1      15.860  32.295  14.885  1.00  0.00     0.121 A 
HETATM    9  N   LIG     1      16.202  31.492  13.845  1.00  0.00    -0.253 NA
HETATM   10  C   LIG     1      15.515  30.344  13.597  1.00  0.00     0.156 A 
ENDROOT
BRANCH   1  11
HETATM   11  S   LIG     1      13.519  28.484  14.120  1.00  0.00    -0.113 SA
HETATM   12  C   LIG     1      14.981  27.557  13.561  1.00  0.00     0.097 C 
ENDBRANCH   1  11
TORSDOF 1
ENDMDL
MODEL 5
REMARK VINA RESULT:      -5.1      7.917      9.787
REMARK  1 active torsions:
REMARK  status: ('A' for Active; 'I' for Inactive)
REMARK    1  A    between atoms: S_2  and  C_3 
ROOT
HETATM    1  C   LIG     1      17.138  32.922  14.227  1.00  0.00     0.113 A 
HETATM    2  N   LIG     1      16.862  33.141  15.541  1.00  0.00    -0.219 NA
HETATM    3  C   LIG     1      15.822  32.516  16.149  1.00  0.00     0.182 A 
HETATM    4  N   LIG     1      15.550  32.739  17.461  1.00  0.00    -0.220 NA
HETATM    5  C   LIG     1      14.507  32.112  18.068  1.00  0.00     0.235 A 
HETATM    6  N   LIG     1      13.723  31.249  17.366  1.00  0.00    -0.252 NA
HETATM    7  C   LIG     1      13.959  30.996  16.052  1.00  0.00     0.153 A 
HETATM    8  C   LIG     1      15.023  31.629  15.410  1.00  0.00     0.121 A 
HETATM    9  N   LIG     1      15.299  31.407  14.099  1.00  0.00    -0.253 NA
HETATM   10  C   LIG     1      16.341  32.036  13.491  1.00  0.00     0.156 A 
ENDROOT
BRANCH   1  11
HETATM   11  S   LIG     1      18.518  33.761  13.453  1.00  0.00    -0.113 SA
HETATM   12  C   LIG     1      17.466  34.654  12.269  1.00  0.00     0.097 C 
ENDBRANCH   1  11
TORSDOF 1
ENDMDL
MODEL 6
REMARK VINA RESULT:      -5.0      2.396      4.545
REMARK  1 active torsions:
REMARK  status: ('A' for Active; 'I' for Inactive)
REMARK    1  A    between atoms: S_2  and  C_3 
ROOT
HETATM    1  C   LIG     1      17.372  37.598  23.809  1.00  0.00     0.113 A 
HETATM    2  N   LIG     1      16.695  36.435  23.601  1.00  0.00    -0.219 NA
HETATM    3  C   LIG     1      16.554  35.926  22.351  1.00  0.00     0.182 A 
HETATM    4  N   LIG     1      15.877  34.767  22.148  1.00  0.00    -0.220 NA
HETATM    5  C   LIG     1      15.736  34.257  20.894  1.00  0.00     0.235 A 
HETATM    6  N   LIG     1      16.275  34.906  19.826  1.00  0.00    -0.252 NA
HETATM    7  C   LIG     1      16.961  36.069  19.984  1.00  0.00     0.153 A 
HETATM    8  C   LIG     1      17.117  36.608  21.260  1.00  0.00     0.121 A 
HETATM    9  N   LIG     1      17.795  37.767  21.467  1.00  0.00    -0.253 NA
HETATM   10  C   LIG     1      17.935  38.276  22.720  1.00  0.00     0.156 A 
ENDROOT
BRANCH   1  11
HETATM   11  S   LIG     1      17.543  38.244  25.471  1.00  0.00    -0.113 SA
HETATM   12  C   LIG     1      18.294  36.718  26.116  1.00  0.00     0.097 C 
ENDBRANCH   1  11
TORSDOF 1
ENDMDL
MODEL 7
REMARK VINA RESULT:      -5.0      8.979     10.582
REMARK  1 active torsions:
REMARK  status: ('A' for Active; 'I' for Inactive)
REMARK    1  A    between atoms: S_2  and  C_3 
ROOT
HETATM    1  C   LIG     1      14.218  29.862  14.590  1.00  0.00     0.113 A 
HETATM    2  N   LIG     1      15.277  30.476  13.995  1.00  0.00    -0.219 NA
HETATM    3  C   LIG     1      15.788  31.629  14.498  1.00  0.00     0.182 A 
HETATM    4  N   LIG     1      16.844  32.238  13.899  1.00  0.00    -0.220 NA
HETATM    5  C   LIG     1      17.355  33.393  14.405  1.00  0.00     0.235 A 
HETATM    6  N   LIG     1      16.812  33.952  15.521  1.00  0.00    -0.252 NA
HETATM    7  C   LIG     1      15.755  33.375  16.152  1.00  0.00     0.153 A 
HETATM    8  C   LIG     1      15.216  32.192  15.650  1.00  0.00     0.121 A 
HETATM    9  N   LIG     1      14.161  31.579  16.247  1.00  0.00    -0.253 NA
HETATM   10  C   LIG     1      13.650  30.425  15.741  1.00  0.00     0.156 A 
ENDROOT
BRANCH   1  11
HETATM   11  S   LIG     1      13.567  28.342  13.903  1.00  0.00    -0.113 SA
HETATM   12  C   LIG     1      15.214  27.640  13.585  1.00  0.00     0.097 C 
ENDBRANCH   1  11
TORSDOF 1
ENDMDL
MODEL 8
REMARK VINA RESULT:      -4.9      3.283      4.628
REMARK  1 active torsions:
REMARK  status: ('A' for Active; 'I' for Inactive)
REMARK    1  A    between atoms: S_2  and  C_3 
ROOT
HETATM    1  C   LIG     1      18.839  38.088  20.306  1.00  0.00     0.113 A 
HETATM    2  N   LIG     1      18.292  36.924  19.862  1.00  0.00    -0.219 NA
HETATM    3  C   LIG     1      17.291  36.317  20.548  1.00  0.00     0.182 A 
HETATM    4  N   LIG     1      16.750  35.155  20.101  1.00  0.00    -0.220 NA
HETATM    5  C   LIG     1      15.745  34.549  20.790  1.00  0.00     0.235 A 
HETATM    6  N   LIG     1      15.270  35.103  21.939  1.00  0.00    -0.252 NA
HETATM    7  C   LIG     1      15.782  36.266  22.422  1.00  0.00     0.153 A 
HETATM    8  C   LIG     1      16.812  36.903  21.731  1.00  0.00     0.121 A 
HETATM    9  N   LIG     1      17.355  38.067  22.174  1.00  0.00    -0.253 NA
HETATM   10  C   LIG     1      18.359  38.672  21.485  1.00  0.00     0.156 A 
ENDROOT
BRANCH   1  11
HETATM   11  S   LIG     1      20.159  38.865  19.377  1.00  0.00    -0.113 SA
HETATM   12  C   LIG     1      19.111  39.185  17.925  1.00  0.00     0.097 C 
ENDBRANCH   1  11
TORSDOF 1
ENDMDL
MODEL 9
REMARK VINA RESULT:      -4.9      1.083      2.226
REMARK  1 active torsions:
REMARK  status: ('A' for Active; 'I' for Inactive)
REMARK    1  A    between atoms: S_2  and  C_3 
ROOT
HETATM    1  C   LIG     1      16.397  35.704  21.753  1.00  0.00     0.113 A 
HETATM    2  N   LIG     1      16.399  36.974  22.241  1.00  0.00    -0.219 NA
HETATM    3  C   LIG     1      16.806  37.233  23.510  1.00  0.00     0.182 A 
HETATM    4  N   LIG     1      16.805  38.502  23.992  1.00  0.00    -0.220 NA
HETATM    5  C   LIG     1      17.214  38.760  25.264  1.00  0.00     0.235 A 
HETATM    6  N   LIG     1      17.632  37.745  26.069  1.00  0.00    -0.252 NA
HETATM    7  C   LIG     1      17.650  36.460  25.626  1.00  0.00     0.153 A 
HETATM    8  C   LIG     1      17.234  36.174  24.326  1.00  0.00     0.121 A 
HETATM    9  N   LIG     1      17.235  34.906  23.840  1.00  0.00    -0.253 NA
HETATM   10  C   LIG     1      16.826  34.648  22.569  1.00  0.00     0.156 A 
ENDROOT
BRANCH   1  11
HETATM   11  S   LIG     1      15.854  35.394  20.074  1.00  0.00    -0.113 SA
HETATM   12  C   LIG     1      15.583  33.619  20.362  1.00  0.00     0.097 C 
ENDBRANCH   1  11
TORSDOF 1
ENDMDL
MODEL 10
REMARK VINA RESULT:      -4.9      8.158      9.887
REMARK  1 active torsions:
REMARK  status: ('A' for Active; 'I' for Inactive)
REMARK    1  A    between atoms: S_2  and  C_3 
ROOT
HETATM    1  C   LIG     1      14.846  32.199  16.189  1.00  0.00     0.113 A 
HETATM    2  N   LIG     1      15.526  31.865  15.059  1.00  0.00    -0.219 NA
HETATM    3  C   LIG     1      16.444  32.708  14.522  1.00  0.00     0.182 A 
HETATM    4  N   LIG     1      17.119  32.370  13.394  1.00  0.00    -0.220 NA
HETATM    5  C   LIG     1      18.039  33.217  12.857  1.00  0.00     0.235 A 
HETATM    6  N   LIG     1      18.295  34.416  13.450  1.00  0.00    -0.252 NA
HETATM    7  C   LIG     1      17.642  34.794  14.580  1.00  0.00     0.153 A 
HETATM    8  C   LIG     1      16.696  33.941  15.146  1.00  0.00     0.121 A 
HETATM    9  N   LIG     1      16.020  34.275  16.276  1.00  0.00    -0.253 NA
HETATM   10  C   LIG     1      15.099  33.428  16.811  1.00  0.00     0.156 A 
ENDROOT
BRANCH   1  11
HETATM   11  S   LIG     1      13.642  31.064  16.874  1.00  0.00    -0.113 SA
HETATM   12  C   LIG     1      13.285  30.286  15.269  1.00  0.00     0.097 C 
ENDBRANCH   1  11
TORSDOF 1
ENDMDL
MODEL 11
REMARK VINA RESULT:      -4.8      3.194      4.456
REMARK  1 active torsions:
REMARK  status: ('A' for Active; 'I' for Inactive)
REMARK    1  A    between atoms: S_2  and  C_3 
ROOT
HETATM    1  C   LIG     1      19.049  38.251  19.815  1.00  0.00     0.113 A 
HETATM    2  N   LIG     1      18.655  38.782  21.005  1.00  0.00    -0.219 NA
HETATM    3  C   LIG     1      17.870  38.076  21.858  1.00  0.00     0.182 A 
HETATM    4  N   LIG     1      17.479  38.611  23.043  1.00  0.00    -0.220 NA
HETATM    5  C   LIG     1      16.692  37.902  23.896  1.00  0.00     0.235 A 
HETATM    6  N   LIG     1      16.287  36.643  23.571  1.00  0.00    -0.252 NA
HETATM    7  C   LIG     1      16.656  36.070  22.395  1.00  0.00     0.153 A 
HETATM    8  C   LIG     1      17.462  36.779  21.506  1.00  0.00     0.121 A 
HETATM    9  N   LIG     1      17.857  36.247  20.320  1.00  0.00    -0.253 NA
HETATM   10  C   LIG     1      18.643  36.956  19.467  1.00  0.00     0.156 A 
ENDROOT
BRANCH   1  11
HETATM   11  S   LIG     1      20.086  39.207  18.712  1.00  0.00    -0.113 SA
HETATM   12  C   LIG     1      18.812  39.321  17.419  1.00  0.00     0.097 C 
ENDBRANCH   1  11
TORSDOF 1
ENDMDL
MODEL 12
REMARK VINA RESULT:      -4.7      3.123      4.947
REMARK  1 active torsions:
REMARK  status: ('A' for Active; 'I' for Inactive)
REMARK    1  A    between atoms: S_2  and  C_3 
ROOT
HETATM    1  C   LIG     1      17.376  36.664  22.834  1.00  0.00     0.113 A 
HETATM    2  N   LIG     1      17.728  36.412  21.544  1.00  0.00    -0.219 NA
HETATM    3  C   LIG     1      18.180  37.405  20.737  1.00  0.00     0.182 A 
HETATM    4  N   LIG     1      18.529  37.148  19.451  1.00  0.00    -0.220 NA
HETATM    5  C   LIG     1      18.983  38.145  18.644  1.00  0.00     0.235 A 
HETATM    6  N   LIG     1      19.093  39.416  19.120  1.00  0.00    -0.252 NA
HETATM    7  C   LIG     1      18.755  39.717  20.401  1.00  0.00     0.153 A 
HETATM    8  C   LIG     1      18.288  38.711  21.245  1.00  0.00     0.121 A 
HETATM    9  N   LIG     1      17.940  38.963  22.533  1.00  0.00    -0.253 NA
HETATM   10  C   LIG     1      17.486  37.967  23.339  1.00  0.00     0.156 A 
ENDROOT
BRANCH   1  11
HETATM   11  S   LIG     1      16.783  35.332  23.874  1.00  0.00    -0.113 SA
HETATM   12  C   LIG     1      17.522  36.023  25.386  1.00  0.00     0.097 C 
ENDBRANCH   1  11
TORSDOF 1
ENDMDL
MODEL 13
REMARK VINA RESULT:      -4.7      9.127     10.359
REMARK  1 active torsions:
REMARK  status: ('A' for Active; 'I' for Inactive)
REMARK    1  A    between atoms: S_2  and  C_3 
ROOT
HETATM    1  C   LIG     1      14.691  31.167  15.172  1.00  0.00     0.113 A 
HETATM    2  N   LIG     1      15.216  32.311  15.691  1.00  0.00    -0.219 NA
HETATM    3  C   LIG     1      16.170  33.007  15.023  1.00  0.00     0.182 A 
HETATM    4  N   LIG     1      16.690  34.147  15.545  1.00  0.00    -0.220 NA
HETATM    5  C   LIG     1      17.647  34.843  14.873  1.00  0.00     0.235 A 
HETATM    6  N   LIG     1      18.093  34.403  13.665  1.00  0.00    -0.252 NA
HETATM    7  C   LIG     1      17.599  33.268  13.105  1.00  0.00     0.153 A 
HETATM    8  C   LIG     1      16.619  32.539  13.777  1.00  0.00     0.121 A 
HETATM    9  N   LIG     1      16.095  31.399  13.256  1.00  0.00    -0.253 NA
HETATM   10  C   LIG     1      15.139  30.703  13.929  1.00  0.00     0.156 A 
ENDROOT
BRANCH   1  11
HETATM   11  S   LIG     1      13.432  30.272  16.078  1.00  0.00    -0.113 SA
HETATM   12  C   LIG     1      12.715  31.777  16.804  1.00  0.00     0.097 C 
ENDBRANCH   1  11
TORSDOF 1
ENDMDL
MODEL 14
REMARK VINA RESULT:      -4.6      2.652      3.842
REMARK  1 active torsions:
REMARK  status: ('A' for Active; 'I' for Inactive)
REMARK    1  A    between atoms: S_2  and  C_3 
ROOT
HETATM    1  C   LIG     1      15.556  34.011  20.026  1.00  0.00     0.113 A 
HETATM    2  N   LIG     1      16.473  34.976  19.740  1.00  0.00    -0.219 NA
HETATM    3  C   LIG     1      16.791  35.929  20.653  1.00  0.00     0.182 A 
HETATM    4  N   LIG     1      17.705  36.890  20.362  1.00  0.00    -0.220 NA
HETATM    5  C   LIG     1      18.022  37.844  21.279  1.00  0.00     0.235 A 
HETATM    6  N   LIG     1      17.425  37.844  22.503  1.00  0.00    -0.252 NA
HETATM    7  C   LIG     1      16.505  36.901  22.835  1.00  0.00     0.153 A 
HETATM    8  C   LIG     1      16.165  35.915  21.911  1.00  0.00     0.121 A 
HETATM    9  N   LIG     1      15.252  34.951  22.198  1.00  0.00    -0.253 NA
HETATM   10  C   LIG     1      14.935  33.998  21.281  1.00  0.00     0.156 A 
ENDROOT
BRANCH   1  11
HETATM   11  S   LIG     1      15.159  32.767  18.800  1.00  0.00    -0.113 SA
HETATM   12  C   LIG     1      14.857  31.471  20.039  1.00  0.00     0.097 C 
ENDBRANCH   1  11
TORSDOF 1
ENDMDL
MODEL 15
REMARK VINA RESULT:      -4.5      4.479      6.984
REMARK  1 active torsions:
REMARK  status: ('A' for Active; 'I' for Inactive)
REMARK    1  A    between atoms: S_2  and  C_3 
ROOT
HETATM    1  C   LIG     1      15.968  35.085  20.614  1.00  0.00     0.113 A 
HETATM    2  N   LIG     1      16.033  35.189  19.259  1.00  0.00    -0.219 NA
HETATM    3  C   LIG     1      15.587  34.187  18.460  1.00  0.00     0.182 A 
HETATM    4  N   LIG     1      15.655  34.295  17.108  1.00  0.00    -0.220 NA
HETATM    5  C   LIG     1      15.208  33.289  16.309  1.00  0.00     0.235 A 
HETATM    6  N   LIG     1      14.684  32.159  16.858  1.00  0.00    -0.252 NA
HETATM    7  C   LIG     1      14.596  32.009  18.206  1.00  0.00     0.153 A 
HETATM    8  C   LIG     1      15.049  33.027  19.043  1.00  0.00     0.121 A 
HETATM    9  N   LIG     1      14.981  32.923  20.395  1.00  0.00    -0.253 NA
HETATM   10  C   LIG     1      15.430  33.929  21.194  1.00  0.00     0.156 A 
ENDROOT
BRANCH   1  11
HETATM   11  S   LIG     1      16.563  36.426  21.642  1.00  0.00    -0.113 SA
HETATM   12  C   LIG     1      18.004  36.757  20.582  1.00  0.00     0.097 C 
ENDBRANCH   1  11
TORSDOF 1
ENDMDL
MODEL 16
REMARK VINA RESULT:      -4.5      6.635      9.693
REMARK  1 active torsions:
REMARK  status: ('A' for Active; 'I' for Inactive)
REMARK    1  A    between atoms: S_2  and  C_3 
ROOT
HETATM    1  C   LIG     1      15.194  33.422  17.643  1.00  0.00     0.113 A 
HETATM    2  N   LIG     1      15.830  33.640  16.460  1.00  0.00    -0.219 NA
HETATM    3  C   LIG     1      15.739  32.744  15.443  1.00  0.00     0.182 A 
HETATM    4  N   LIG     1      16.376  32.966  14.265  1.00  0.00    -0.220 NA
HETATM    5  C   LIG     1      16.283  32.068  13.248  1.00  0.00     0.235 A 
HETATM    6  N   LIG     1      15.546  30.934  13.400  1.00  0.00    -0.252 NA
HETATM    7  C   LIG     1      14.891  30.673  14.562  1.00  0.00     0.153 A 
HETATM    8  C   LIG     1      14.974  31.579  15.618  1.00  0.00     0.121 A 
HETATM    9  N   LIG     1      14.336  31.362  16.797  1.00  0.00    -0.253 NA
HETATM   10  C   LIG     1      14.430  32.260  17.814  1.00  0.00     0.156 A 
ENDROOT
BRANCH   1  11
HETATM   11  S   LIG     1      15.334  34.622  18.965  1.00  0.00    -0.113 SA
HETATM   12  C   LIG     1      15.489  33.355  20.261  1.00  0.00     0.097 C 
ENDBRANCH   1  11
TORSDOF 1
ENDMDL
MODEL 17
REMARK VINA RESULT:      -4.5      1.460      1.699
REMARK  1 active torsions:
REMARK  status: ('A' for Active; 'I' for Inactive)
REMARK    1  A    between atoms: S_2  and  C_3 
ROOT
HETATM    1  C   LIG     1      16.328  35.112  21.457  1.00  0.00     0.113 A 
HETATM    2  N   LIG     1      16.525  34.980  22.797  1.00  0.00    -0.219 NA
HETATM    3  C   LIG     1      17.039  36.000  23.530  1.00  0.00     0.182 A 
HETATM    4  N   LIG     1      17.235  35.863  24.866  1.00  0.00    -0.220 NA
HETATM    5  C   LIG     1      17.751  36.887  25.599  1.00  0.00     0.235 A 
HETATM    6  N   LIG     1      18.075  38.064  24.999  1.00  0.00    -0.252 NA
HETATM    7  C   LIG     1      17.896  38.244  23.664  1.00  0.00     0.153 A 
HETATM    8  C   LIG     1      17.369  37.208  22.894  1.00  0.00     0.121 A 
HETATM    9  N   LIG     1      17.170  37.342  21.557  1.00  0.00    -0.253 NA
HETATM   10  C   LIG     1      16.656  36.318  20.824  1.00  0.00     0.156 A 
ENDROOT
BRANCH   1  11
HETATM   11  S   LIG     1      15.647  33.748  20.517  1.00  0.00    -0.113 SA
HETATM   12  C   LIG     1      15.581  34.693  18.964  1.00  0.00     0.097 C 
ENDBRANCH   1  11
TORSDOF 1
ENDMDL
MODEL 18
REMARK VINA RESULT:      -4.3      4.236      7.151
REMARK  1 active torsions:
REMARK  status: ('A' for Active; 'I' for Inactive)
REMARK    1  A    between atoms: S_2  and  C_3 
ROOT
HETATM    1  C   LIG     1      15.840  34.374  20.410  1.00  0.00     0.113 A 
HETATM    2  N   LIG     1      15.291  33.141  20.234  1.00  0.00    -0.219 NA
HETATM    3  C   LIG     1      14.933  32.707  18.999  1.00  0.00     0.182 A 
HETATM    4  N   LIG     1      14.385  31.477  18.829  1.00  0.00    -0.220 NA
HETATM    5  C   LIG     1      14.027  31.043  17.590  1.00  0.00     0.235 A 
HETATM    6  N   LIG     1      14.216  31.841  16.503  1.00  0.00    -0.252 NA
HETATM    7  C   LIG     1      14.762  33.079  16.628  1.00  0.00     0.153 A 
HETATM    8  C   LIG     1      15.136  33.543  17.888  1.00  0.00     0.121 A 
HETATM    9  N   LIG     1      15.686  34.772  18.062  1.00  0.00    -0.253 NA
HETATM   10  C   LIG     1      16.043  35.206  19.301  1.00  0.00     0.156 A 
ENDROOT
BRANCH   1  11
HETATM   11  S   LIG     1      16.303  34.918  22.052  1.00  0.00    -0.113 SA
HETATM   12  C   LIG     1      17.179  36.393  21.447  1.00  0.00     0.097 C 
ENDBRANCH   1  11
TORSDOF 1
ENDMDL
MODEL 19
REMARK VINA RESULT:      -4.2      7.702     10.693
REMARK  1 active torsions:
REMARK  status: ('A' for Active; 'I' for Inactive)
REMARK    1  A    between atoms: S_2  and  C_3 
ROOT
HETATM    1  C   LIG     1      15.244  32.751  16.350  1.00  0.00     0.113 A 
HETATM    2  N   LIG     1      14.194  31.892  16.241  1.00  0.00    -0.219 NA
HETATM    3  C   LIG     1      14.228  30.857  15.363  1.00  0.00     0.182 A 
HETATM    4  N   LIG     1      13.177  30.004  15.257  1.00  0.00    -0.220 NA
HETATM    5  C   LIG     1      13.212  28.967  14.377  1.00  0.00     0.235 A 
HETATM    6  N   LIG     1      14.307  28.773  13.591  1.00  0.00    -0.252 NA
HETATM    7  C   LIG     1      15.380  29.603  13.665  1.00  0.00     0.153 A 
HETATM    8  C   LIG     1      15.364  30.671  14.559  1.00  0.00     0.121 A 
HETATM    9  N   LIG     1      16.414  31.526  14.670  1.00  0.00    -0.253 NA
HETATM   10  C   LIG     1      16.378  32.563  15.549  1.00  0.00     0.156 A 
ENDROOT
BRANCH   1  11
HETATM   11  S   LIG     1      15.170  34.106  17.519  1.00  0.00    -0.113 SA
HETATM   12  C   LIG     1      15.172  33.011  18.971  1.00  0.00     0.097 C 
ENDBRANCH   1  11
TORSDOF 1
ENDMDL
MODEL 20
REMARK VINA RESULT:      -4.1      5.997      7.890
REMARK  1 active torsions:
REMARK  status: ('A' for Active; 'I' for Inactive)
REMARK    1  A    between atoms: S_2  and  C_3 
ROOT
HETATM    1  C   LIG     1      14.228  31.161  16.062  1.00  0.00     0.113 A 
HETATM    2  N   LIG     1      14.007  30.886  17.377  1.00  0.00    -0.219 NA
HETATM    3  C   LIG     1      14.451  31.724  18.348  1.00  0.00     0.182 A 
HETATM    4  N   LIG     1      14.229  31.444  19.658  1.00  0.00    -0.220 NA
HETATM    5  C   LIG     1      14.674  32.285  20.631  1.00  0.00     0.235 A 
HETATM    6  N   LIG     1      15.348  33.421  20.300  1.00  0.00    -0.252 NA
HETATM    7  C   LIG     1      15.592  33.739  19.001  1.00  0.00     0.153 A 
HETATM    8  C   LIG     1      15.145  32.891  17.989  1.00  0.00     0.121 A 
HETATM    9  N   LIG     1      15.363  33.168  16.677  1.00  0.00    -0.253 NA
HETATM   10  C   LIG     1      14.919  32.327  15.705  1.00  0.00     0.156 A 
ENDROOT
BRANCH   1  11
HETATM   11  S   LIG     1      13.629  30.037  14.803  1.00  0.00    -0.113 SA
HETATM   12  C   LIG     1      15.244  29.915  13.975  1.00  0.00     0.097 C 
ENDBRANCH   1  11
TORSDOF 1
ENDMDL
