REMARK  1 active torsions:
REMARK  status: ('A' for Active; 'I' for Inactive)
REMARK    1  A    between atoms: O_2  and  C_3 
ROOT
HETATM    1  C   LIG     1       1.172   0.357  -0.205  1.00  0.00     0.183 A 
HETATM    2  N   LIG     1       0.080   1.085  -0.566  1.00  0.00    -0.201 NA
HETATM    3  C   LIG     1      -1.177   0.666  -0.273  1.00  0.00     0.183 A 
HETATM    4  N   LIG     1      -2.256   1.404  -0.641  1.00  0.00    -0.220 NA
HETATM    5  C   LIG     1      -3.516   0.983  -0.346  1.00  0.00     0.235 A 
HETATM    6  N   LIG     1      -3.708  -0.186   0.323  1.00  0.00    -0.252 NA
HETATM    7  C   LIG     1      -2.656  -0.956   0.710  1.00  0.00     0.153 A 
HETATM    8  C   LIG     1      -1.358  -0.541   0.417  1.00  0.00     0.121 A 
HETATM    9  N   LIG     1      -0.276  -1.275   0.782  1.00  0.00    -0.251 NA
HETATM   10  C   LIG     1       0.984  -0.856   0.488  1.00  0.00     0.175 A 
ENDROOT
BRANCH   1  11
HETATM   11  O   LIG     1       2.444   0.845  -0.538  1.00  0.00    -0.338 OA
HETATM   12  C   LIG     1       3.665   0.185  -0.221  1.00  0.00     0.211 C 
ENDBRANCH   1  11
TORSDOF 1
