REMARK  1 active torsions:
REMARK  status: ('A' for Active; 'I' for Inactive)
REMARK    1  A    between atoms: S_2  and  C_3 
ROOT
HETATM    1  C   LIG     1      -1.010  -1.038  -0.379  1.00  0.00     0.113 A 
HETATM    2  N   LIG     1      -0.076  -0.592  -1.263  1.00  0.00    -0.219 NA
HETATM    3  C   LIG     1       1.065   0.003  -0.831  1.00  0.00     0.182 A 
HETATM    4  N   LIG     1       1.993   0.447  -1.717  1.00  0.00    -0.220 NA
HETATM    5  C   LIG     1       3.136   1.043  -1.282  1.00  0.00     0.235 A 
HETATM    6  N   LIG     1       3.363   1.200   0.051  1.00  0.00    -0.252 NA
HETATM    7  C   LIG     1       2.461   0.770   0.972  1.00  0.00     0.153 A 
HETATM    8  C   LIG     1       1.283   0.157   0.548  1.00  0.00     0.121 A 
HETATM    9  N   LIG     1       0.353  -0.290   1.431  1.00  0.00    -0.253 NA
HETATM   10  C   LIG     1      -0.790  -0.885   0.996  1.00  0.00     0.156 A 
ENDROOT
BRANCH   1  11
HETATM   11  S   LIG     1      -2.505  -1.820  -0.980  1.00  0.00    -0.113 SA
HETATM   12  C   LIG     1      -3.424  -0.254  -1.087  1.00  0.00     0.097 C 
ENDBRANCH   1  11
TORSDOF 1
