MODEL 1
REMARK VINA RESULT:      -6.0      0.000      0.000
REMARK  1 active torsions:
REMARK  status: ('A' for Active; 'I' for Inactive)
REMARK    1  A    between atoms: O_2  and  C_3 
ROOT
HETATM    1  C   LIG     1      16.964  37.700  23.317  1.00  0.00     0.183 A 
HETATM    2  N   LIG     1      17.716  38.641  22.682  1.00  0.00    -0.201 NA
HETATM    3  C   LIG     1      18.230  38.418  21.447  1.00  0.00     0.183 A 
HETATM    4  N   LIG     1      18.978  39.368  20.827  1.00  0.00    -0.220 NA
HETATM    5  C   LIG     1      19.493  39.143  19.588  1.00  0.00     0.235 A 
HETATM    6  N   LIG     1      19.263  37.962  18.954  1.00  0.00    -0.252 NA
HETATM    7  C   LIG     1      18.519  36.984  19.538  1.00  0.00     0.153 A 
HETATM    8  C   LIG     1      17.983  37.195  20.807  1.00  0.00     0.121 A 
HETATM    9  N   LIG     1      17.235  36.250  21.431  1.00  0.00    -0.251 NA
HETATM   10  C   LIG     1      16.720  36.472  22.670  1.00  0.00     0.175 A 
ENDROOT
BRANCH   1  11
HETATM   11  O   LIG     1      16.462  37.992  24.594  1.00  0.00    -0.338 OA
HETATM   12  C   LIG     1      17.258  38.071  25.771  1.00  0.00     0.211 C 
ENDBRANCH   1  11
TORSDOF 1
ENDMDL
MODEL 2
REMARK VINA RESULT:      -5.9      1.903      3.134
REMARK  1 active torsions:
REMARK  status: ('A' for Active; 'I' for Inactive)
REMARK    1  A    between atoms: O_2  and  C_3 
ROOT
HETATM    1  C   LIG     1      16.644  35.861  21.420  1.00  0.00     0.183 A 
HETATM    2  N   LIG     1      17.607  36.003  20.469  1.00  0.00    -0.201 NA
HETATM    3  C   LIG     1      18.322  37.150  20.354  1.00  0.00     0.183 A 
HETATM    4  N   LIG     1      19.279  37.276  19.398  1.00  0.00    -0.220 NA
HETATM    5  C   LIG     1      19.996  38.427  19.284  1.00  0.00     0.235 A 
HETATM    6  N   LIG     1      19.761  39.467  20.130  1.00  0.00    -0.252 NA
HETATM    7  C   LIG     1      18.812  39.383  21.101  1.00  0.00     0.153 A 
HETATM    8  C   LIG     1      18.068  38.212  21.233  1.00  0.00     0.121 A 
HETATM    9  N   LIG     1      17.110  38.081  22.186  1.00  0.00    -0.251 NA
HETATM   10  C   LIG     1      16.392  36.932  22.301  1.00  0.00     0.175 A 
ENDROOT
BRANCH   1  11
HETATM   11  O   LIG     1      15.940  34.649  21.487  1.00  0.00    -0.338 OA
HETATM   12  C   LIG     1      15.671  33.815  20.365  1.00  0.00     0.211 C 
ENDBRANCH   1  11
TORSDOF 1
ENDMDL
MODEL 3
REMARK VINA RESULT:      -5.8      3.040      5.248
REMARK  1 active torsions:
REMARK  status: ('A' for Active; 'I' for Inactive)
REMARK    1  A    between atoms: O_2  and  C_3 
ROOT
HETATM    1  C   LIG     1      16.413  36.124  22.028  1.00  0.00     0.183 A 
HETATM    2  N   LIG     1      16.811  35.236  22.979  1.00  0.00    -0.201 NA
HETATM    3  C   LIG     1      17.213  35.649  24.208  1.00  0.00     0.183 A 
HETATM    4  N   LIG     1      17.608  34.750  25.145  1.00  0.00    -0.220 NA
HETATM    5  C   LIG     1      18.009  35.165  26.377  1.00  0.00     0.235 A 
HETATM    6  N   LIG     1      18.019  36.491  26.683  1.00  0.00    -0.252 NA
HETATM    7  C   LIG     1      17.632  37.425  25.774  1.00  0.00     0.153 A 
HETATM    8  C   LIG     1      17.217  37.019  24.507  1.00  0.00     0.121 A 
HETATM    9  N   LIG     1      16.821  37.914  23.566  1.00  0.00    -0.251 NA
HETATM   10  C   LIG     1      16.420  37.500  22.334  1.00  0.00     0.175 A 
ENDROOT
BRANCH   1  11
HETATM   11  O   LIG     1      16.010  35.633  20.777  1.00  0.00    -0.338 OA
HETATM   12  C   LIG     1      15.715  34.266  20.509  1.00  0.00     0.211 C 
ENDBRANCH   1  11
TORSDOF 1
ENDMDL
MODEL 4
REMARK VINA RESULT:      -5.7      2.528      4.721
REMARK  1 active torsions:
REMARK  status: ('A' for Active; 'I' for Inactive)
REMARK    1  A    between atoms: O_2  and  C_3 
ROOT
HETATM    1  C   LIG     1      17.450  38.074  22.496  1.00  0.00     0.183 A 
HETATM    2  N   LIG     1      17.871  38.177  23.786  1.00  0.00    -0.201 NA
HETATM    3  C   LIG     1      17.798  37.125  24.640  1.00  0.00     0.183 A 
HETATM    4  N   LIG     1      18.222  37.245  25.924  1.00  0.00    -0.220 NA
HETATM    5  C   LIG     1      18.148  36.189  26.779  1.00  0.00     0.235 A 
HETATM    6  N   LIG     1      17.647  34.998  26.354  1.00  0.00    -0.252 NA
HETATM    7  C   LIG     1      17.211  34.834  25.076  1.00  0.00     0.153 A 
HETATM    8  C   LIG     1      17.279  35.904  24.186  1.00  0.00     0.121 A 
HETATM    9  N   LIG     1      16.856  35.790  22.901  1.00  0.00    -0.251 NA
HETATM   10  C   LIG     1      16.929  36.844  22.045  1.00  0.00     0.175 A 
ENDROOT
BRANCH   1  11
HETATM   11  O   LIG     1      17.553  39.199  21.664  1.00  0.00    -0.338 OA
HETATM   12  C   LIG     1      18.657  39.464  20.806  1.00  0.00     0.211 C 
ENDBRANCH   1  11
TORSDOF 1
ENDMDL
MODEL 5
REMARK VINA RESULT:      -5.7      2.373      4.521
REMARK  1 active torsions:
REMARK  status: ('A' for Active; 'I' for Inactive)
REMARK    1  A    between atoms: O_2  and  C_3 
ROOT
HETATM    1  C   LIG     1      18.981  38.519  19.283  1.00  0.00     0.183 A 
HETATM    2  N   LIG     1      18.600  39.103  20.452  1.00  0.00    -0.201 NA
HETATM    3  C   LIG     1      17.980  38.393  21.428  1.00  0.00     0.183 A 
HETATM    4  N   LIG     1      17.605  38.992  22.588  1.00  0.00    -0.220 NA
HETATM    5  C   LIG     1      16.984  38.278  23.566  1.00  0.00     0.235 A 
HETATM    6  N   LIG     1      16.731  36.953  23.391  1.00  0.00    -0.252 NA
HETATM    7  C   LIG     1      17.089  36.314  22.245  1.00  0.00     0.153 A 
HETATM    8  C   LIG     1      17.726  37.028  21.232  1.00  0.00     0.121 A 
HETATM    9  N   LIG     1      18.103  36.435  20.071  1.00  0.00    -0.251 NA
HETATM   10  C   LIG     1      18.723  37.146  19.092  1.00  0.00     0.175 A 
ENDROOT
BRANCH   1  11
HETATM   11  O   LIG     1      19.617  39.308  18.314  1.00  0.00    -0.338 OA
HETATM   12  C   LIG     1      19.074  39.595  17.030  1.00  0.00     0.211 C 
ENDBRANCH   1  11
TORSDOF 1
ENDMDL
MODEL 6
REMARK VINA RESULT:      -5.6      7.437      8.549
REMARK  1 active torsions:
REMARK  status: ('A' for Active; 'I' for Inactive)
REMARK    1  A    between atoms: O_2  and  C_3 
ROOT
HETATM    1  C   LIG     1      14.564  31.762  17.309  1.00  0.00     0.183 A 
HETATM    2  N   LIG     1      15.634  32.545  16.999  1.00  0.00    -0.201 NA
HETATM    3  C   LIG     1      16.141  32.583  15.741  1.00  0.00     0.183 A 
HETATM    4  N   LIG     1      17.209  33.369  15.449  1.00  0.00    -0.220 NA
HETATM    5  C   LIG     1      17.716  33.407  14.187  1.00  0.00     0.235 A 
HETATM    6  N   LIG     1      17.155  32.656  13.201  1.00  0.00    -0.252 NA
HETATM    7  C   LIG     1      16.084  31.855  13.450  1.00  0.00     0.153 A 
HETATM    8  C   LIG     1      15.551  31.803  14.736  1.00  0.00     0.121 A 
HETATM    9  N   LIG     1      14.484  31.019  15.034  1.00  0.00    -0.251 NA
HETATM   10  C   LIG     1      13.976  30.979  16.295  1.00  0.00     0.175 A 
ENDROOT
BRANCH   1  11
HETATM   11  O   LIG     1      14.089  31.767  18.629  1.00  0.00    -0.338 OA
HETATM   12  C   LIG     1      14.923  31.780  19.782  1.00  0.00     0.211 C 
ENDBRANCH   1  11
TORSDOF 1
ENDMDL
MODEL 7
REMARK VINA RESULT:      -5.5      7.567      8.707
REMARK  1 active torsions:
REMARK  status: ('A' for Active; 'I' for Inactive)
REMARK    1  A    between atoms: O_2  and  C_3 
ROOT
HETATM    1  C   LIG     1      15.168  32.814  17.884  1.00  0.00     0.183 A 
HETATM    2  N   LIG     1      15.764  32.891  16.662  1.00  0.00    -0.201 NA
HETATM    3  C   LIG     1      15.426  32.043  15.657  1.00  0.00     0.183 A 
HETATM    4  N   LIG     1      16.031  32.133  14.444  1.00  0.00    -0.220 NA
HETATM    5  C   LIG     1      15.691  31.283  13.437  1.00  0.00     0.235 A 
HETATM    6  N   LIG     1      14.739  30.332  13.636  1.00  0.00    -0.252 NA
HETATM    7  C   LIG     1      14.110  30.207  14.835  1.00  0.00     0.153 A 
HETATM    8  C   LIG     1      14.444  31.068  15.878  1.00  0.00     0.121 A 
HETATM    9  N   LIG     1      13.844  30.983  17.093  1.00  0.00    -0.251 NA
HETATM   10  C   LIG     1      14.182  31.831  18.101  1.00  0.00     0.175 A 
ENDROOT
BRANCH   1  11
HETATM   11  O   LIG     1      15.562  33.719  18.880  1.00  0.00    -0.338 OA
HETATM   12  C   LIG     1      15.523  33.442  20.277  1.00  0.00     0.211 C 
ENDBRANCH   1  11
TORSDOF 1
ENDMDL
MODEL 8
REMARK VINA RESULT:      -5.5      2.348      3.485
REMARK  1 active torsions:
REMARK  status: ('A' for Active; 'I' for Inactive)
REMARK    1  A    between atoms: O_2  and  C_3 
ROOT
HETATM    1  C   LIG     1      16.561  35.342  20.738  1.00  0.00     0.183 A 
HETATM    2  N   LIG     1      17.560  36.021  20.111  1.00  0.00    -0.201 NA
HETATM    3  C   LIG     1      18.001  37.217  20.576  1.00  0.00     0.183 A 
HETATM    4  N   LIG     1      18.998  37.882  19.938  1.00  0.00    -0.220 NA
HETATM    5  C   LIG     1      19.440  39.082  20.406  1.00  0.00     0.235 A 
HETATM    6  N   LIG     1      18.884  39.628  21.520  1.00  0.00    -0.252 NA
HETATM    7  C   LIG     1      17.883  38.997  22.189  1.00  0.00     0.153 A 
HETATM    8  C   LIG     1      17.417  37.767  21.726  1.00  0.00     0.121 A 
HETATM    9  N   LIG     1      16.420  37.098  22.359  1.00  0.00    -0.251 NA
HETATM   10  C   LIG     1      15.977  35.900  21.893  1.00  0.00     0.175 A 
ENDROOT
BRANCH   1  11
HETATM   11  O   LIG     1      16.150  34.110  20.207  1.00  0.00    -0.338 OA
HETATM   12  C   LIG     1      15.000  33.393  20.640  1.00  0.00     0.211 C 
ENDBRANCH   1  11
TORSDOF 1
ENDMDL
MODEL 9
REMARK VINA RESULT:      -5.5      8.171     10.016
REMARK  1 active torsions:
REMARK  status: ('A' for Active; 'I' for Inactive)
REMARK    1  A    between atoms: O_2  and  C_3 
ROOT
HETATM    1  C   LIG     1      17.111  32.803  13.890  1.00  0.00     0.183 A 
HETATM    2  N   LIG     1      16.203  31.800  14.043  1.00  0.00    -0.201 NA
HETATM    3  C   LIG     1      15.365  31.762  15.109  1.00  0.00     0.183 A 
HETATM    4  N   LIG     1      14.465  30.755  15.247  1.00  0.00    -0.220 NA
HETATM    5  C   LIG     1      13.624  30.719  16.316  1.00  0.00     0.235 A 
HETATM    6  N   LIG     1      13.677  31.695  17.262  1.00  0.00    -0.252 NA
HETATM    7  C   LIG     1      14.563  32.722  17.163  1.00  0.00     0.153 A 
HETATM    8  C   LIG     1      15.432  32.777  16.075  1.00  0.00     0.121 A 
HETATM    9  N   LIG     1      16.333  33.781  15.933  1.00  0.00    -0.251 NA
HETATM   10  C   LIG     1      17.175  33.819  14.865  1.00  0.00     0.175 A 
ENDROOT
BRANCH   1  11
HETATM   11  O   LIG     1      17.949  32.783  12.766  1.00  0.00    -0.338 OA
HETATM   12  C   LIG     1      19.047  33.668  12.568  1.00  0.00     0.211 C 
ENDBRANCH   1  11
TORSDOF 1
ENDMDL
MODEL 10
REMARK VINA RESULT:      -5.5      8.064      9.899
REMARK  1 active torsions:
REMARK  status: ('A' for Active; 'I' for Inactive)
REMARK    1  A    between atoms: O_2  and  C_3 
ROOT
HETATM    1  C   LIG     1      16.592  32.286  13.851  1.00  0.00     0.183 A 
HETATM    2  N   LIG     1      16.561  32.749  15.130  1.00  0.00    -0.201 NA
HETATM    3  C   LIG     1      15.646  32.294  16.024  1.00  0.00     0.183 A 
HETATM    4  N   LIG     1      15.628  32.767  17.297  1.00  0.00    -0.220 NA
HETATM    5  C   LIG     1      14.711  32.310  18.192  1.00  0.00     0.235 A 
HETATM    6  N   LIG     1      13.800  31.371  17.820  1.00  0.00    -0.252 NA
HETATM    7  C   LIG     1      13.782  30.871  16.555  1.00  0.00     0.153 A 
HETATM    8  C   LIG     1      14.714  31.327  15.624  1.00  0.00     0.121 A 
HETATM    9  N   LIG     1      14.736  30.858  14.351  1.00  0.00    -0.251 NA
HETATM   10  C   LIG     1      15.652  31.314  13.454  1.00  0.00     0.175 A 
ENDROOT
BRANCH   1  11
HETATM   11  O   LIG     1      17.562  32.797  12.976  1.00  0.00    -0.338 OA
HETATM   12  C   LIG     1      18.470  33.843  13.306  1.00  0.00     0.211 C 
ENDBRANCH   1  11
TORSDOF 1
ENDMDL
MODEL 11
REMARK VINA RESULT:      -5.4      8.748     10.323
REMARK  1 active torsions:
REMARK  status: ('A' for Active; 'I' for Inactive)
REMARK    1  A    between atoms: O_2  and  C_3 
ROOT
HETATM    1  C   LIG     1      14.718  29.885  14.464  1.00  0.00     0.183 A 
HETATM    2  N   LIG     1      15.773  30.609  13.999  1.00  0.00    -0.201 NA
HETATM    3  C   LIG     1      16.112  31.800  14.554  1.00  0.00     0.183 A 
HETATM    4  N   LIG     1      17.167  32.510  14.077  1.00  0.00    -0.220 NA
HETATM    5  C   LIG     1      17.507  33.704  14.635  1.00  0.00     0.235 A 
HETATM    6  N   LIG     1      16.790  34.200  15.679  1.00  0.00    -0.252 NA
HETATM    7  C   LIG     1      15.726  33.522  16.188  1.00  0.00     0.153 A 
HETATM    8  C   LIG     1      15.363  32.297  15.630  1.00  0.00     0.121 A 
HETATM    9  N   LIG     1      14.310  31.584  16.102  1.00  0.00    -0.251 NA
HETATM   10  C   LIG     1      13.969  30.390  15.546  1.00  0.00     0.175 A 
ENDROOT
BRANCH   1  11
HETATM   11  O   LIG     1      14.419  28.662  13.847  1.00  0.00    -0.338 OA
HETATM   12  C   LIG     1      15.369  27.627  13.614  1.00  0.00     0.211 C 
ENDBRANCH   1  11
TORSDOF 1
ENDMDL
MODEL 12
REMARK VINA RESULT:      -5.2      9.062     10.663
REMARK  1 active torsions:
REMARK  status: ('A' for Active; 'I' for Inactive)
REMARK    1  A    between atoms: O_2  and  C_3 
ROOT
HETATM    1  C   LIG     1      14.111  29.680  14.388  1.00  0.00     0.183 A 
HETATM    2  N   LIG     1      13.821  30.552  15.392  1.00  0.00    -0.201 NA
HETATM    3  C   LIG     1      14.606  31.631  15.639  1.00  0.00     0.183 A 
HETATM    4  N   LIG     1      14.303  32.491  16.646  1.00  0.00    -0.220 NA
HETATM    5  C   LIG     1      15.090  33.573  16.892  1.00  0.00     0.235 A 
HETATM    6  N   LIG     1      16.193  33.805  16.130  1.00  0.00    -0.252 NA
HETATM    7  C   LIG     1      16.533  32.970  15.112  1.00  0.00     0.153 A 
HETATM    8  C   LIG     1      15.739  31.856  14.845  1.00  0.00     0.121 A 
HETATM    9  N   LIG     1      16.037  30.993  13.840  1.00  0.00    -0.251 NA
HETATM   10  C   LIG     1      15.251  29.911  13.592  1.00  0.00     0.175 A 
ENDROOT
BRANCH   1  11
HETATM   11  O   LIG     1      13.260  28.584  14.184  1.00  0.00    -0.338 OA
HETATM   12  C   LIG     1      13.660  27.359  13.580  1.00  0.00     0.211 C 
ENDBRANCH   1  11
TORSDOF 1
ENDMDL
MODEL 13
REMARK VINA RESULT:      -5.1      3.100      4.737
REMARK  1 active torsions:
REMARK  status: ('A' for Active; 'I' for Inactive)
REMARK    1  A    between atoms: O_2  and  C_3 
ROOT
HETATM    1  C   LIG     1      16.296  35.967  21.764  1.00  0.00     0.183 A 
HETATM    2  N   LIG     1      16.336  37.156  22.426  1.00  0.00    -0.201 NA
HETATM    3  C   LIG     1      16.800  37.242  23.698  1.00  0.00     0.183 A 
HETATM    4  N   LIG     1      16.832  38.436  24.344  1.00  0.00    -0.220 NA
HETATM    5  C   LIG     1      17.298  38.521  25.620  1.00  0.00     0.235 A 
HETATM    6  N   LIG     1      17.738  37.406  26.263  1.00  0.00    -0.252 NA
HETATM    7  C   LIG     1      17.723  36.190  25.654  1.00  0.00     0.153 A 
HETATM    8  C   LIG     1      17.249  36.084  24.347  1.00  0.00     0.121 A 
HETATM    9  N   LIG     1      17.215  34.893  23.697  1.00  0.00    -0.251 NA
HETATM   10  C   LIG     1      16.749  34.806  22.422  1.00  0.00     0.175 A 
ENDROOT
BRANCH   1  11
HETATM   11  O   LIG     1      15.805  35.946  20.451  1.00  0.00    -0.338 OA
HETATM   12  C   LIG     1      15.611  34.761  19.686  1.00  0.00     0.211 C 
ENDBRANCH   1  11
TORSDOF 1
ENDMDL
MODEL 14
REMARK VINA RESULT:      -5.1      1.931      3.102
REMARK  1 active torsions:
REMARK  status: ('A' for Active; 'I' for Inactive)
REMARK    1  A    between atoms: O_2  and  C_3 
ROOT
HETATM    1  C   LIG     1      17.474  37.537  24.153  1.00  0.00     0.183 A 
HETATM    2  N   LIG     1      16.903  36.354  23.797  1.00  0.00    -0.201 NA
HETATM    3  C   LIG     1      16.787  35.988  22.496  1.00  0.00     0.183 A 
HETATM    4  N   LIG     1      16.214  34.804  22.158  1.00  0.00    -0.220 NA
HETATM    5  C   LIG     1      16.099  34.438  20.852  1.00  0.00     0.235 A 
HETATM    6  N   LIG     1      16.558  35.258  19.869  1.00  0.00    -0.252 NA
HETATM    7  C   LIG     1      17.138  36.452  20.162  1.00  0.00     0.153 A 
HETATM    8  C   LIG     1      17.265  36.844  21.494  1.00  0.00     0.121 A 
HETATM    9  N   LIG     1      17.837  38.027  21.837  1.00  0.00    -0.251 NA
HETATM   10  C   LIG     1      17.953  38.394  23.141  1.00  0.00     0.175 A 
ENDROOT
BRANCH   1  11
HETATM   11  O   LIG     1      17.563  37.857  25.516  1.00  0.00    -0.338 OA
HETATM   12  C   LIG     1      18.067  36.976  26.515  1.00  0.00     0.211 C 
ENDBRANCH   1  11
TORSDOF 1
ENDMDL
MODEL 15
REMARK VINA RESULT:      -4.9      8.131      9.577
REMARK  1 active torsions:
REMARK  status: ('A' for Active; 'I' for Inactive)
REMARK    1  A    between atoms: O_2  and  C_3 
ROOT
HETATM    1  C   LIG     1      14.761  30.922  14.916  1.00  0.00     0.183 A 
HETATM    2  N   LIG     1      15.197  32.056  15.529  1.00  0.00    -0.201 NA
HETATM    3  C   LIG     1      16.129  32.857  14.953  1.00  0.00     0.183 A 
HETATM    4  N   LIG     1      16.554  33.985  15.578  1.00  0.00    -0.220 NA
HETATM    5  C   LIG     1      17.488  34.788  14.999  1.00  0.00     0.235 A 
HETATM    6  N   LIG     1      18.009  34.465  13.784  1.00  0.00    -0.252 NA
HETATM    7  C   LIG     1      17.613  33.345  13.124  1.00  0.00     0.153 A 
HETATM    8  C   LIG     1      16.656  32.511  13.700  1.00  0.00     0.121 A 
HETATM    9  N   LIG     1      16.229  31.381  13.080  1.00  0.00    -0.251 NA
HETATM   10  C   LIG     1      15.295  30.578  13.657  1.00  0.00     0.175 A 
ENDROOT
BRANCH   1  11
HETATM   11  O   LIG     1      13.796  30.137  15.564  1.00  0.00    -0.338 OA
HETATM   12  C   LIG     1      12.809  30.651  16.452  1.00  0.00     0.211 C 
ENDBRANCH   1  11
TORSDOF 1
ENDMDL
MODEL 16
REMARK VINA RESULT:      -4.4      8.307      9.912
REMARK  1 active torsions:
REMARK  status: ('A' for Active; 'I' for Inactive)
REMARK    1  A    between atoms: O_2  and  C_3 
ROOT
HETATM    1  C   LIG     1      15.709  33.397  15.931  1.00  0.00     0.183 A 
HETATM    2  N   LIG     1      16.052  32.526  14.943  1.00  0.00    -0.201 NA
HETATM    3  C   LIG     1      15.362  31.374  14.746  1.00  0.00     0.183 A 
HETATM    4  N   LIG     1      15.718  30.516  13.756  1.00  0.00    -0.220 NA
HETATM    5  C   LIG     1      15.025  29.361  13.559  1.00  0.00     0.235 A 
HETATM    6  N   LIG     1      13.965  29.055  14.355  1.00  0.00    -0.252 NA
HETATM    7  C   LIG     1      13.575  29.886  15.358  1.00  0.00     0.153 A 
HETATM    8  C   LIG     1      14.272  31.073  15.575  1.00  0.00     0.121 A 
HETATM    9  N   LIG     1      13.922  31.935  16.563  1.00  0.00    -0.251 NA
HETATM   10  C   LIG     1      14.613  33.089  16.762  1.00  0.00     0.175 A 
ENDROOT
BRANCH   1  11
HETATM   11  O   LIG     1      16.463  34.570  16.083  1.00  0.00    -0.338 OA
HETATM   12  C   LIG     1      17.366  35.076  15.106  1.00  0.00     0.211 C 
ENDBRANCH   1  11
TORSDOF 1
ENDMDL
MODEL 17
REMARK VINA RESULT:      -4.4      2.483      5.069
REMARK  1 active torsions:
REMARK  status: ('A' for Active; 'I' for Inactive)
REMARK    1  A    between atoms: O_2  and  C_3 
ROOT
HETATM    1  C   LIG     1      17.681  38.010  22.124  1.00  0.00     0.183 A 
HETATM    2  N   LIG     1      17.434  36.730  22.514  1.00  0.00    -0.201 NA
HETATM    3  C   LIG     1      17.460  36.372  23.823  1.00  0.00     0.183 A 
HETATM    4  N   LIG     1      17.212  35.090  24.195  1.00  0.00    -0.220 NA
HETATM    5  C   LIG     1      17.239  34.733  25.508  1.00  0.00     0.235 A 
HETATM    6  N   LIG     1      17.515  35.660  26.464  1.00  0.00    -0.252 NA
HETATM    7  C   LIG     1      17.770  36.955  26.136  1.00  0.00     0.153 A 
HETATM    8  C   LIG     1      17.747  37.340  24.796  1.00  0.00     0.121 A 
HETATM    9  N   LIG     1      17.995  38.620  24.419  1.00  0.00    -0.251 NA
HETATM   10  C   LIG     1      17.969  38.979  23.107  1.00  0.00     0.175 A 
ENDROOT
BRANCH   1  11
HETATM   11  O   LIG     1      17.638  38.315  20.756  1.00  0.00    -0.338 OA
HETATM   12  C   LIG     1      18.663  39.015  20.058  1.00  0.00     0.211 C 
ENDBRANCH   1  11
TORSDOF 1
ENDMDL
MODEL 18
REMARK VINA RESULT:      -4.2      5.847      7.631
REMARK  1 active torsions:
REMARK  status: ('A' for Active; 'I' for Inactive)
REMARK    1  A    between atoms: O_2  and  C_3 
ROOT
HETATM    1  C   LIG     1      15.295  32.948  16.402  1.00  0.00     0.183 A 
HETATM    2  N   LIG     1      15.707  34.028  17.119  1.00  0.00    -0.201 NA
HETATM    3  C   LIG     1      15.592  34.065  18.471  1.00  0.00     0.183 A 
HETATM    4  N   LIG     1      16.007  35.151  19.172  1.00  0.00    -0.220 NA
HETATM    5  C   LIG     1      15.892  35.186  20.528  1.00  0.00     0.235 A 
HETATM    6  N   LIG     1      15.356  34.129  21.196  1.00  0.00    -0.252 NA
HETATM    7  C   LIG     1      14.927  33.021  20.534  1.00  0.00     0.153 A 
HETATM    8  C   LIG     1      15.038  32.967  19.145  1.00  0.00     0.121 A 
HETATM    9  N   LIG     1      14.624  31.884  18.439  1.00  0.00    -0.251 NA
HETATM   10  C   LIG     1      14.738  31.847  17.085  1.00  0.00     0.175 A 
ENDROOT
BRANCH   1  11
HETATM   11  O   LIG     1      15.441  32.973  15.007  1.00  0.00    -0.338 OA
HETATM   12  C   LIG     1      16.018  31.920  14.242  1.00  0.00     0.211 C 
ENDBRANCH   1  11
TORSDOF 1
ENDMDL
MODEL 19
REMARK VINA RESULT:      -4.1      9.904     11.585
REMARK  1 active torsions:
REMARK  status: ('A' for Active; 'I' for Inactive)
REMARK    1  A    between atoms: O_2  and  C_3 
ROOT
HETATM    1  C   LIG     1      16.172  31.393  15.031  1.00  0.00     0.183 A 
HETATM    2  N   LIG     1      16.260  30.187  14.406  1.00  0.00    -0.201 NA
HETATM    3  C   LIG     1      15.166  29.407  14.218  1.00  0.00     0.183 A 
HETATM    4  N   LIG     1      15.271  28.206  13.593  1.00  0.00    -0.220 NA
HETATM    5  C   LIG     1      14.172  27.425  13.404  1.00  0.00     0.235 A 
HETATM    6  N   LIG     1      12.953  27.841  13.842  1.00  0.00    -0.252 NA
HETATM    7  C   LIG     1      12.803  29.036  14.473  1.00  0.00     0.153 A 
HETATM    8  C   LIG     1      13.917  29.850  14.675  1.00  0.00     0.121 A 
HETATM    9  N   LIG     1      13.818  31.051  15.299  1.00  0.00    -0.251 NA
HETATM   10  C   LIG     1      14.914  31.833  15.489  1.00  0.00     0.175 A 
ENDROOT
BRANCH   1  11
HETATM   11  O   LIG     1      17.341  32.151  15.194  1.00  0.00    -0.338 OA
HETATM   12  C   LIG     1      17.591  33.390  14.540  1.00  0.00     0.211 C 
ENDBRANCH   1  11
TORSDOF 1
ENDMDL
MODEL 20
REMARK VINA RESULT:      -3.8      2.484      3.873
REMARK  1 active torsions:
REMARK  status: ('A' for Active; 'I' for Inactive)
REMARK    1  A    between atoms: O_2  and  C_3 
ROOT
HETATM    1  C   LIG     1      17.318  37.000  22.221  1.00  0.00     0.183 A 
HETATM    2  N   LIG     1      17.144  36.813  20.884  1.00  0.00    -0.201 NA
HETATM    3  C   LIG     1      16.521  35.710  20.399  1.00  0.00     0.183 A 
HETATM    4  N   LIG     1      16.357  35.538  19.062  1.00  0.00    -0.220 NA
HETATM    5  C   LIG     1      15.731  34.431  18.578  1.00  0.00     0.235 A 
HETATM    6  N   LIG     1      15.263  33.481  19.431  1.00  0.00    -0.252 NA
HETATM    7  C   LIG     1      15.406  33.612  20.777  1.00  0.00     0.153 A 
HETATM    8  C   LIG     1      16.044  34.740  21.292  1.00  0.00     0.121 A 
HETATM    9  N   LIG     1      16.211  34.916  22.628  1.00  0.00    -0.251 NA
HETATM   10  C   LIG     1      16.836  36.021  23.114  1.00  0.00     0.175 A 
ENDROOT
BRANCH   1  11
HETATM   11  O   LIG     1      17.970  38.162  22.658  1.00  0.00    -0.338 OA
HETATM   12  C   LIG     1      18.321  39.252  21.811  1.00  0.00     0.211 C 
ENDBRANCH   1  11
TORSDOF 1
ENDMDL
