MODEL 1
REMARK VINA RESULT:      -7.7      0.000      0.000
REMARK  2 active torsions:
REMARK  status: ('A' for Active; 'I' for Inactive)
REMARK    1  A    between atoms: C_2  and  C_10 
REMARK    2  A    between atoms: C_2  and  C_4 
ROOT
HETATM    1  C   LIG     1      17.366  36.807  24.122  1.00  0.00    -0.050 A 
HETATM    2  C   LIG     1      17.142  35.427  24.337  1.00  0.00     0.008 A 
HETATM    3  C   LIG     1      17.545  34.805  25.522  1.00  0.00     0.001 A 
HETATM    4  C   LIG     1      18.185  35.541  26.516  1.00  0.00     0.000 A 
HETATM    5  C   LIG     1      18.429  36.899  26.328  1.00  0.00     0.001 A 
HETATM    6  C   LIG     1      18.029  37.530  25.145  1.00  0.00     0.008 A 
ENDROOT
BRANCH   1   7
HETATM    7  C   LIG     1      16.913  37.457  22.793  1.00  0.00    -0.021 C 
HETATM    8  C   LIG     1      17.194  36.469  21.634  1.00  0.00     0.020 C 
HETATM    9  C   LIG     1      15.393  37.766  22.782  1.00  0.00     0.020 C 
BRANCH   7  10
HETATM   10  C   LIG     1      17.721  38.780  22.606  1.00  0.00     0.009 C 
HETATM   11  C   LIG     1      18.428  38.938  21.256  1.00  0.00     0.006 C 
ENDBRANCH   7  10
ENDBRANCH   1   7
TORSDOF 2
ENDMDL
MODEL 2
REMARK VINA RESULT:      -7.6      0.474      2.151
REMARK  2 active torsions:
REMARK  status: ('A' for Active; 'I' for Inactive)
REMARK    1  A    between atoms: C_2  and  C_10 
REMARK    2  A    between atoms: C_2  and  C_4 
ROOT
HETATM    1  C   LIG     1      17.359  36.684  24.050  1.00  0.00    -0.050 A 
HETATM    2  C   LIG     1      17.956  37.514  25.028  1.00  0.00     0.008 A 
HETATM    3  C   LIG     1      18.359  37.000  26.264  1.00  0.00     0.001 A 
HETATM    4  C   LIG     1      18.171  35.652  26.556  1.00  0.00     0.000 A 
HETATM    5  C   LIG     1      17.576  34.812  25.617  1.00  0.00     0.001 A 
HETATM    6  C   LIG     1      17.169  35.318  24.377  1.00  0.00     0.008 A 
ENDROOT
BRANCH   1   7
HETATM    7  C   LIG     1      16.919  37.292  22.697  1.00  0.00    -0.021 C 
HETATM    8  C   LIG     1      15.449  37.766  22.818  1.00  0.00     0.020 C 
HETATM    9  C   LIG     1      17.774  38.526  22.306  1.00  0.00     0.020 C 
BRANCH   7  10
HETATM   10  C   LIG     1      17.060  36.185  21.605  1.00  0.00     0.009 C 
HETATM   11  C   LIG     1      18.004  36.517  20.444  1.00  0.00     0.006 C 
ENDBRANCH   7  10
ENDBRANCH   1   7
TORSDOF 2
ENDMDL
MODEL 3
REMARK VINA RESULT:      -7.3      1.375      4.791
REMARK  2 active torsions:
REMARK  status: ('A' for Active; 'I' for Inactive)
REMARK    1  A    between atoms: C_2  and  C_10 
REMARK    2  A    between atoms: C_2  and  C_4 
ROOT
HETATM    1  C   LIG     1      17.784  37.588  21.563  1.00  0.00    -0.050 A 
HETATM    2  C   LIG     1      18.319  38.894  21.473  1.00  0.00     0.008 A 
HETATM    3  C   LIG     1      19.107  39.280  20.385  1.00  0.00     0.001 A 
HETATM    4  C   LIG     1      19.385  38.372  19.365  1.00  0.00     0.000 A 
HETATM    5  C   LIG     1      18.881  37.075  19.433  1.00  0.00     0.001 A 
HETATM    6  C   LIG     1      18.092  36.680  20.518  1.00  0.00     0.008 A 
ENDROOT
BRANCH   1   7
HETATM    7  C   LIG     1      16.924  37.197  22.788  1.00  0.00    -0.021 C 
HETATM    8  C   LIG     1      17.541  37.839  24.056  1.00  0.00     0.020 C 
HETATM    9  C   LIG     1      15.467  37.714  22.668  1.00  0.00     0.020 C 
BRANCH   7  10
HETATM   10  C   LIG     1      16.923  35.639  22.896  1.00  0.00     0.009 C 
HETATM   11  C   LIG     1      17.218  35.072  24.290  1.00  0.00     0.006 C 
ENDBRANCH   7  10
ENDBRANCH   1   7
TORSDOF 2
ENDMDL
MODEL 4
REMARK VINA RESULT:      -7.2      1.363      4.712
REMARK  2 active torsions:
REMARK  status: ('A' for Active; 'I' for Inactive)
REMARK    1  A    between atoms: C_2  and  C_10 
REMARK    2  A    between atoms: C_2  and  C_4 
ROOT
HETATM    1  C   LIG     1      17.821  37.689  21.611  1.00  0.00    -0.050 A 
HETATM    2  C   LIG     1      18.360  38.986  21.442  1.00  0.00     0.008 A 
HETATM    3  C   LIG     1      19.104  39.317  20.307  1.00  0.00     0.001 A 
HETATM    4  C   LIG     1      19.333  38.364  19.318  1.00  0.00     0.000 A 
HETATM    5  C   LIG     1      18.824  37.075  19.462  1.00  0.00     0.001 A 
HETATM    6  C   LIG     1      18.078  36.734  20.596  1.00  0.00     0.008 A 
ENDROOT
BRANCH   1   7
HETATM    7  C   LIG     1      17.010  37.359  22.887  1.00  0.00    -0.021 C 
HETATM    8  C   LIG     1      15.543  37.808  22.676  1.00  0.00     0.020 C 
HETATM    9  C   LIG     1      16.991  35.838  23.190  1.00  0.00     0.020 C 
BRANCH   7  10
HETATM   10  C   LIG     1      17.661  38.126  24.082  1.00  0.00     0.009 C 
HETATM   11  C   LIG     1      17.802  37.328  25.382  1.00  0.00     0.006 C 
ENDBRANCH   7  10
ENDBRANCH   1   7
TORSDOF 2
ENDMDL
MODEL 5
REMARK VINA RESULT:      -7.1      2.182      4.766
REMARK  2 active torsions:
REMARK  status: ('A' for Active; 'I' for Inactive)
REMARK    1  A    between atoms: C_2  and  C_10 
REMARK    2  A    between atoms: C_2  and  C_4 
ROOT
HETATM    1  C   LIG     1      17.514  37.232  21.256  1.00  0.00    -0.050 A 
HETATM    2  C   LIG     1      17.915  38.553  21.565  1.00  0.00     0.008 A 
HETATM    3  C   LIG     1      18.929  39.189  20.842  1.00  0.00     0.001 A 
HETATM    4  C   LIG     1      19.569  38.522  19.801  1.00  0.00     0.000 A 
HETATM    5  C   LIG     1      19.203  37.216  19.481  1.00  0.00     0.001 A 
HETATM    6  C   LIG     1      18.190  36.572  20.199  1.00  0.00     0.008 A 
ENDROOT
BRANCH   1   7
HETATM    7  C   LIG     1      16.394  36.560  22.085  1.00  0.00    -0.021 C 
HETATM    8  C   LIG     1      17.038  35.546  23.064  1.00  0.00     0.020 C 
HETATM    9  C   LIG     1      15.601  37.586  22.936  1.00  0.00     0.020 C 
BRANCH   7  10
HETATM   10  C   LIG     1      15.428  35.839  21.092  1.00  0.00     0.009 C 
HETATM   11  C   LIG     1      15.379  34.312  21.208  1.00  0.00     0.006 C 
ENDBRANCH   7  10
ENDBRANCH   1   7
TORSDOF 2
ENDMDL
MODEL 6
REMARK VINA RESULT:      -6.2      1.710      4.367
REMARK  2 active torsions:
REMARK  status: ('A' for Active; 'I' for Inactive)
REMARK    1  A    between atoms: C_2  and  C_10 
REMARK    2  A    between atoms: C_2  and  C_4 
ROOT
HETATM    1  C   LIG     1      17.880  37.422  21.548  1.00  0.00    -0.050 A 
HETATM    2  C   LIG     1      18.091  36.622  20.401  1.00  0.00     0.008 A 
HETATM    3  C   LIG     1      18.898  37.064  19.349  1.00  0.00     0.001 A 
HETATM    4  C   LIG     1      19.507  38.315  19.413  1.00  0.00     0.000 A 
HETATM    5  C   LIG     1      19.309  39.130  20.526  1.00  0.00     0.001 A 
HETATM    6  C   LIG     1      18.502  38.695  21.583  1.00  0.00     0.008 A 
ENDROOT
BRANCH   1   7
HETATM    7  C   LIG     1      16.972  36.900  22.687  1.00  0.00    -0.021 C 
HETATM    8  C   LIG     1      16.939  35.352  22.629  1.00  0.00     0.020 C 
HETATM    9  C   LIG     1      17.504  37.301  24.088  1.00  0.00     0.020 C 
BRANCH   7  10
HETATM   10  C   LIG     1      15.544  37.495  22.475  1.00  0.00     0.009 C 
HETATM   11  C   LIG     1      15.443  39.022  22.570  1.00  0.00     0.006 C 
ENDBRANCH   7  10
ENDBRANCH   1   7
TORSDOF 2
ENDMDL
MODEL 7
REMARK VINA RESULT:      -5.9      2.368      4.006
REMARK  2 active torsions:
REMARK  status: ('A' for Active; 'I' for Inactive)
REMARK    1  A    between atoms: C_2  and  C_10 
REMARK    2  A    between atoms: C_2  and  C_4 
ROOT
HETATM    1  C   LIG     1      18.167  38.140  20.990  1.00  0.00    -0.050 A 
HETATM    2  C   LIG     1      17.444  36.961  21.288  1.00  0.00     0.008 A 
HETATM    3  C   LIG     1      16.705  36.846  22.468  1.00  0.00     0.001 A 
HETATM    4  C   LIG     1      16.674  37.897  23.381  1.00  0.00     0.000 A 
HETATM    5  C   LIG     1      17.386  39.066  23.119  1.00  0.00     0.001 A 
HETATM    6  C   LIG     1      18.129  39.191  21.941  1.00  0.00     0.008 A 
ENDROOT
BRANCH   1   7
HETATM    7  C   LIG     1      18.981  38.226  19.677  1.00  0.00    -0.021 C 
HETATM    8  C   LIG     1      20.460  38.528  20.026  1.00  0.00     0.020 C 
HETATM    9  C   LIG     1      18.954  36.892  18.885  1.00  0.00     0.020 C 
BRANCH   7  10
HETATM   10  C   LIG     1      18.369  39.369  18.807  1.00  0.00     0.009 C 
HETATM   11  C   LIG     1      18.794  39.379  17.334  1.00  0.00     0.006 C 
ENDBRANCH   7  10
ENDBRANCH   1   7
TORSDOF 2
ENDMDL
MODEL 8
REMARK VINA RESULT:      -5.9      1.781      3.808
REMARK  2 active torsions:
REMARK  status: ('A' for Active; 'I' for Inactive)
REMARK    1  A    between atoms: C_2  and  C_10 
REMARK    2  A    between atoms: C_2  and  C_4 
ROOT
HETATM    1  C   LIG     1      16.722  36.970  22.081  1.00  0.00    -0.050 A 
HETATM    2  C   LIG     1      15.311  36.920  21.993  1.00  0.00     0.008 A 
HETATM    3  C   LIG     1      14.655  35.775  21.533  1.00  0.00     0.001 A 
HETATM    4  C   LIG     1      15.389  34.657  21.144  1.00  0.00     0.000 A 
HETATM    5  C   LIG     1      16.781  34.681  21.210  1.00  0.00     0.001 A 
HETATM    6  C   LIG     1      17.445  35.823  21.669  1.00  0.00     0.008 A 
ENDROOT
BRANCH   1   7
HETATM    7  C   LIG     1      17.411  38.260  22.588  1.00  0.00    -0.021 C 
HETATM    8  C   LIG     1      18.450  38.717  21.534  1.00  0.00     0.020 C 
HETATM    9  C   LIG     1      16.403  39.423  22.782  1.00  0.00     0.020 C 
BRANCH   7  10
HETATM   10  C   LIG     1      18.104  37.931  23.948  1.00  0.00     0.009 C 
HETATM   11  C   LIG     1      17.182  37.910  25.173  1.00  0.00     0.006 C 
ENDBRANCH   7  10
ENDBRANCH   1   7
TORSDOF 2
ENDMDL
MODEL 9
REMARK VINA RESULT:      -5.5      8.300     10.689
REMARK  2 active torsions:
REMARK  status: ('A' for Active; 'I' for Inactive)
REMARK    1  A    between atoms: C_2  and  C_10 
REMARK    2  A    between atoms: C_2  and  C_4 
ROOT
HETATM    1  C   LIG     1      14.513  31.487  15.698  1.00  0.00    -0.050 A 
HETATM    2  C   LIG     1      13.836  30.301  15.329  1.00  0.00     0.008 A 
HETATM    3  C   LIG     1      14.264  29.533  14.243  1.00  0.00     0.001 A 
HETATM    4  C   LIG     1      15.370  29.932  13.496  1.00  0.00     0.000 A 
HETATM    5  C   LIG     1      16.049  31.102  13.830  1.00  0.00     0.001 A 
HETATM    6  C   LIG     1      15.628  31.877  14.915  1.00  0.00     0.008 A 
ENDROOT
BRANCH   1   7
HETATM    7  C   LIG     1      14.003  32.315  16.902  1.00  0.00    -0.021 C 
HETATM    8  C   LIG     1      14.680  33.708  16.873  1.00  0.00     0.020 C 
HETATM    9  C   LIG     1      12.469  32.543  16.847  1.00  0.00     0.020 C 
BRANCH   7  10
HETATM   10  C   LIG     1      14.374  31.542  18.207  1.00  0.00     0.009 C 
HETATM   11  C   LIG     1      15.284  32.293  19.186  1.00  0.00     0.006 C 
ENDBRANCH   7  10
ENDBRANCH   1   7
TORSDOF 2
ENDMDL
MODEL 10
REMARK VINA RESULT:      -5.1      3.349      5.762
REMARK  2 active torsions:
REMARK  status: ('A' for Active; 'I' for Inactive)
REMARK    1  A    between atoms: C_2  and  C_10 
REMARK    2  A    between atoms: C_2  and  C_4 
ROOT
HETATM    1  C   LIG     1      15.925  34.562  20.165  1.00  0.00    -0.050 A 
HETATM    2  C   LIG     1      15.710  33.211  20.523  1.00  0.00     0.008 A 
HETATM    3  C   LIG     1      15.260  32.277  19.585  1.00  0.00     0.001 A 
HETATM    4  C   LIG     1      15.009  32.670  18.272  1.00  0.00     0.000 A 
HETATM    5  C   LIG     1      15.202  33.997  17.894  1.00  0.00     0.001 A 
HETATM    6  C   LIG     1      15.652  34.938  18.826  1.00  0.00     0.008 A 
ENDROOT
BRANCH   1   7
HETATM    7  C   LIG     1      16.415  35.567  21.235  1.00  0.00    -0.021 C 
HETATM    8  C   LIG     1      17.015  34.777  22.425  1.00  0.00     0.020 C 
HETATM    9  C   LIG     1      17.527  36.503  20.692  1.00  0.00     0.020 C 
BRANCH   7  10
HETATM   10  C   LIG     1      15.188  36.417  21.693  1.00  0.00     0.009 C 
HETATM   11  C   LIG     1      15.501  37.567  22.657  1.00  0.00     0.006 C 
ENDBRANCH   7  10
ENDBRANCH   1   7
TORSDOF 2
ENDMDL
MODEL 11
REMARK VINA RESULT:      -5.1      8.286     10.706
REMARK  2 active torsions:
REMARK  status: ('A' for Active; 'I' for Inactive)
REMARK    1  A    between atoms: C_2  and  C_10 
REMARK    2  A    between atoms: C_2  and  C_4 
ROOT
HETATM    1  C   LIG     1      14.473  31.428  15.702  1.00  0.00    -0.050 A 
HETATM    2  C   LIG     1      15.611  31.826  14.963  1.00  0.00     0.008 A 
HETATM    3  C   LIG     1      16.060  31.081  13.869  1.00  0.00     0.001 A 
HETATM    4  C   LIG     1      15.389  29.920  13.491  1.00  0.00     0.000 A 
HETATM    5  C   LIG     1      14.272  29.497  14.207  1.00  0.00     0.001 A 
HETATM    6  C   LIG     1      13.816  30.237  15.304  1.00  0.00     0.008 A 
ENDROOT
BRANCH   1   7
HETATM    7  C   LIG     1      14.013  32.275  16.912  1.00  0.00    -0.021 C 
HETATM    8  C   LIG     1      12.467  32.379  16.890  1.00  0.00     0.020 C 
HETATM    9  C   LIG     1      14.415  31.630  18.264  1.00  0.00     0.020 C 
BRANCH   7  10
HETATM   10  C   LIG     1      14.668  33.687  16.787  1.00  0.00     0.009 C 
HETATM   11  C   LIG     1      15.331  34.225  18.060  1.00  0.00     0.006 C 
ENDBRANCH   7  10
ENDBRANCH   1   7
TORSDOF 2
ENDMDL
MODEL 12
REMARK VINA RESULT:      -5.0      8.096     10.482
REMARK  2 active torsions:
REMARK  status: ('A' for Active; 'I' for Inactive)
REMARK    1  A    between atoms: C_2  and  C_10 
REMARK    2  A    between atoms: C_2  and  C_4 
ROOT
HETATM    1  C   LIG     1      14.578  31.525  15.910  1.00  0.00    -0.050 A 
HETATM    2  C   LIG     1      15.238  30.937  14.806  1.00  0.00     0.008 A 
HETATM    3  C   LIG     1      14.625  29.938  14.045  1.00  0.00     0.001 A 
HETATM    4  C   LIG     1      13.344  29.497  14.370  1.00  0.00     0.000 A 
HETATM    5  C   LIG     1      12.674  30.051  15.459  1.00  0.00     0.001 A 
HETATM    6  C   LIG     1      13.280  31.051  16.226  1.00  0.00     0.008 A 
ENDROOT
BRANCH   1   7
HETATM    7  C   LIG     1      15.294  32.622  16.733  1.00  0.00    -0.021 C 
HETATM    8  C   LIG     1      16.591  33.034  15.992  1.00  0.00     0.020 C 
HETATM    9  C   LIG     1      14.423  33.897  16.889  1.00  0.00     0.020 C 
BRANCH   7  10
HETATM   10  C   LIG     1      15.620  32.031  18.141  1.00  0.00     0.009 C 
HETATM   11  C   LIG     1      15.262  32.925  19.333  1.00  0.00     0.006 C 
ENDBRANCH   7  10
ENDBRANCH   1   7
TORSDOF 2
ENDMDL
MODEL 13
REMARK VINA RESULT:      -4.9      2.246      3.614
REMARK  2 active torsions:
REMARK  status: ('A' for Active; 'I' for Inactive)
REMARK    1  A    between atoms: C_2  and  C_10 
REMARK    2  A    between atoms: C_2  and  C_4 
ROOT
HETATM    1  C   LIG     1      17.971  38.054  21.225  1.00  0.00    -0.050 A 
HETATM    2  C   LIG     1      17.312  36.820  21.433  1.00  0.00     0.008 A 
HETATM    3  C   LIG     1      16.569  36.583  22.592  1.00  0.00     0.001 A 
HETATM    4  C   LIG     1      16.470  37.568  23.573  1.00  0.00     0.000 A 
HETATM    5  C   LIG     1      17.117  38.789  23.400  1.00  0.00     0.001 A 
HETATM    6  C   LIG     1      17.864  39.034  22.243  1.00  0.00     0.008 A 
ENDROOT
BRANCH   1   7
HETATM    7  C   LIG     1      18.792  38.274  19.931  1.00  0.00    -0.021 C 
HETATM    8  C   LIG     1      18.798  36.957  19.115  1.00  0.00     0.020 C 
HETATM    9  C   LIG     1      18.177  39.376  19.029  1.00  0.00     0.020 C 
BRANCH   7  10
HETATM   10  C   LIG     1      20.241  38.680  20.346  1.00  0.00     0.009 C 
HETATM   11  C   LIG     1      21.348  38.270  19.368  1.00  0.00     0.006 C 
ENDBRANCH   7  10
ENDBRANCH   1   7
TORSDOF 2
ENDMDL
