MODEL 1
REMARK VINA RESULT:      -7.8      0.000      0.000
REMARK  0 active torsions:
REMARK  status: ('A' for Active; 'I' for Inactive)
ROOT
HETATM    1  C   LIG     1      17.277  36.421  22.185  1.00  0.00    -0.003 A 
HETATM    2  C   LIG     1      16.784  35.176  22.467  1.00  0.00    -0.012 A 
HETATM    3  C   LIG     1      16.273  34.635  21.206  1.00  0.00    -0.014 A 
HETATM    4  C   LIG     1      15.669  33.414  20.914  1.00  0.00     0.013 A 
HETATM    5  C   LIG     1      15.277  33.173  19.585  1.00  0.00     0.001 A 
HETATM    6  C   LIG     1      15.494  34.146  18.585  1.00  0.00     0.001 A 
HETATM    7  C   LIG     1      16.106  35.373  18.900  1.00  0.00     0.013 A 
HETATM    8  C   LIG     1      16.487  35.592  20.222  1.00  0.00    -0.014 A 
HETATM    9  C   LIG     1      17.133  36.739  20.858  1.00  0.00    -0.013 A 
HETATM   10  C   LIG     1      17.574  37.967  20.371  1.00  0.00     0.013 A 
HETATM   11  C   LIG     1      18.167  38.862  21.284  1.00  0.00     0.002 A 
HETATM   12  C   LIG     1      18.310  38.521  22.653  1.00  0.00     0.013 A 
HETATM   13  C   LIG     1      17.854  37.264  23.128  1.00  0.00    -0.013 A 
HETATM   14  C   LIG     1      17.927  36.781  24.469  1.00  0.00    -0.015 A 
HETATM   15  C   LIG     1      18.490  37.541  25.516  1.00  0.00     0.013 A 
HETATM   16  C   LIG     1      18.542  37.031  26.815  1.00  0.00     0.001 A 
HETATM   17  C   LIG     1      18.038  35.761  27.098  1.00  0.00     0.001 A 
HETATM   18  C   LIG     1      17.476  34.984  26.085  1.00  0.00     0.012 A 
HETATM   19  C   LIG     1      17.410  35.471  24.772  1.00  0.00    -0.024 A 
HETATM   20  C   LIG     1      16.836  34.666  23.758  1.00  0.00     0.025 A 
ENDROOT
TORSDOF 0
ENDMDL
MODEL 2
REMARK VINA RESULT:      -7.7      0.414      5.407
REMARK  0 active torsions:
REMARK  status: ('A' for Active; 'I' for Inactive)
ROOT
HETATM    1  C   LIG     1      17.320  36.496  22.396  1.00  0.00    -0.003 A 
HETATM    2  C   LIG     1      16.971  35.386  23.116  1.00  0.00    -0.012 A 
HETATM    3  C   LIG     1      17.373  35.644  24.500  1.00  0.00    -0.014 A 
HETATM    4  C   LIG     1      17.257  34.860  25.646  1.00  0.00     0.013 A 
HETATM    5  C   LIG     1      17.743  35.386  26.857  1.00  0.00     0.001 A 
HETATM    6  C   LIG     1      18.329  36.670  26.898  1.00  0.00     0.001 A 
HETATM    7  C   LIG     1      18.436  37.446  25.730  1.00  0.00     0.013 A 
HETATM    8  C   LIG     1      17.948  36.908  24.541  1.00  0.00    -0.014 A 
HETATM    9  C   LIG     1      17.912  37.451  23.184  1.00  0.00    -0.013 A 
HETATM   10  C   LIG     1      18.340  38.657  22.636  1.00  0.00     0.013 A 
HETATM   11  C   LIG     1      18.145  38.857  21.253  1.00  0.00     0.002 A 
HETATM   12  C   LIG     1      17.532  37.862  20.451  1.00  0.00     0.013 A 
HETATM   13  C   LIG     1      17.102  36.640  21.030  1.00  0.00    -0.013 A 
HETATM   14  C   LIG     1      16.474  35.551  20.356  1.00  0.00    -0.015 A 
HETATM   15  C   LIG     1      16.199  35.576  18.973  1.00  0.00     0.013 A 
HETATM   16  C   LIG     1      15.582  34.488  18.351  1.00  0.00     0.001 A 
HETATM   17  C   LIG     1      15.227  33.358  19.090  1.00  0.00     0.001 A 
HETATM   18  C   LIG     1      15.485  33.302  20.459  1.00  0.00     0.012 A 
HETATM   19  C   LIG     1      16.103  34.380  21.109  1.00  0.00    -0.024 A 
HETATM   20  C   LIG     1      16.356  34.303  22.500  1.00  0.00     0.025 A 
ENDROOT
TORSDOF 0
ENDMDL
MODEL 3
REMARK VINA RESULT:      -6.9      1.149      3.777
REMARK  0 active torsions:
REMARK  status: ('A' for Active; 'I' for Inactive)
ROOT
HETATM    1  C   LIG     1      17.513  36.421  21.874  1.00  0.00    -0.003 A 
HETATM    2  C   LIG     1      18.258  37.518  22.215  1.00  0.00    -0.012 A 
HETATM    3  C   LIG     1      18.590  38.201  20.963  1.00  0.00    -0.014 A 
HETATM    4  C   LIG     1      19.322  39.361  20.722  1.00  0.00     0.013 A 
HETATM    5  C   LIG     1      19.475  39.779  19.387  1.00  0.00     0.001 A 
HETATM    6  C   LIG     1      18.898  39.039  18.332  1.00  0.00     0.001 A 
HETATM    7  C   LIG     1      18.161  37.870  18.597  1.00  0.00     0.013 A 
HETATM    8  C   LIG     1      18.022  37.473  19.925  1.00  0.00    -0.014 A 
HETATM    9  C   LIG     1      17.331  36.329  20.518  1.00  0.00    -0.013 A 
HETATM   10  C   LIG     1      16.597  35.279  19.971  1.00  0.00     0.013 A 
HETATM   11  C   LIG     1      16.056  34.323  20.856  1.00  0.00     0.002 A 
HETATM   12  C   LIG     1      16.252  34.432  22.255  1.00  0.00     0.013 A 
HETATM   13  C   LIG     1      17.002  35.510  22.792  1.00  0.00    -0.013 A 
HETATM   14  C   LIG     1      17.284  35.752  24.170  1.00  0.00    -0.015 A 
HETATM   15  C   LIG     1      16.822  34.901  25.196  1.00  0.00     0.013 A 
HETATM   16  C   LIG     1      17.120  35.174  26.533  1.00  0.00     0.001 A 
HETATM   17  C   LIG     1      17.879  36.293  26.875  1.00  0.00     0.001 A 
HETATM   18  C   LIG     1      18.350  37.154  25.885  1.00  0.00     0.012 A 
HETATM   19  C   LIG     1      18.067  36.905  24.534  1.00  0.00    -0.024 A 
HETATM   20  C   LIG     1      18.555  37.792  23.544  1.00  0.00     0.025 A 
ENDROOT
TORSDOF 0
ENDMDL
MODEL 4
REMARK VINA RESULT:      -6.8     15.327     16.104
REMARK  0 active torsions:
REMARK  status: ('A' for Active; 'I' for Inactive)
ROOT
HETATM    1  C   LIG     1      24.692  22.437  20.380  1.00  0.00    -0.003 A 
HETATM    2  C   LIG     1      25.506  23.101  21.257  1.00  0.00    -0.012 A 
HETATM    3  C   LIG     1      26.337  24.001  20.455  1.00  0.00    -0.014 A 
HETATM    4  C   LIG     1      27.330  24.904  20.830  1.00  0.00     0.013 A 
HETATM    5  C   LIG     1      27.965  25.643  19.816  1.00  0.00     0.001 A 
HETATM    6  C   LIG     1      27.599  25.469  18.463  1.00  0.00     0.001 A 
HETATM    7  C   LIG     1      26.593  24.553  18.106  1.00  0.00     0.013 A 
HETATM    8  C   LIG     1      25.976  23.830  19.125  1.00  0.00    -0.014 A 
HETATM    9  C   LIG     1      24.918  22.822  19.082  1.00  0.00    -0.013 A 
HETATM   10  C   LIG     1      24.187  22.260  18.038  1.00  0.00     0.013 A 
HETATM   11  C   LIG     1      23.218  21.289  18.362  1.00  0.00     0.002 A 
HETATM   12  C   LIG     1      22.995  20.900  19.707  1.00  0.00     0.013 A 
HETATM   13  C   LIG     1      23.750  21.486  20.756  1.00  0.00    -0.013 A 
HETATM   14  C   LIG     1      23.641  21.200  22.150  1.00  0.00    -0.015 A 
HETATM   15  C   LIG     1      22.723  20.255  22.657  1.00  0.00     0.013 A 
HETATM   16  C   LIG     1      22.648  20.004  24.029  1.00  0.00     0.001 A 
HETATM   17  C   LIG     1      23.480  20.684  24.920  1.00  0.00     0.001 A 
HETATM   18  C   LIG     1      24.397  21.623  24.450  1.00  0.00     0.012 A 
HETATM   19  C   LIG     1      24.494  21.895  23.078  1.00  0.00    -0.024 A 
HETATM   20  C   LIG     1      25.432  22.853  22.623  1.00  0.00     0.025 A 
ENDROOT
TORSDOF 0
ENDMDL
MODEL 5
REMARK VINA RESULT:      -6.6      1.207      5.828
REMARK  0 active torsions:
REMARK  status: ('A' for Active; 'I' for Inactive)
ROOT
HETATM    1  C   LIG     1      17.499  36.374  22.025  1.00  0.00    -0.003 A 
HETATM    2  C   LIG     1      18.144  37.292  22.808  1.00  0.00    -0.012 A 
HETATM    3  C   LIG     1      17.955  36.864  24.195  1.00  0.00    -0.014 A 
HETATM    4  C   LIG     1      18.395  37.424  25.392  1.00  0.00     0.013 A 
HETATM    5  C   LIG     1      18.050  36.774  26.591  1.00  0.00     0.001 A 
HETATM    6  C   LIG     1      17.281  35.590  26.569  1.00  0.00     0.001 A 
HETATM    7  C   LIG     1      16.847  35.040  25.350  1.00  0.00     0.013 A 
HETATM    8  C   LIG     1      17.199  35.698  24.174  1.00  0.00    -0.014 A 
HETATM    9  C   LIG     1      16.908  35.388  22.775  1.00  0.00    -0.013 A 
HETATM   10  C   LIG     1      16.201  34.357  22.162  1.00  0.00     0.013 A 
HETATM   11  C   LIG     1      16.115  34.365  20.754  1.00  0.00     0.002 A 
HETATM   12  C   LIG     1      16.731  35.389  19.991  1.00  0.00     0.013 A 
HETATM   13  C   LIG     1      17.447  36.430  20.637  1.00  0.00    -0.013 A 
HETATM   14  C   LIG     1      18.116  37.523  20.008  1.00  0.00    -0.015 A 
HETATM   15  C   LIG     1      18.135  37.692  18.608  1.00  0.00     0.013 A 
HETATM   16  C   LIG     1      18.801  38.777  18.033  1.00  0.00     0.001 A 
HETATM   17  C   LIG     1      19.458  39.711  18.834  1.00  0.00     0.001 A 
HETATM   18  C   LIG     1      19.457  39.572  20.222  1.00  0.00     0.012 A 
HETATM   19  C   LIG     1      18.797  38.493  20.827  1.00  0.00    -0.024 A 
HETATM   20  C   LIG     1      18.808  38.371  22.238  1.00  0.00     0.025 A 
ENDROOT
TORSDOF 0
ENDMDL
MODEL 6
REMARK VINA RESULT:      -6.5     15.423     16.331
REMARK  0 active torsions:
REMARK  status: ('A' for Active; 'I' for Inactive)
ROOT
HETATM    1  C   LIG     1      24.621  22.327  20.504  1.00  0.00    -0.003 A 
HETATM    2  C   LIG     1      25.185  22.673  21.702  1.00  0.00    -0.012 A 
HETATM    3  C   LIG     1      24.484  21.900  22.730  1.00  0.00    -0.014 A 
HETATM    4  C   LIG     1      24.649  21.860  24.113  1.00  0.00     0.013 A 
HETATM    5  C   LIG     1      23.812  21.004  24.852  1.00  0.00     0.001 A 
HETATM    6  C   LIG     1      22.838  20.214  24.201  1.00  0.00     0.001 A 
HETATM    7  C   LIG     1      22.688  20.269  22.804  1.00  0.00     0.013 A 
HETATM    8  C   LIG     1      23.527  21.123  22.090  1.00  0.00    -0.014 A 
HETATM    9  C   LIG     1      23.620  21.402  20.658  1.00  0.00    -0.013 A 
HETATM   10  C   LIG     1      22.922  20.922  19.553  1.00  0.00     0.013 A 
HETATM   11  C   LIG     1      23.279  21.419  18.283  1.00  0.00     0.002 A 
HETATM   12  C   LIG     1      24.316  22.374  18.138  1.00  0.00     0.013 A 
HETATM   13  C   LIG     1      25.015  22.850  19.277  1.00  0.00    -0.013 A 
HETATM   14  C   LIG     1      26.075  23.805  19.291  1.00  0.00    -0.015 A 
HETATM   15  C   LIG     1      26.565  24.407  18.112  1.00  0.00     0.013 A 
HETATM   16  C   LIG     1      27.605  25.338  18.170  1.00  0.00     0.001 A 
HETATM   17  C   LIG     1      28.176  25.687  19.393  1.00  0.00     0.001 A 
HETATM   18  C   LIG     1      27.715  25.110  20.576  1.00  0.00     0.012 A 
HETATM   19  C   LIG     1      26.673  24.172  20.549  1.00  0.00    -0.024 A 
HETATM   20  C   LIG     1      26.220  23.598  21.761  1.00  0.00     0.025 A 
ENDROOT
TORSDOF 0
ENDMDL
MODEL 7
REMARK VINA RESULT:      -6.5     19.084     20.755
REMARK  0 active torsions:
REMARK  status: ('A' for Active; 'I' for Inactive)
ROOT
HETATM    1  C   LIG     1      13.837  18.013  12.486  1.00  0.00    -0.003 A 
HETATM    2  C   LIG     1      12.998  18.049  13.566  1.00  0.00    -0.012 A 
HETATM    3  C   LIG     1      11.633  18.031  13.035  1.00  0.00    -0.014 A 
HETATM    4  C   LIG     1      10.401  18.052  13.684  1.00  0.00     0.013 A 
HETATM    5  C   LIG     1       9.238  18.026  12.892  1.00  0.00     0.001 A 
HETATM    6  C   LIG     1       9.330  17.979  11.483  1.00  0.00     0.001 A 
HETATM    7  C   LIG     1      10.584  17.959  10.848  1.00  0.00     0.013 A 
HETATM    8  C   LIG     1      11.724  17.985  11.650  1.00  0.00    -0.014 A 
HETATM    9  C   LIG     1      13.144  17.974  11.302  1.00  0.00    -0.013 A 
HETATM   10  C   LIG     1      13.820  17.933  10.085  1.00  0.00     0.013 A 
HETATM   11  C   LIG     1      15.230  17.936  10.116  1.00  0.00     0.002 A 
HETATM   12  C   LIG     1      15.933  17.976  11.346  1.00  0.00     0.013 A 
HETATM   13  C   LIG     1      15.224  18.016  12.575  1.00  0.00    -0.013 A 
HETATM   14  C   LIG     1      15.789  18.059  13.885  1.00  0.00    -0.015 A 
HETATM   15  C   LIG     1      17.182  18.067  14.107  1.00  0.00     0.013 A 
HETATM   16  C   LIG     1      17.694  18.110  15.406  1.00  0.00     0.001 A 
HETATM   17  C   LIG     1      16.835  18.146  16.505  1.00  0.00     0.001 A 
HETATM   18  C   LIG     1      15.453  18.140  16.319  1.00  0.00     0.012 A 
HETATM   19  C   LIG     1      14.911  18.097  15.026  1.00  0.00    -0.024 A 
HETATM   20  C   LIG     1      13.505  18.091  14.859  1.00  0.00     0.025 A 
ENDROOT
TORSDOF 0
ENDMDL
MODEL 8
REMARK VINA RESULT:      -6.4     15.065     16.617
REMARK  0 active torsions:
REMARK  status: ('A' for Active; 'I' for Inactive)
ROOT
HETATM    1  C   LIG     1      26.462  22.919  18.725  1.00  0.00    -0.003 A 
HETATM    2  C   LIG     1      25.852  23.753  19.623  1.00  0.00    -0.012 A 
HETATM    3  C   LIG     1      24.840  22.951  20.315  1.00  0.00    -0.014 A 
HETATM    4  C   LIG     1      23.935  23.291  21.319  1.00  0.00     0.013 A 
HETATM    5  C   LIG     1      23.071  22.288  21.794  1.00  0.00     0.001 A 
HETATM    6  C   LIG     1      23.127  20.981  21.262  1.00  0.00     0.001 A 
HETATM    7  C   LIG     1      24.047  20.658  20.249  1.00  0.00     0.013 A 
HETATM    8  C   LIG     1      24.895  21.665  19.792  1.00  0.00    -0.014 A 
HETATM    9  C   LIG     1      25.940  21.651  18.770  1.00  0.00    -0.013 A 
HETATM   10  C   LIG     1      26.430  20.653  17.931  1.00  0.00     0.013 A 
HETATM   11  C   LIG     1      27.470  20.993  17.042  1.00  0.00     0.002 A 
HETATM   12  C   LIG     1      28.000  22.307  17.007  1.00  0.00     0.013 A 
HETATM   13  C   LIG     1      27.487  23.309  17.871  1.00  0.00    -0.013 A 
HETATM   14  C   LIG     1      27.915  24.668  17.951  1.00  0.00    -0.015 A 
HETATM   15  C   LIG     1      28.945  25.184  17.137  1.00  0.00     0.013 A 
HETATM   16  C   LIG     1      29.333  26.522  17.247  1.00  0.00     0.001 A 
HETATM   17  C   LIG     1      28.709  27.368  18.164  1.00  0.00     0.001 A 
HETATM   18  C   LIG     1      27.687  26.888  18.982  1.00  0.00     0.012 A 
HETATM   19  C   LIG     1      27.276  25.550  18.894  1.00  0.00    -0.024 A 
HETATM   20  C   LIG     1      26.237  25.083  19.735  1.00  0.00     0.025 A 
ENDROOT
TORSDOF 0
ENDMDL
MODEL 9
REMARK VINA RESULT:      -6.3     15.225     17.010
REMARK  0 active torsions:
REMARK  status: ('A' for Active; 'I' for Inactive)
ROOT
HETATM    1  C   LIG     1      23.955  21.452  23.582  1.00  0.00    -0.003 A 
HETATM    2  C   LIG     1      24.809  22.515  23.470  1.00  0.00    -0.012 A 
HETATM    3  C   LIG     1      25.185  22.893  24.833  1.00  0.00    -0.014 A 
HETATM    4  C   LIG     1      26.025  23.900  25.303  1.00  0.00     0.013 A 
HETATM    5  C   LIG     1      26.195  24.021  26.694  1.00  0.00     0.001 A 
HETATM    6  C   LIG     1      25.530  23.143  27.578  1.00  0.00     0.001 A 
HETATM    7  C   LIG     1      24.687  22.132  27.084  1.00  0.00     0.013 A 
HETATM    8  C   LIG     1      24.532  22.029  25.703  1.00  0.00    -0.014 A 
HETATM    9  C   LIG     1      23.741  21.104  24.891  1.00  0.00    -0.013 A 
HETATM   10  C   LIG     1      22.900  20.042  25.215  1.00  0.00     0.013 A 
HETATM   11  C   LIG     1      22.281  19.347  24.156  1.00  0.00     0.002 A 
HETATM   12  C   LIG     1      22.512  19.717  22.807  1.00  0.00     0.013 A 
HETATM   13  C   LIG     1      23.373  20.801  22.499  1.00  0.00    -0.013 A 
HETATM   14  C   LIG     1      23.700  21.289  21.199  1.00  0.00    -0.015 A 
HETATM   15  C   LIG     1      23.174  20.714  20.022  1.00  0.00     0.013 A 
HETATM   16  C   LIG     1      23.520  21.222  18.768  1.00  0.00     0.001 A 
HETATM   17  C   LIG     1      24.391  22.306  18.658  1.00  0.00     0.001 A 
HETATM   18  C   LIG     1      24.928  22.897  19.802  1.00  0.00     0.012 A 
HETATM   19  C   LIG     1      24.599  22.408  21.074  1.00  0.00    -0.024 A 
HETATM   20  C   LIG     1      25.155  23.021  22.223  1.00  0.00     0.025 A 
ENDROOT
TORSDOF 0
ENDMDL
MODEL 10
REMARK VINA RESULT:      -6.2     15.009     16.751
REMARK  0 active torsions:
REMARK  status: ('A' for Active; 'I' for Inactive)
ROOT
HETATM    1  C   LIG     1      24.420  21.884  19.626  1.00  0.00    -0.003 A 
HETATM    2  C   LIG     1      24.922  21.453  18.428  1.00  0.00    -0.012 A 
HETATM    3  C   LIG     1      24.221  20.208  18.106  1.00  0.00    -0.014 A 
HETATM    4  C   LIG     1      24.336  19.352  17.013  1.00  0.00     0.013 A 
HETATM    5  C   LIG     1      23.513  18.211  16.980  1.00  0.00     0.001 A 
HETATM    6  C   LIG     1      22.603  17.952  18.028  1.00  0.00     0.001 A 
HETATM    7  C   LIG     1      22.502  18.829  19.122  1.00  0.00     0.013 A 
HETATM    8  C   LIG     1      23.325  19.954  19.136  1.00  0.00    -0.014 A 
HETATM    9  C   LIG     1      23.458  21.035  20.111  1.00  0.00    -0.013 A 
HETATM   10  C   LIG     1      22.823  21.301  21.322  1.00  0.00     0.013 A 
HETATM   11  C   LIG     1      23.204  22.463  22.023  1.00  0.00     0.002 A 
HETATM   12  C   LIG     1      24.200  23.332  21.509  1.00  0.00     0.013 A 
HETATM   13  C   LIG     1      24.834  23.042  20.273  1.00  0.00    -0.013 A 
HETATM   14  C   LIG     1      25.847  23.816  19.632  1.00  0.00    -0.015 A 
HETATM   15  C   LIG     1      26.350  25.011  20.188  1.00  0.00     0.013 A 
HETATM   16  C   LIG     1      27.343  25.738  19.528  1.00  0.00     0.001 A 
HETATM   17  C   LIG     1      27.853  25.295  18.307  1.00  0.00     0.001 A 
HETATM   18  C   LIG     1      27.376  24.118  17.730  1.00  0.00     0.012 A 
HETATM   19  C   LIG     1      26.380  23.367  18.371  1.00  0.00    -0.024 A 
HETATM   20  C   LIG     1      25.909  22.175  17.769  1.00  0.00     0.025 A 
ENDROOT
TORSDOF 0
ENDMDL
MODEL 11
REMARK VINA RESULT:      -6.1     15.604     16.513
REMARK  0 active torsions:
REMARK  status: ('A' for Active; 'I' for Inactive)
ROOT
HETATM    1  C   LIG     1      25.511  22.794  22.929  1.00  0.00    -0.003 A 
HETATM    2  C   LIG     1      24.377  22.104  23.261  1.00  0.00    -0.012 A 
HETATM    3  C   LIG     1      24.363  22.003  24.722  1.00  0.00    -0.014 A 
HETATM    4  C   LIG     1      23.448  21.408  25.588  1.00  0.00     0.013 A 
HETATM    5  C   LIG     1      23.709  21.473  26.969  1.00  0.00     0.001 A 
HETATM    6  C   LIG     1      24.866  22.124  27.451  1.00  0.00     0.001 A 
HETATM    7  C   LIG     1      25.777  22.718  26.560  1.00  0.00     0.013 A 
HETATM    8  C   LIG     1      25.501  22.643  25.197  1.00  0.00    -0.014 A 
HETATM    9  C   LIG     1      26.236  23.150  24.038  1.00  0.00    -0.013 A 
HETATM   10  C   LIG     1      27.426  23.861  23.910  1.00  0.00     0.013 A 
HETATM   11  C   LIG     1      27.855  24.196  22.609  1.00  0.00     0.002 A 
HETATM   12  C   LIG     1      27.096  23.822  21.472  1.00  0.00     0.013 A 
HETATM   13  C   LIG     1      25.885  23.099  21.625  1.00  0.00    -0.013 A 
HETATM   14  C   LIG     1      25.018  22.655  20.583  1.00  0.00    -0.015 A 
HETATM   15  C   LIG     1      25.287  22.901  19.220  1.00  0.00     0.013 A 
HETATM   16  C   LIG     1      24.412  22.448  18.230  1.00  0.00     0.001 A 
HETATM   17  C   LIG     1      23.256  21.746  18.573  1.00  0.00     0.001 A 
HETATM   18  C   LIG     1      22.962  21.486  19.911  1.00  0.00     0.012 A 
HETATM   19  C   LIG     1      23.822  21.928  20.926  1.00  0.00    -0.024 A 
HETATM   20  C   LIG     1      23.504  21.654  22.278  1.00  0.00     0.025 A 
ENDROOT
TORSDOF 0
ENDMDL
MODEL 12
REMARK VINA RESULT:      -6.0     15.283     16.271
REMARK  0 active torsions:
REMARK  status: ('A' for Active; 'I' for Inactive)
ROOT
HETATM    1  C   LIG     1      23.767  21.172  23.287  1.00  0.00    -0.003 A 
HETATM    2  C   LIG     1      24.498  22.162  22.688  1.00  0.00    -0.012 A 
HETATM    3  C   LIG     1      24.298  22.012  21.245  1.00  0.00    -0.014 A 
HETATM    4  C   LIG     1      24.802  22.745  20.172  1.00  0.00     0.013 A 
HETATM    5  C   LIG     1      24.426  22.356  18.874  1.00  0.00     0.001 A 
HETATM    6  C   LIG     1      23.564  21.256  18.675  1.00  0.00     0.001 A 
HETATM    7  C   LIG     1      23.066  20.529  19.771  1.00  0.00     0.013 A 
HETATM    8  C   LIG     1      23.450  20.930  21.049  1.00  0.00    -0.014 A 
HETATM    9  C   LIG     1      23.112  20.393  22.367  1.00  0.00    -0.013 A 
HETATM   10  C   LIG     1      22.313  19.330  22.778  1.00  0.00     0.013 A 
HETATM   11  C   LIG     1      22.206  19.085  24.163  1.00  0.00     0.002 A 
HETATM   12  C   LIG     1      22.888  19.898  25.103  1.00  0.00     0.013 A 
HETATM   13  C   LIG     1      23.697  20.978  24.661  1.00  0.00    -0.013 A 
HETATM   14  C   LIG     1      24.440  21.878  25.482  1.00  0.00    -0.015 A 
HETATM   15  C   LIG     1      24.449  21.785  26.889  1.00  0.00     0.013 A 
HETATM   16  C   LIG     1      25.192  22.687  27.656  1.00  0.00     0.001 A 
HETATM   17  C   LIG     1      25.935  23.695  27.041  1.00  0.00     0.001 A 
HETATM   18  C   LIG     1      25.946  23.814  25.652  1.00  0.00     0.012 A 
HETATM   19  C   LIG     1      25.211  22.922  24.857  1.00  0.00    -0.024 A 
HETATM   20  C   LIG     1      25.236  23.061  23.448  1.00  0.00     0.025 A 
ENDROOT
TORSDOF 0
ENDMDL
MODEL 13
REMARK VINA RESULT:      -6.0     15.257     17.369
REMARK  0 active torsions:
REMARK  status: ('A' for Active; 'I' for Inactive)
ROOT
HETATM    1  C   LIG     1      24.091  21.408  21.010  1.00  0.00    -0.003 A 
HETATM    2  C   LIG     1      23.519  20.508  21.867  1.00  0.00    -0.012 A 
HETATM    3  C   LIG     1      23.801  20.986  23.222  1.00  0.00    -0.014 A 
HETATM    4  C   LIG     1      23.458  20.461  24.466  1.00  0.00     0.013 A 
HETATM    5  C   LIG     1      23.878  21.157  25.614  1.00  0.00     0.001 A 
HETATM    6  C   LIG     1      24.624  22.350  25.497  1.00  0.00     0.001 A 
HETATM    7  C   LIG     1      24.960  22.864  24.232  1.00  0.00     0.013 A 
HETATM    8  C   LIG     1      24.535  22.160  23.107  1.00  0.00    -0.014 A 
HETATM    9  C   LIG     1      24.718  22.426  21.681  1.00  0.00    -0.013 A 
HETATM   10  C   LIG     1      25.362  23.446  20.984  1.00  0.00     0.013 A 
HETATM   11  C   LIG     1      25.345  23.391  19.575  1.00  0.00     0.002 A 
HETATM   12  C   LIG     1      24.693  22.333  18.894  1.00  0.00     0.013 A 
HETATM   13  C   LIG     1      24.042  21.304  19.624  1.00  0.00    -0.013 A 
HETATM   14  C   LIG     1      23.348  20.181  19.083  1.00  0.00    -0.015 A 
HETATM   15  C   LIG     1      23.229  19.965  17.694  1.00  0.00     0.013 A 
HETATM   16  C   LIG     1      22.541  18.852  17.205  1.00  0.00     0.001 A 
HETATM   17  C   LIG     1      21.959  17.937  18.083  1.00  0.00     0.001 A 
HETATM   18  C   LIG     1      22.058  18.123  19.461  1.00  0.00     0.012 A 
HETATM   19  C   LIG     1      22.744  19.231  19.980  1.00  0.00    -0.024 A 
HETATM   20  C   LIG     1      22.832  19.401  21.383  1.00  0.00     0.025 A 
ENDROOT
TORSDOF 0
ENDMDL
MODEL 14
REMARK VINA RESULT:      -6.0     17.732     20.851
REMARK  0 active torsions:
REMARK  status: ('A' for Active; 'I' for Inactive)
ROOT
HETATM    1  C   LIG     1      21.266  21.588  35.934  1.00  0.00    -0.003 A 
HETATM    2  C   LIG     1      21.478  20.764  37.005  1.00  0.00    -0.012 A 
HETATM    3  C   LIG     1      20.256  19.975  37.172  1.00  0.00    -0.014 A 
HETATM    4  C   LIG     1      19.924  18.990  38.100  1.00  0.00     0.013 A 
HETATM    5  C   LIG     1      18.651  18.399  38.007  1.00  0.00     0.001 A 
HETATM    6  C   LIG     1      17.745  18.800  37.001  1.00  0.00     0.001 A 
HETATM    7  C   LIG     1      18.099  19.797  36.074  1.00  0.00     0.013 A 
HETATM    8  C   LIG     1      19.365  20.369  36.182  1.00  0.00    -0.014 A 
HETATM    9  C   LIG     1      20.020  21.408  35.388  1.00  0.00    -0.013 A 
HETATM   10  C   LIG     1      19.613  22.154  34.286  1.00  0.00     0.013 A 
HETATM   11  C   LIG     1      20.521  23.095  33.758  1.00  0.00     0.002 A 
HETATM   12  C   LIG     1      21.805  23.271  34.331  1.00  0.00     0.013 A 
HETATM   13  C   LIG     1      22.200  22.500  35.454  1.00  0.00    -0.013 A 
HETATM   14  C   LIG     1      23.452  22.563  36.136  1.00  0.00    -0.015 A 
HETATM   15  C   LIG     1      24.481  23.446  35.745  1.00  0.00     0.013 A 
HETATM   16  C   LIG     1      25.692  23.478  36.441  1.00  0.00     0.001 A 
HETATM   17  C   LIG     1      25.903  22.636  37.533  1.00  0.00     0.001 A 
HETATM   18  C   LIG     1      24.906  21.752  37.944  1.00  0.00     0.012 A 
HETATM   19  C   LIG     1      23.681  21.699  37.265  1.00  0.00    -0.024 A 
HETATM   20  C   LIG     1      22.682  20.793  37.698  1.00  0.00     0.025 A 
ENDROOT
TORSDOF 0
ENDMDL
MODEL 15
REMARK VINA RESULT:      -6.0     15.212     15.531
REMARK  0 active torsions:
REMARK  status: ('A' for Active; 'I' for Inactive)
ROOT
HETATM    1  C   LIG     1      26.470  23.927  20.541  1.00  0.00    -0.003 A 
HETATM    2  C   LIG     1      25.880  22.993  21.347  1.00  0.00    -0.012 A 
HETATM    3  C   LIG     1      24.916  22.271  20.512  1.00  0.00    -0.014 A 
HETATM    4  C   LIG     1      24.048  21.225  20.816  1.00  0.00     0.013 A 
HETATM    5  C   LIG     1      23.228  20.729  19.787  1.00  0.00     0.001 A 
HETATM    6  C   LIG     1      23.291  21.282  18.489  1.00  0.00     0.001 A 
HETATM    7  C   LIG     1      24.175  22.338  18.202  1.00  0.00     0.013 A 
HETATM    8  C   LIG     1      24.979  22.815  19.235  1.00  0.00    -0.014 A 
HETATM    9  C   LIG     1      25.980  23.880  19.260  1.00  0.00    -0.013 A 
HETATM   10  C   LIG     1      26.456  24.754  18.286  1.00  0.00     0.013 A 
HETATM   11  C   LIG     1      27.450  25.681  18.663  1.00  0.00     0.002 A 
HETATM   12  C   LIG     1      27.947  25.718  19.990  1.00  0.00     0.013 A 
HETATM   13  C   LIG     1      27.449  24.818  20.967  1.00  0.00    -0.013 A 
HETATM   14  C   LIG     1      27.848  24.736  22.334  1.00  0.00    -0.015 A 
HETATM   15  C   LIG     1      28.831  25.584  22.886  1.00  0.00     0.013 A 
HETATM   16  C   LIG     1      29.193  25.471  24.231  1.00  0.00     0.001 A 
HETATM   17  C   LIG     1      28.589  24.516  25.049  1.00  0.00     0.001 A 
HETATM   18  C   LIG     1      27.614  23.662  24.533  1.00  0.00     0.012 A 
HETATM   19  C   LIG     1      27.230  23.754  23.188  1.00  0.00    -0.024 A 
HETATM   20  C   LIG     1      26.239  22.877  22.684  1.00  0.00     0.025 A 
ENDROOT
TORSDOF 0
ENDMDL
MODEL 16
REMARK VINA RESULT:      -6.0     15.662     15.763
REMARK  0 active torsions:
REMARK  status: ('A' for Active; 'I' for Inactive)
ROOT
HETATM    1  C   LIG     1      25.425  22.693  22.566  1.00  0.00    -0.003 A 
HETATM    2  C   LIG     1      24.279  21.985  22.325  1.00  0.00    -0.012 A 
HETATM    3  C   LIG     1      24.089  21.982  20.872  1.00  0.00    -0.014 A 
HETATM    4  C   LIG     1      23.092  21.412  20.083  1.00  0.00     0.013 A 
HETATM    5  C   LIG     1      23.180  21.580  18.689  1.00  0.00     0.001 A 
HETATM    6  C   LIG     1      24.249  22.304  18.118  1.00  0.00     0.001 A 
HETATM    7  C   LIG     1      25.245  22.871  18.933  1.00  0.00     0.013 A 
HETATM    8  C   LIG     1      25.141  22.694  20.311  1.00  0.00    -0.014 A 
HETATM    9  C   LIG     1      25.998  23.149  21.405  1.00  0.00    -0.013 A 
HETATM   10  C   LIG     1      27.175  23.892  21.440  1.00  0.00     0.013 A 
HETATM   11  C   LIG     1      27.749  24.156  22.700  1.00  0.00     0.002 A 
HETATM   12  C   LIG     1      27.147  23.678  23.891  1.00  0.00     0.013 A 
HETATM   13  C   LIG     1      25.948  22.922  23.833  1.00  0.00    -0.013 A 
HETATM   14  C   LIG     1      25.229  22.377  24.939  1.00  0.00    -0.015 A 
HETATM   15  C   LIG     1      25.657  22.541  26.273  1.00  0.00     0.013 A 
HETATM   16  C   LIG     1      24.922  21.991  27.327  1.00  0.00     0.001 A 
HETATM   17  C   LIG     1      23.755  21.270  27.076  1.00  0.00     0.001 A 
HETATM   18  C   LIG     1      23.305  21.090  25.768  1.00  0.00     0.012 A 
HETATM   19  C   LIG     1      24.021  21.631  24.691  1.00  0.00    -0.024 A 
HETATM   20  C   LIG     1      23.548  21.436  23.371  1.00  0.00     0.025 A 
ENDROOT
TORSDOF 0
ENDMDL
MODEL 17
REMARK VINA RESULT:      -5.8     15.894     16.759
REMARK  0 active torsions:
REMARK  status: ('A' for Active; 'I' for Inactive)
ROOT
HETATM    1  C   LIG     1      28.447  27.387  29.695  1.00  0.00    -0.003 A 
HETATM    2  C   LIG     1      27.512  26.635  30.353  1.00  0.00    -0.012 A 
HETATM    3  C   LIG     1      27.335  27.250  31.670  1.00  0.00    -0.014 A 
HETATM    4  C   LIG     1      26.512  26.899  32.739  1.00  0.00     0.013 A 
HETATM    5  C   LIG     1      26.561  27.696  33.897  1.00  0.00     0.001 A 
HETATM    6  C   LIG     1      27.420  28.815  33.963  1.00  0.00     0.001 A 
HETATM    7  C   LIG     1      28.242  29.152  32.874  1.00  0.00     0.013 A 
HETATM    8  C   LIG     1      28.180  28.351  31.736  1.00  0.00    -0.014 A 
HETATM    9  C   LIG     1      28.892  28.434  30.462  1.00  0.00    -0.013 A 
HETATM   10  C   LIG     1      29.848  29.318  29.968  1.00  0.00     0.013 A 
HETATM   11  C   LIG     1      30.336  29.099  28.663  1.00  0.00     0.002 A 
HETATM   12  C   LIG     1      29.866  28.013  27.882  1.00  0.00     0.013 A 
HETATM   13  C   LIG     1      28.891  27.124  28.404  1.00  0.00    -0.013 A 
HETATM   14  C   LIG     1      28.325  25.994  27.742  1.00  0.00    -0.015 A 
HETATM   15  C   LIG     1      28.694  25.623  26.432  1.00  0.00     0.013 A 
HETATM   16  C   LIG     1      28.116  24.508  25.820  1.00  0.00     0.001 A 
HETATM   17  C   LIG     1      27.164  23.744  26.495  1.00  0.00     0.001 A 
HETATM   18  C   LIG     1      26.777  24.084  27.791  1.00  0.00     0.012 A 
HETATM   19  C   LIG     1      27.341  25.198  28.430  1.00  0.00    -0.024 A 
HETATM   20  C   LIG     1      26.935  25.526  29.746  1.00  0.00     0.025 A 
ENDROOT
TORSDOF 0
ENDMDL
MODEL 18
REMARK VINA RESULT:      -5.7     15.409     16.446
REMARK  0 active torsions:
REMARK  status: ('A' for Active; 'I' for Inactive)
ROOT
HETATM    1  C   LIG     1      25.216  22.894  22.018  1.00  0.00    -0.003 A 
HETATM    2  C   LIG     1      26.307  23.384  22.681  1.00  0.00    -0.012 A 
HETATM    3  C   LIG     1      26.099  23.091  24.101  1.00  0.00    -0.014 A 
HETATM    4  C   LIG     1      26.889  23.363  25.215  1.00  0.00     0.013 A 
HETATM    5  C   LIG     1      26.417  22.951  26.474  1.00  0.00     0.001 A 
HETATM    6  C   LIG     1      25.179  22.282  26.593  1.00  0.00     0.001 A 
HETATM    7  C   LIG     1      24.397  22.016  25.456  1.00  0.00     0.013 A 
HETATM    8  C   LIG     1      24.881  22.432  24.217  1.00  0.00    -0.014 A 
HETATM    9  C   LIG     1      24.318  22.308  22.874  1.00  0.00    -0.013 A 
HETATM   10  C   LIG     1      23.139  21.747  22.390  1.00  0.00     0.013 A 
HETATM   11  C   LIG     1      22.905  21.804  21.001  1.00  0.00     0.002 A 
HETATM   12  C   LIG     1      23.842  22.412  20.128  1.00  0.00     0.013 A 
HETATM   13  C   LIG     1      25.037  22.977  20.641  1.00  0.00    -0.013 A 
HETATM   14  C   LIG     1      26.069  23.619  19.892  1.00  0.00    -0.015 A 
HETATM   15  C   LIG     1      26.004  23.766  18.491  1.00  0.00     0.013 A 
HETATM   16  C   LIG     1      27.036  24.401  17.795  1.00  0.00     0.001 A 
HETATM   17  C   LIG     1      28.147  24.900  18.476  1.00  0.00     0.001 A 
HETATM   18  C   LIG     1      28.241  24.770  19.861  1.00  0.00     0.012 A 
HETATM   19  C   LIG     1      27.220  24.137  20.585  1.00  0.00    -0.024 A 
HETATM   20  C   LIG     1      27.335  24.016  21.991  1.00  0.00     0.025 A 
ENDROOT
TORSDOF 0
ENDMDL
MODEL 19
REMARK VINA RESULT:      -5.7     15.641     15.941
REMARK  0 active torsions:
REMARK  status: ('A' for Active; 'I' for Inactive)
ROOT
HETATM    1  C   LIG     1      25.355  22.648  22.510  1.00  0.00    -0.003 A 
HETATM    2  C   LIG     1      25.915  23.137  21.361  1.00  0.00    -0.012 A 
HETATM    3  C   LIG     1      25.071  22.674  20.257  1.00  0.00    -0.014 A 
HETATM    4  C   LIG     1      25.172  22.877  18.882  1.00  0.00     0.013 A 
HETATM    5  C   LIG     1      24.193  22.297  18.056  1.00  0.00     0.001 A 
HETATM    6  C   LIG     1      23.143  21.534  18.614  1.00  0.00     0.001 A 
HETATM    7  C   LIG     1      23.058  21.342  20.004  1.00  0.00     0.013 A 
HETATM    8  C   LIG     1      24.038  21.925  20.805  1.00  0.00    -0.014 A 
HETATM    9  C   LIG     1      24.226  21.911  22.255  1.00  0.00    -0.013 A 
HETATM   10  C   LIG     1      23.510  21.328  23.297  1.00  0.00     0.013 A 
HETATM   11  C   LIG     1      23.986  21.520  24.611  1.00  0.00     0.002 A 
HETATM   12  C   LIG     1      25.154  22.284  24.859  1.00  0.00     0.013 A 
HETATM   13  C   LIG     1      25.868  22.870  23.783  1.00  0.00    -0.013 A 
HETATM   14  C   LIG     1      27.053  23.661  23.875  1.00  0.00    -0.015 A 
HETATM   15  C   LIG     1      27.669  23.957  25.109  1.00  0.00     0.013 A 
HETATM   16  C   LIG     1      28.829  24.734  25.154  1.00  0.00     0.001 A 
HETATM   17  C   LIG     1      29.396  25.231  23.980  1.00  0.00     0.001 A 
HETATM   18  C   LIG     1      28.811  24.956  22.744  1.00  0.00     0.012 A 
HETATM   19  C   LIG     1      27.646  24.178  22.668  1.00  0.00    -0.024 A 
HETATM   20  C   LIG     1      27.068  23.911  21.404  1.00  0.00     0.025 A 
ENDROOT
TORSDOF 0
ENDMDL
