REMARK  0 active torsions:
REMARK  status: ('A' for Active; 'I' for Inactive)
ROOT
HETATM    1  C   LIG     1       0.183   0.576   0.092  1.00  0.00    -0.003 A 
HETATM    2  C   LIG     1       0.456  -0.753  -0.086  1.00  0.00    -0.012 A 
HETATM    3  C   LIG     1       1.913  -0.890  -0.032  1.00  0.00    -0.014 A 
HETATM    4  C   LIG     1       2.730  -2.012  -0.152  1.00  0.00     0.013 A 
HETATM    5  C   LIG     1       4.121  -1.828  -0.055  1.00  0.00     0.001 A 
HETATM    6  C   LIG     1       4.662  -0.541   0.158  1.00  0.00     0.001 A 
HETATM    7  C   LIG     1       3.820   0.579   0.277  1.00  0.00     0.013 A 
HETATM    8  C   LIG     1       2.445   0.376   0.178  1.00  0.00    -0.014 A 
HETATM    9  C   LIG     1       1.327   1.315   0.257  1.00  0.00    -0.013 A 
HETATM   10  C   LIG     1       1.260   2.692   0.453  1.00  0.00     0.013 A 
HETATM   11  C   LIG     1      -0.016   3.292   0.474  1.00  0.00     0.002 A 
HETATM   12  C   LIG     1      -1.190   2.516   0.303  1.00  0.00     0.013 A 
HETATM   13  C   LIG     1      -1.099   1.114   0.105  1.00  0.00    -0.013 A 
HETATM   14  C   LIG     1      -2.184   0.206  -0.081  1.00  0.00    -0.015 A 
HETATM   15  C   LIG     1      -3.530   0.629  -0.088  1.00  0.00     0.013 A 
HETATM   16  C   LIG     1      -4.563  -0.293  -0.274  1.00  0.00     0.001 A 
HETATM   17  C   LIG     1      -4.280  -1.647  -0.455  1.00  0.00     0.001 A 
HETATM   18  C   LIG     1      -2.960  -2.097  -0.453  1.00  0.00     0.012 A 
HETATM   19  C   LIG     1      -1.903  -1.194  -0.269  1.00  0.00    -0.024 A 
HETATM   20  C   LIG     1      -0.570  -1.672  -0.270  1.00  0.00     0.025 A 
ENDROOT
TORSDOF 0
