MODEL 1
REMARK VINA RESULT:      -7.0      0.000      0.000
REMARK  0 active torsions:
REMARK  status: ('A' for Active; 'I' for Inactive)
ROOT
HETATM    1  C   LIG     1      16.336  35.646  21.430  1.00  0.00    -0.013 A 
HETATM    2  C   LIG     1      15.498  34.679  21.974  1.00  0.00     0.014 A 
HETATM    3  C   LIG     1      14.962  33.708  21.124  1.00  0.00     0.013 A 
HETATM    4  C   LIG     1      15.254  33.719  19.742  1.00  0.00    -0.025 A 
HETATM    5  C   LIG     1      16.109  34.719  19.187  1.00  0.00    -0.014 A 
HETATM    6  C   LIG     1      16.344  34.713  17.801  1.00  0.00     0.013 A 
HETATM    7  C   LIG     1      15.772  33.731  16.987  1.00  0.00     0.001 A 
HETATM    8  C   LIG     1      14.954  32.746  17.538  1.00  0.00     0.001 A 
HETATM    9  C   LIG     1      14.690  32.739  18.908  1.00  0.00     0.012 A 
HETATM   10  C   LIG     1      16.662  35.678  20.069  1.00  0.00    -0.003 A 
HETATM   11  C   LIG     1      17.592  36.829  19.895  1.00  0.00    -0.012 A 
HETATM   12  C   LIG     1      17.735  37.397  21.141  1.00  0.00    -0.004 A 
HETATM   13  C   LIG     1      18.538  38.496  21.413  1.00  0.00    -0.024 A 
HETATM   14  C   LIG     1      18.591  38.957  22.742  1.00  0.00     0.012 A 
HETATM   15  C   LIG     1      17.844  38.295  23.747  1.00  0.00     0.002 A 
HETATM   16  C   LIG     1      17.048  37.172  23.430  1.00  0.00     0.013 A 
HETATM   17  C   LIG     1      17.016  36.745  22.102  1.00  0.00    -0.013 A 
HETATM   18  C   LIG     1      19.251  39.061  20.344  1.00  0.00     0.012 A 
HETATM   19  C   LIG     1      19.141  38.494  19.053  1.00  0.00     0.002 A 
HETATM   20  C   LIG     1      18.318  37.370  18.819  1.00  0.00     0.013 A 
ENDROOT
TORSDOF 0
ENDMDL
MODEL 2
REMARK VINA RESULT:      -6.3     15.409     16.735
REMARK  0 active torsions:
REMARK  status: ('A' for Active; 'I' for Inactive)
ROOT
HETATM    1  C   LIG     1      23.585  21.097  22.013  1.00  0.00    -0.013 A 
HETATM    2  C   LIG     1      22.846  20.293  22.873  1.00  0.00     0.014 A 
HETATM    3  C   LIG     1      23.001  20.472  24.250  1.00  0.00     0.013 A 
HETATM    4  C   LIG     1      23.900  21.437  24.755  1.00  0.00    -0.025 A 
HETATM    5  C   LIG     1      24.663  22.255  23.867  1.00  0.00    -0.014 A 
HETATM    6  C   LIG     1      25.571  23.179  24.413  1.00  0.00     0.013 A 
HETATM    7  C   LIG     1      25.706  23.311  25.798  1.00  0.00     0.001 A 
HETATM    8  C   LIG     1      24.944  22.522  26.659  1.00  0.00     0.001 A 
HETATM    9  C   LIG     1      24.048  21.586  26.144  1.00  0.00     0.012 A 
HETATM   10  C   LIG     1      24.471  22.076  22.476  1.00  0.00    -0.003 A 
HETATM   11  C   LIG     1      25.036  22.730  21.261  1.00  0.00    -0.012 A 
HETATM   12  C   LIG     1      24.465  22.090  20.184  1.00  0.00    -0.004 A 
HETATM   13  C   LIG     1      24.719  22.414  18.858  1.00  0.00    -0.024 A 
HETATM   14  C   LIG     1      24.050  21.676  17.863  1.00  0.00     0.012 A 
HETATM   15  C   LIG     1      23.147  20.649  18.236  1.00  0.00     0.002 A 
HETATM   16  C   LIG     1      22.908  20.360  19.597  1.00  0.00     0.013 A 
HETATM   17  C   LIG     1      23.593  21.108  20.557  1.00  0.00    -0.013 A 
HETATM   18  C   LIG     1      25.615  23.463  18.604  1.00  0.00     0.012 A 
HETATM   19  C   LIG     1      26.209  24.153  19.687  1.00  0.00     0.002 A 
HETATM   20  C   LIG     1      25.918  23.798  21.024  1.00  0.00     0.013 A 
ENDROOT
TORSDOF 0
ENDMDL
MODEL 3
REMARK VINA RESULT:      -6.3     15.610     16.907
REMARK  0 active torsions:
REMARK  status: ('A' for Active; 'I' for Inactive)
ROOT
HETATM    1  C   LIG     1      24.457  22.219  22.386  1.00  0.00    -0.013 A 
HETATM    2  C   LIG     1      25.064  23.099  21.497  1.00  0.00     0.014 A 
HETATM    3  C   LIG     1      24.911  22.873  20.126  1.00  0.00     0.013 A 
HETATM    4  C   LIG     1      24.168  21.767  19.657  1.00  0.00    -0.025 A 
HETATM    5  C   LIG     1      23.553  20.862  20.574  1.00  0.00    -0.014 A 
HETATM    6  C   LIG     1      22.853  19.755  20.063  1.00  0.00     0.013 A 
HETATM    7  C   LIG     1      22.740  19.560  18.684  1.00  0.00     0.001 A 
HETATM    8  C   LIG     1      23.327  20.458  17.793  1.00  0.00     0.001 A 
HETATM    9  C   LIG     1      24.042  21.555  18.274  1.00  0.00     0.012 A 
HETATM   10  C   LIG     1      23.699  21.124  21.958  1.00  0.00    -0.003 A 
HETATM   11  C   LIG     1      23.202  20.457  23.195  1.00  0.00    -0.012 A 
HETATM   12  C   LIG     1      23.707  21.184  24.249  1.00  0.00    -0.004 A 
HETATM   13  C   LIG     1      23.463  20.897  25.585  1.00  0.00    -0.024 A 
HETATM   14  C   LIG     1      24.041  21.740  26.553  1.00  0.00     0.012 A 
HETATM   15  C   LIG     1      24.833  22.841  26.145  1.00  0.00     0.002 A 
HETATM   16  C   LIG     1      25.048  23.105  24.774  1.00  0.00     0.013 A 
HETATM   17  C   LIG     1      24.463  22.246  23.842  1.00  0.00    -0.013 A 
HETATM   18  C   LIG     1      22.646  19.793  25.875  1.00  0.00     0.012 A 
HETATM   19  C   LIG     1      22.097  19.033  24.816  1.00  0.00     0.002 A 
HETATM   20  C   LIG     1      22.364  19.362  23.469  1.00  0.00     0.013 A 
ENDROOT
TORSDOF 0
ENDMDL
MODEL 4
REMARK VINA RESULT:      -6.3     15.637     16.385
REMARK  0 active torsions:
REMARK  status: ('A' for Active; 'I' for Inactive)
ROOT
HETATM    1  C   LIG     1      26.427  23.600  21.200  1.00  0.00    -0.013 A 
HETATM    2  C   LIG     1      27.411  24.247  21.939  1.00  0.00     0.014 A 
HETATM    3  C   LIG     1      28.393  24.968  21.254  1.00  0.00     0.013 A 
HETATM    4  C   LIG     1      28.392  25.026  19.843  1.00  0.00    -0.025 A 
HETATM    5  C   LIG     1      27.383  24.354  19.088  1.00  0.00    -0.014 A 
HETATM    6  C   LIG     1      27.442  24.409  17.684  1.00  0.00     0.013 A 
HETATM    7  C   LIG     1      28.452  25.129  17.042  1.00  0.00     0.001 A 
HETATM    8  C   LIG     1      29.423  25.799  17.786  1.00  0.00     0.001 A 
HETATM    9  C   LIG     1      29.399  25.747  19.179  1.00  0.00     0.012 A 
HETATM   10  C   LIG     1      26.384  23.650  19.802  1.00  0.00    -0.003 A 
HETATM   11  C   LIG     1      25.181  22.868  19.399  1.00  0.00    -0.012 A 
HETATM   12  C   LIG     1      24.618  22.406  20.567  1.00  0.00    -0.004 A 
HETATM   13  C   LIG     1      23.461  21.640  20.627  1.00  0.00    -0.024 A 
HETATM   14  C   LIG     1      22.998  21.249  21.898  1.00  0.00     0.012 A 
HETATM   15  C   LIG     1      23.708  21.648  23.058  1.00  0.00     0.002 A 
HETATM   16  C   LIG     1      24.875  22.438  22.953  1.00  0.00     0.013 A 
HETATM   17  C   LIG     1      25.306  22.802  21.676  1.00  0.00    -0.013 A 
HETATM   18  C   LIG     1      22.828  21.321  19.416  1.00  0.00     0.012 A 
HETATM   19  C   LIG     1      23.370  21.792  18.198  1.00  0.00     0.002 A 
HETATM   20  C   LIG     1      24.545  22.576  18.179  1.00  0.00     0.013 A 
ENDROOT
TORSDOF 0
ENDMDL
MODEL 5
REMARK VINA RESULT:      -6.3     15.332     16.783
REMARK  0 active torsions:
REMARK  status: ('A' for Active; 'I' for Inactive)
ROOT
HETATM    1  C   LIG     1      24.809  22.447  22.392  1.00  0.00    -0.013 A 
HETATM    2  C   LIG     1      25.213  22.847  23.661  1.00  0.00     0.014 A 
HETATM    3  C   LIG     1      24.701  22.166  24.768  1.00  0.00     0.013 A 
HETATM    4  C   LIG     1      23.784  21.105  24.602  1.00  0.00    -0.025 A 
HETATM    5  C   LIG     1      23.367  20.704  23.296  1.00  0.00    -0.014 A 
HETATM    6  C   LIG     1      22.425  19.665  23.179  1.00  0.00     0.013 A 
HETATM    7  C   LIG     1      21.928  19.024  24.316  1.00  0.00     0.001 A 
HETATM    8  C   LIG     1      22.354  19.409  25.587  1.00  0.00     0.001 A 
HETATM    9  C   LIG     1      23.274  20.447  25.733  1.00  0.00     0.012 A 
HETATM   10  C   LIG     1      23.917  21.389  22.187  1.00  0.00    -0.003 A 
HETATM   11  C   LIG     1      23.765  21.258  20.710  1.00  0.00    -0.012 A 
HETATM   12  C   LIG     1      24.553  22.242  20.157  1.00  0.00    -0.004 A 
HETATM   13  C   LIG     1      24.701  22.449  18.792  1.00  0.00    -0.024 A 
HETATM   14  C   LIG     1      25.552  23.491  18.375  1.00  0.00     0.012 A 
HETATM   15  C   LIG     1      26.227  24.277  19.342  1.00  0.00     0.002 A 
HETATM   16  C   LIG     1      26.058  24.025  20.722  1.00  0.00     0.013 A 
HETATM   17  C   LIG     1      25.203  22.987  21.098  1.00  0.00    -0.013 A 
HETATM   18  C   LIG     1      24.001  21.597  17.924  1.00  0.00     0.012 A 
HETATM   19  C   LIG     1      23.195  20.566  18.458  1.00  0.00     0.002 A 
HETATM   20  C   LIG     1      23.076  20.382  19.853  1.00  0.00     0.013 A 
ENDROOT
TORSDOF 0
ENDMDL
MODEL 6
REMARK VINA RESULT:      -6.3     15.159     16.648
REMARK  0 active torsions:
REMARK  status: ('A' for Active; 'I' for Inactive)
ROOT
HETATM    1  C   LIG     1      23.523  20.944  21.705  1.00  0.00    -0.013 A 
HETATM    2  C   LIG     1      23.183  20.418  20.463  1.00  0.00     0.014 A 
HETATM    3  C   LIG     1      23.692  21.034  19.317  1.00  0.00     0.013 A 
HETATM    4  C   LIG     1      24.521  22.173  19.418  1.00  0.00    -0.025 A 
HETATM    5  C   LIG     1      24.861  22.713  20.696  1.00  0.00    -0.014 A 
HETATM    6  C   LIG     1      25.661  23.869  20.748  1.00  0.00     0.013 A 
HETATM    7  C   LIG     1      26.133  24.461  19.574  1.00  0.00     0.001 A 
HETATM    8  C   LIG     1      25.813  23.917  18.331  1.00  0.00     0.001 A 
HETATM    9  C   LIG     1      25.008  22.781  18.250  1.00  0.00     0.012 A 
HETATM   10  C   LIG     1      24.356  22.059  21.845  1.00  0.00    -0.003 A 
HETATM   11  C   LIG     1      24.499  22.286  23.311  1.00  0.00    -0.012 A 
HETATM   12  C   LIG     1      23.740  21.314  23.923  1.00  0.00    -0.004 A 
HETATM   13  C   LIG     1      23.617  21.168  25.298  1.00  0.00    -0.024 A 
HETATM   14  C   LIG     1      22.812  20.117  25.777  1.00  0.00     0.012 A 
HETATM   15  C   LIG     1      22.168  19.250  24.859  1.00  0.00     0.002 A 
HETATM   16  C   LIG     1      22.329  19.426  23.467  1.00  0.00     0.013 A 
HETATM   17  C   LIG     1      23.131  20.481  23.029  1.00  0.00    -0.013 A 
HETATM   18  C   LIG     1      24.316  22.071  26.114  1.00  0.00     0.012 A 
HETATM   19  C   LIG     1      25.119  23.072  25.519  1.00  0.00     0.002 A 
HETATM   20  C   LIG     1      25.223  23.184  24.115  1.00  0.00     0.013 A 
ENDROOT
TORSDOF 0
ENDMDL
MODEL 7
REMARK VINA RESULT:      -6.2     15.572     16.669
REMARK  0 active torsions:
REMARK  status: ('A' for Active; 'I' for Inactive)
ROOT
HETATM    1  C   LIG     1      26.245  23.664  19.157  1.00  0.00    -0.013 A 
HETATM    2  C   LIG     1      26.996  24.176  18.105  1.00  0.00     0.014 A 
HETATM    3  C   LIG     1      28.152  24.903  18.403  1.00  0.00     0.013 A 
HETATM    4  C   LIG     1      28.539  25.124  19.743  1.00  0.00    -0.025 A 
HETATM    5  C   LIG     1      27.759  24.603  20.820  1.00  0.00    -0.014 A 
HETATM    6  C   LIG     1      28.162  24.878  22.139  1.00  0.00     0.013 A 
HETATM    7  C   LIG     1      29.317  25.624  22.389  1.00  0.00     0.001 A 
HETATM    8  C   LIG     1      30.084  26.114  21.332  1.00  0.00     0.001 A 
HETATM    9  C   LIG     1      29.697  25.871  20.014  1.00  0.00     0.012 A 
HETATM   10  C   LIG     1      26.607  23.848  20.496  1.00  0.00    -0.003 A 
HETATM   11  C   LIG     1      25.578  23.133  21.304  1.00  0.00    -0.012 A 
HETATM   12  C   LIG     1      24.687  22.600  20.399  1.00  0.00    -0.004 A 
HETATM   13  C   LIG     1      23.579  21.840  20.749  1.00  0.00    -0.024 A 
HETATM   14  C   LIG     1      22.763  21.353  19.710  1.00  0.00     0.012 A 
HETATM   15  C   LIG     1      23.095  21.639  18.362  1.00  0.00     0.002 A 
HETATM   16  C   LIG     1      24.239  22.407  18.049  1.00  0.00     0.013 A 
HETATM   17  C   LIG     1      25.021  22.877  19.105  1.00  0.00    -0.013 A 
HETATM   18  C   LIG     1      23.358  21.601  22.114  1.00  0.00     0.012 A 
HETATM   19  C   LIG     1      24.262  22.120  23.070  1.00  0.00     0.002 A 
HETATM   20  C   LIG     1      25.383  22.883  22.673  1.00  0.00     0.013 A 
ENDROOT
TORSDOF 0
ENDMDL
MODEL 8
REMARK VINA RESULT:      -6.0     15.786     15.961
REMARK  0 active torsions:
REMARK  status: ('A' for Active; 'I' for Inactive)
ROOT
HETATM    1  C   LIG     1      24.407  22.304  23.176  1.00  0.00    -0.013 A 
HETATM    2  C   LIG     1      23.213  21.608  23.026  1.00  0.00     0.014 A 
HETATM    3  C   LIG     1      22.769  21.317  21.734  1.00  0.00     0.013 A 
HETATM    4  C   LIG     1      23.510  21.734  20.606  1.00  0.00    -0.025 A 
HETATM    5  C   LIG     1      24.732  22.455  20.765  1.00  0.00    -0.014 A 
HETATM    6  C   LIG     1      25.419  22.881  19.614  1.00  0.00     0.013 A 
HETATM    7  C   LIG     1      24.928  22.582  18.341  1.00  0.00     0.001 A 
HETATM    8  C   LIG     1      23.743  21.861  18.193  1.00  0.00     0.001 A 
HETATM    9  C   LIG     1      23.033  21.441  19.318  1.00  0.00     0.012 A 
HETATM   10  C   LIG     1      25.177  22.717  22.083  1.00  0.00    -0.003 A 
HETATM   11  C   LIG     1      26.376  23.393  22.655  1.00  0.00    -0.012 A 
HETATM   12  C   LIG     1      26.224  23.347  24.022  1.00  0.00    -0.004 A 
HETATM   13  C   LIG     1      27.141  23.860  24.929  1.00  0.00    -0.024 A 
HETATM   14  C   LIG     1      26.853  23.728  26.301  1.00  0.00     0.012 A 
HETATM   15  C   LIG     1      25.660  23.079  26.709  1.00  0.00     0.002 A 
HETATM   16  C   LIG     1      24.759  22.560  25.754  1.00  0.00     0.013 A 
HETATM   17  C   LIG     1      25.076  22.714  24.403  1.00  0.00    -0.013 A 
HETATM   18  C   LIG     1      28.299  24.463  24.413  1.00  0.00     0.012 A 
HETATM   19  C   LIG     1      28.495  24.515  23.014  1.00  0.00     0.002 A 
HETATM   20  C   LIG     1      27.541  23.974  22.124  1.00  0.00     0.013 A 
ENDROOT
TORSDOF 0
ENDMDL
MODEL 9
REMARK VINA RESULT:      -6.0     15.769     18.370
REMARK  0 active torsions:
REMARK  status: ('A' for Active; 'I' for Inactive)
ROOT
HETATM    1  C   LIG     1      25.705  20.869  17.822  1.00  0.00    -0.013 A 
HETATM    2  C   LIG     1      26.713  21.609  18.429  1.00  0.00     0.014 A 
HETATM    3  C   LIG     1      26.392  22.376  19.552  1.00  0.00     0.013 A 
HETATM    4  C   LIG     1      25.070  22.408  20.049  1.00  0.00    -0.025 A 
HETATM    5  C   LIG     1      24.037  21.651  19.417  1.00  0.00    -0.014 A 
HETATM    6  C   LIG     1      22.728  21.741  19.924  1.00  0.00     0.013 A 
HETATM    7  C   LIG     1      22.451  22.534  21.040  1.00  0.00     0.001 A 
HETATM    8  C   LIG     1      23.468  23.256  21.664  1.00  0.00     0.001 A 
HETATM    9  C   LIG     1      24.772  23.198  21.171  1.00  0.00     0.012 A 
HETATM   10  C   LIG     1      24.389  20.862  18.296  1.00  0.00    -0.003 A 
HETATM   11  C   LIG     1      23.633  19.937  17.404  1.00  0.00    -0.012 A 
HETATM   12  C   LIG     1      24.538  19.483  16.472  1.00  0.00    -0.004 A 
HETATM   13  C   LIG     1      24.234  18.582  15.460  1.00  0.00    -0.024 A 
HETATM   14  C   LIG     1      25.270  18.202  14.586  1.00  0.00     0.012 A 
HETATM   15  C   LIG     1      26.572  18.733  14.765  1.00  0.00     0.002 A 
HETATM   16  C   LIG     1      26.842  19.638  15.814  1.00  0.00     0.013 A 
HETATM   17  C   LIG     1      25.790  19.996  16.659  1.00  0.00    -0.013 A 
HETATM   18  C   LIG     1      22.916  18.104  15.389  1.00  0.00     0.012 A 
HETATM   19  C   LIG     1      21.964  18.537  16.341  1.00  0.00     0.002 A 
HETATM   20  C   LIG     1      22.315  19.450  17.360  1.00  0.00     0.013 A 
ENDROOT
TORSDOF 0
ENDMDL
MODEL 10
REMARK VINA RESULT:      -6.0     15.104     15.863
REMARK  0 active torsions:
REMARK  status: ('A' for Active; 'I' for Inactive)
ROOT
HETATM    1  C   LIG     1      25.891  22.404  21.620  1.00  0.00    -0.013 A 
HETATM    2  C   LIG     1      25.491  21.318  22.391  1.00  0.00     0.014 A 
HETATM    3  C   LIG     1      24.588  20.406  21.838  1.00  0.00     0.013 A 
HETATM    4  C   LIG     1      24.083  20.592  20.532  1.00  0.00    -0.025 A 
HETATM    5  C   LIG     1      24.491  21.714  19.748  1.00  0.00    -0.014 A 
HETATM    6  C   LIG     1      23.936  21.879  18.467  1.00  0.00     0.013 A 
HETATM    7  C   LIG     1      23.023  20.950  17.962  1.00  0.00     0.001 A 
HETATM    8  C   LIG     1      22.643  19.847  18.726  1.00  0.00     0.001 A 
HETATM    9  C   LIG     1      23.165  19.668  20.007  1.00  0.00     0.012 A 
HETATM   10  C   LIG     1      25.426  22.612  20.317  1.00  0.00    -0.003 A 
HETATM   11  C   LIG     1      26.103  23.847  19.829  1.00  0.00    -0.012 A 
HETATM   12  C   LIG     1      26.894  24.283  20.868  1.00  0.00    -0.004 A 
HETATM   13  C   LIG     1      27.707  25.407  20.813  1.00  0.00    -0.024 A 
HETATM   14  C   LIG     1      28.469  25.723  21.954  1.00  0.00     0.012 A 
HETATM   15  C   LIG     1      28.393  24.895  23.102  1.00  0.00     0.002 A 
HETATM   16  C   LIG     1      27.562  23.753  23.112  1.00  0.00     0.013 A 
HETATM   17  C   LIG     1      26.817  23.474  21.965  1.00  0.00    -0.013 A 
HETATM   18  C   LIG     1      27.721  26.143  19.618  1.00  0.00     0.012 A 
HETATM   19  C   LIG     1      26.932  25.715  18.525  1.00  0.00     0.002 A 
HETATM   20  C   LIG     1      26.123  24.560  18.618  1.00  0.00     0.013 A 
ENDROOT
TORSDOF 0
ENDMDL
MODEL 11
REMARK VINA RESULT:      -6.0     19.000     20.709
REMARK  0 active torsions:
REMARK  status: ('A' for Active; 'I' for Inactive)
ROOT
HETATM    1  C   LIG     1      20.594  22.421  33.780  1.00  0.00    -0.013 A 
HETATM    2  C   LIG     1      19.935  23.327  32.957  1.00  0.00     0.014 A 
HETATM    3  C   LIG     1      19.372  22.859  31.767  1.00  0.00     0.013 A 
HETATM    4  C   LIG     1      19.484  21.499  31.402  1.00  0.00    -0.025 A 
HETATM    5  C   LIG     1      20.169  20.574  32.248  1.00  0.00    -0.014 A 
HETATM    6  C   LIG     1      20.287  19.236  31.829  1.00  0.00     0.013 A 
HETATM    7  C   LIG     1      19.722  18.817  30.622  1.00  0.00     0.001 A 
HETATM    8  C   LIG     1      19.038  19.721  29.810  1.00  0.00     0.001 A 
HETATM    9  C   LIG     1      18.921  21.057  30.194  1.00  0.00     0.012 A 
HETATM   10  C   LIG     1      20.710  21.064  33.461  1.00  0.00    -0.003 A 
HETATM   11  C   LIG     1      21.448  20.435  34.593  1.00  0.00    -0.012 A 
HETATM   12  C   LIG     1      21.726  21.452  35.478  1.00  0.00    -0.004 A 
HETATM   13  C   LIG     1      22.395  21.280  36.682  1.00  0.00    -0.024 A 
HETATM   14  C   LIG     1      22.596  22.415  37.490  1.00  0.00     0.012 A 
HETATM   15  C   LIG     1      22.112  23.677  37.062  1.00  0.00     0.002 A 
HETATM   16  C   LIG     1      21.426  23.807  35.835  1.00  0.00     0.013 A 
HETATM   17  C   LIG     1      21.248  22.660  35.059  1.00  0.00    -0.013 A 
HETATM   18  C   LIG     1      22.812  19.982  37.015  1.00  0.00     0.012 A 
HETATM   19  C   LIG     1      22.529  18.910  36.137  1.00  0.00     0.002 A 
HETATM   20  C   LIG     1      21.838  19.126  34.923  1.00  0.00     0.013 A 
ENDROOT
TORSDOF 0
ENDMDL
MODEL 12
REMARK VINA RESULT:      -5.9     17.119     18.553
REMARK  0 active torsions:
REMARK  status: ('A' for Active; 'I' for Inactive)
ROOT
HETATM    1  C   LIG     1      29.333  29.795  31.233  1.00  0.00    -0.013 A 
HETATM    2  C   LIG     1      29.919  30.956  31.724  1.00  0.00     0.014 A 
HETATM    3  C   LIG     1      29.580  31.379  33.012  1.00  0.00     0.013 A 
HETATM    4  C   LIG     1      28.653  30.651  33.790  1.00  0.00    -0.025 A 
HETATM    5  C   LIG     1      28.049  29.463  33.277  1.00  0.00    -0.014 A 
HETATM    6  C   LIG     1      27.105  28.788  34.072  1.00  0.00     0.013 A 
HETATM    7  C   LIG     1      26.785  29.258  35.348  1.00  0.00     0.001 A 
HETATM    8  C   LIG     1      27.393  30.408  35.850  1.00  0.00     0.001 A 
HETATM    9  C   LIG     1      28.320  31.106  35.076  1.00  0.00     0.012 A 
HETATM   10  C   LIG     1      28.425  29.037  31.980  1.00  0.00    -0.003 A 
HETATM   11  C   LIG     1      28.056  27.873  31.125  1.00  0.00    -0.012 A 
HETATM   12  C   LIG     1      28.749  28.032  29.946  1.00  0.00    -0.004 A 
HETATM   13  C   LIG     1      28.693  27.143  28.881  1.00  0.00    -0.024 A 
HETATM   14  C   LIG     1      29.468  27.434  27.742  1.00  0.00     0.012 A 
HETATM   15  C   LIG     1      30.275  28.599  27.719  1.00  0.00     0.002 A 
HETATM   16  C   LIG     1      30.313  29.471  28.830  1.00  0.00     0.013 A 
HETATM   17  C   LIG     1      29.528  29.153  29.940  1.00  0.00    -0.013 A 
HETATM   18  C   LIG     1      27.876  26.011  29.020  1.00  0.00     0.012 A 
HETATM   19  C   LIG     1      27.162  25.808  30.224  1.00  0.00     0.002 A 
HETATM   20  C   LIG     1      27.252  26.732  31.289  1.00  0.00     0.013 A 
ENDROOT
TORSDOF 0
ENDMDL
MODEL 13
REMARK VINA RESULT:      -5.9     15.318     16.387
REMARK  0 active torsions:
REMARK  status: ('A' for Active; 'I' for Inactive)
ROOT
HETATM    1  C   LIG     1      25.616  23.568  19.871  1.00  0.00    -0.013 A 
HETATM    2  C   LIG     1      25.559  23.835  18.508  1.00  0.00     0.014 A 
HETATM    3  C   LIG     1      26.596  24.572  17.930  1.00  0.00     0.013 A 
HETATM    4  C   LIG     1      27.669  25.046  18.716  1.00  0.00    -0.025 A 
HETATM    5  C   LIG     1      27.719  24.775  20.118  1.00  0.00    -0.014 A 
HETATM    6  C   LIG     1      28.788  25.296  20.869  1.00  0.00     0.013 A 
HETATM    7  C   LIG     1      29.794  26.042  20.250  1.00  0.00     0.001 A 
HETATM    8  C   LIG     1      29.749  26.287  18.878  1.00  0.00     0.001 A 
HETATM    9  C   LIG     1      28.691  25.796  18.113  1.00  0.00     0.012 A 
HETATM   10  C   LIG     1      26.672  24.005  20.679  1.00  0.00    -0.003 A 
HETATM   11  C   LIG     1      26.381  23.497  22.050  1.00  0.00    -0.012 A 
HETATM   12  C   LIG     1      25.185  22.821  21.960  1.00  0.00    -0.004 A 
HETATM   13  C   LIG     1      24.567  22.180  23.025  1.00  0.00    -0.024 A 
HETATM   14  C   LIG     1      23.349  21.519  22.776  1.00  0.00     0.012 A 
HETATM   15  C   LIG     1      22.803  21.520  21.469  1.00  0.00     0.002 A 
HETATM   16  C   LIG     1      23.470  22.175  20.410  1.00  0.00     0.013 A 
HETATM   17  C   LIG     1      24.673  22.823  20.694  1.00  0.00    -0.013 A 
HETATM   18  C   LIG     1      25.208  22.226  24.273  1.00  0.00     0.012 A 
HETATM   19  C   LIG     1      26.446  22.898  24.398  1.00  0.00     0.002 A 
HETATM   20  C   LIG     1      27.046  23.532  23.287  1.00  0.00     0.013 A 
ENDROOT
TORSDOF 0
ENDMDL
MODEL 14
REMARK VINA RESULT:      -5.8     17.073     17.943
REMARK  0 active torsions:
REMARK  status: ('A' for Active; 'I' for Inactive)
ROOT
HETATM    1  C   LIG     1      29.401  29.666  30.897  1.00  0.00    -0.013 A 
HETATM    2  C   LIG     1      30.238  30.481  30.142  1.00  0.00     0.014 A 
HETATM    3  C   LIG     1      30.581  30.069  28.851  1.00  0.00     0.013 A 
HETATM    4  C   LIG     1      30.100  28.847  28.333  1.00  0.00    -0.025 A 
HETATM    5  C   LIG     1      29.247  28.010  29.115  1.00  0.00    -0.014 A 
HETATM    6  C   LIG     1      28.820  26.785  28.572  1.00  0.00     0.013 A 
HETATM    7  C   LIG     1      29.203  26.407  27.282  1.00  0.00     0.001 A 
HETATM    8  C   LIG     1      30.020  27.238  26.516  1.00  0.00     0.001 A 
HETATM    9  C   LIG     1      30.472  28.450  27.038  1.00  0.00     0.012 A 
HETATM   10  C   LIG     1      28.891  28.457  30.410  1.00  0.00    -0.003 A 
HETATM   11  C   LIG     1      28.027  27.908  31.493  1.00  0.00    -0.012 A 
HETATM   12  C   LIG     1      28.100  28.808  32.533  1.00  0.00    -0.004 A 
HETATM   13  C   LIG     1      27.421  28.670  33.735  1.00  0.00    -0.024 A 
HETATM   14  C   LIG     1      27.586  29.680  34.702  1.00  0.00     0.012 A 
HETATM   15  C   LIG     1      28.419  30.792  34.422  1.00  0.00     0.002 A 
HETATM   16  C   LIG     1      29.084  30.899  33.180  1.00  0.00     0.013 A 
HETATM   17  C   LIG     1      28.900  29.877  32.248  1.00  0.00    -0.013 A 
HETATM   18  C   LIG     1      26.606  27.538  33.897  1.00  0.00     0.012 A 
HETATM   19  C   LIG     1      26.495  26.601  32.844  1.00  0.00     0.002 A 
HETATM   20  C   LIG     1      27.198  26.781  31.631  1.00  0.00     0.013 A 
ENDROOT
TORSDOF 0
ENDMDL
MODEL 15
REMARK VINA RESULT:      -5.7     15.229     17.164
REMARK  0 active torsions:
REMARK  status: ('A' for Active; 'I' for Inactive)
ROOT
HETATM    1  C   LIG     1      26.161  21.630  18.500  1.00  0.00    -0.013 A 
HETATM    2  C   LIG     1      27.146  21.466  17.532  1.00  0.00     0.014 A 
HETATM    3  C   LIG     1      27.971  22.553  17.231  1.00  0.00     0.013 A 
HETATM    4  C   LIG     1      27.798  23.793  17.885  1.00  0.00    -0.025 A 
HETATM    5  C   LIG     1      26.779  23.958  18.873  1.00  0.00    -0.014 A 
HETATM    6  C   LIG     1      26.620  25.220  19.473  1.00  0.00     0.013 A 
HETATM    7  C   LIG     1      27.458  26.283  19.128  1.00  0.00     0.001 A 
HETATM    8  C   LIG     1      28.463  26.109  18.177  1.00  0.00     0.001 A 
HETATM    9  C   LIG     1      28.632  24.873  17.553  1.00  0.00     0.012 A 
HETATM   10  C   LIG     1      25.971  22.837  19.181  1.00  0.00    -0.003 A 
HETATM   11  C   LIG     1      24.856  22.599  20.141  1.00  0.00    -0.012 A 
HETATM   12  C   LIG     1      24.462  21.294  19.950  1.00  0.00    -0.004 A 
HETATM   13  C   LIG     1      23.449  20.670  20.667  1.00  0.00    -0.024 A 
HETATM   14  C   LIG     1      23.165  19.325  20.366  1.00  0.00     0.012 A 
HETATM   15  C   LIG     1      23.913  18.655  19.365  1.00  0.00     0.002 A 
HETATM   16  C   LIG     1      24.943  19.323  18.668  1.00  0.00     0.013 A 
HETATM   17  C   LIG     1      25.194  20.658  18.989  1.00  0.00    -0.013 A 
HETATM   18  C   LIG     1      22.789  21.423  21.650  1.00  0.00     0.012 A 
HETATM   19  C   LIG     1      23.179  22.762  21.884  1.00  0.00     0.002 A 
HETATM   20  C   LIG     1      24.220  23.359  21.138  1.00  0.00     0.013 A 
ENDROOT
TORSDOF 0
ENDMDL
MODEL 16
REMARK VINA RESULT:      -5.7     15.203     16.137
REMARK  0 active torsions:
REMARK  status: ('A' for Active; 'I' for Inactive)
ROOT
HETATM    1  C   LIG     1      25.055  22.989  20.587  1.00  0.00    -0.013 A 
HETATM    2  C   LIG     1      23.922  22.360  20.086  1.00  0.00     0.014 A 
HETATM    3  C   LIG     1      23.169  21.557  20.948  1.00  0.00     0.013 A 
HETATM    4  C   LIG     1      23.561  21.378  22.293  1.00  0.00    -0.025 A 
HETATM    5  C   LIG     1      24.732  22.021  22.800  1.00  0.00    -0.014 A 
HETATM    6  C   LIG     1      25.104  21.786  24.136  1.00  0.00     0.013 A 
HETATM    7  C   LIG     1      24.330  20.962  24.956  1.00  0.00     0.001 A 
HETATM    8  C   LIG     1      23.178  20.353  24.459  1.00  0.00     0.001 A 
HETATM    9  C   LIG     1      22.795  20.554  23.133  1.00  0.00     0.012 A 
HETATM   10  C   LIG     1      25.465  22.850  21.918  1.00  0.00    -0.003 A 
HETATM   11  C   LIG     1      26.686  23.692  22.065  1.00  0.00    -0.012 A 
HETATM   12  C   LIG     1      26.918  24.246  20.826  1.00  0.00    -0.004 A 
HETATM   13  C   LIG     1      27.963  25.113  20.541  1.00  0.00    -0.024 A 
HETATM   14  C   LIG     1      28.065  25.609  19.227  1.00  0.00     0.012 A 
HETATM   15  C   LIG     1      27.110  25.222  18.253  1.00  0.00     0.002 A 
HETATM   16  C   LIG     1      26.054  24.346  18.588  1.00  0.00     0.013 A 
HETATM   17  C   LIG     1      25.988  23.871  19.899  1.00  0.00    -0.013 A 
HETATM   18  C   LIG     1      28.838  25.445  21.587  1.00  0.00     0.012 A 
HETATM   19  C   LIG     1      28.621  24.906  22.876  1.00  0.00     0.002 A 
HETATM   20  C   LIG     1      27.540  24.032  23.128  1.00  0.00     0.013 A 
ENDROOT
TORSDOF 0
ENDMDL
MODEL 17
REMARK VINA RESULT:      -5.7     17.069     17.690
REMARK  0 active torsions:
REMARK  status: ('A' for Active; 'I' for Inactive)
ROOT
HETATM    1  C   LIG     1      29.107  28.302  29.966  1.00  0.00    -0.013 A 
HETATM    2  C   LIG     1      29.825  28.355  28.777  1.00  0.00     0.014 A 
HETATM    3  C   LIG     1      29.559  27.397  27.795  1.00  0.00     0.013 A 
HETATM    4  C   LIG     1      28.592  26.391  28.012  1.00  0.00    -0.025 A 
HETATM    5  C   LIG     1      27.863  26.337  29.239  1.00  0.00    -0.014 A 
HETATM    6  C   LIG     1      26.935  25.296  29.426  1.00  0.00     0.013 A 
HETATM    7  C   LIG     1      26.714  24.351  28.421  1.00  0.00     0.001 A 
HETATM    8  C   LIG     1      27.416  24.421  27.219  1.00  0.00     0.001 A 
HETATM    9  C   LIG     1      28.354  25.433  27.013  1.00  0.00     0.012 A 
HETATM   10  C   LIG     1      28.129  27.331  30.210  1.00  0.00    -0.003 A 
HETATM   11  C   LIG     1      27.579  27.630  31.563  1.00  0.00    -0.012 A 
HETATM   12  C   LIG     1      28.271  28.728  32.021  1.00  0.00    -0.004 A 
HETATM   13  C   LIG     1      28.046  29.337  33.249  1.00  0.00    -0.024 A 
HETATM   14  C   LIG     1      28.827  30.462  33.576  1.00  0.00     0.012 A 
HETATM   15  C   LIG     1      29.795  30.937  32.657  1.00  0.00     0.002 A 
HETATM   16  C   LIG     1      29.984  30.296  31.412  1.00  0.00     0.013 A 
HETATM   17  C   LIG     1      29.195  29.180  31.124  1.00  0.00    -0.013 A 
HETATM   18  C   LIG     1      27.047  28.794  34.071  1.00  0.00     0.012 A 
HETATM   19  C   LIG     1      26.306  27.675  33.626  1.00  0.00     0.002 A 
HETATM   20  C   LIG     1      26.560  27.089  32.365  1.00  0.00     0.013 A 
ENDROOT
TORSDOF 0
ENDMDL
MODEL 18
REMARK VINA RESULT:      -5.7     15.256     16.389
REMARK  0 active torsions:
REMARK  status: ('A' for Active; 'I' for Inactive)
ROOT
HETATM    1  C   LIG     1      26.652  23.558  22.832  1.00  0.00    -0.013 A 
HETATM    2  C   LIG     1      27.801  24.253  23.192  1.00  0.00     0.014 A 
HETATM    3  C   LIG     1      28.459  25.004  22.214  1.00  0.00     0.013 A 
HETATM    4  C   LIG     1      27.975  25.044  20.888  1.00  0.00    -0.025 A 
HETATM    5  C   LIG     1      26.798  24.322  20.522  1.00  0.00    -0.014 A 
HETATM    6  C   LIG     1      26.371  24.362  19.183  1.00  0.00     0.013 A 
HETATM    7  C   LIG     1      27.071  25.114  18.235  1.00  0.00     0.001 A 
HETATM    8  C   LIG     1      28.208  25.832  18.604  1.00  0.00     0.001 A 
HETATM    9  C   LIG     1      28.663  25.796  19.922  1.00  0.00     0.012 A 
HETATM   10  C   LIG     1      26.132  23.588  21.533  1.00  0.00    -0.003 A 
HETATM   11  C   LIG     1      24.897  22.754  21.563  1.00  0.00    -0.012 A 
HETATM   12  C   LIG     1      24.786  22.284  22.852  1.00  0.00    -0.004 A 
HETATM   13  C   LIG     1      23.753  21.474  23.302  1.00  0.00    -0.024 A 
HETATM   14  C   LIG     1      23.768  21.081  24.655  1.00  0.00     0.012 A 
HETATM   15  C   LIG     1      24.814  21.523  25.503  1.00  0.00     0.002 A 
HETATM   16  C   LIG     1      25.841  22.356  25.008  1.00  0.00     0.013 A 
HETATM   17  C   LIG     1      25.795  22.722  23.661  1.00  0.00    -0.013 A 
HETATM   18  C   LIG     1      22.758  21.114  22.380  1.00  0.00     0.012 A 
HETATM   19  C   LIG     1      22.832  21.592  21.051  1.00  0.00     0.002 A 
HETATM   20  C   LIG     1      23.897  22.421  20.633  1.00  0.00     0.013 A 
ENDROOT
TORSDOF 0
ENDMDL
MODEL 19
REMARK VINA RESULT:      -5.6     15.893     17.563
REMARK  0 active torsions:
REMARK  status: ('A' for Active; 'I' for Inactive)
ROOT
HETATM    1  C   LIG     1      24.251  21.414  26.196  1.00  0.00    -0.013 A 
HETATM    2  C   LIG     1      24.430  21.401  27.574  1.00  0.00     0.014 A 
HETATM    3  C   LIG     1      25.302  22.334  28.142  1.00  0.00     0.013 A 
HETATM    4  C   LIG     1      25.995  23.259  27.331  1.00  0.00    -0.025 A 
HETATM    5  C   LIG     1      25.813  23.263  25.915  1.00  0.00    -0.014 A 
HETATM    6  C   LIG     1      26.551  24.179  25.143  1.00  0.00     0.013 A 
HETATM    7  C   LIG     1      27.424  25.083  25.753  1.00  0.00     0.001 A 
HETATM    8  C   LIG     1      27.582  25.086  27.139  1.00  0.00     0.001 A 
HETATM    9  C   LIG     1      26.876  24.177  27.926  1.00  0.00     0.012 A 
HETATM   10  C   LIG     1      24.907  22.327  25.362  1.00  0.00    -0.003 A 
HETATM   11  C   LIG     1      24.432  22.039  23.979  1.00  0.00    -0.012 A 
HETATM   12  C   LIG     1      23.556  20.982  24.090  1.00  0.00    -0.004 A 
HETATM   13  C   LIG     1      22.878  20.414  23.020  1.00  0.00    -0.024 A 
HETATM   14  C   LIG     1      22.004  19.343  23.291  1.00  0.00     0.012 A 
HETATM   15  C   LIG     1      21.840  18.890  24.623  1.00  0.00     0.002 A 
HETATM   16  C   LIG     1      22.541  19.504  25.685  1.00  0.00     0.013 A 
HETATM   17  C   LIG     1      23.401  20.559  25.378  1.00  0.00    -0.013 A 
HETATM   18  C   LIG     1      23.101  20.957  21.745  1.00  0.00     0.012 A 
HETATM   19  C   LIG     1      23.982  22.053  21.597  1.00  0.00     0.002 A 
HETATM   20  C   LIG     1      24.648  22.608  22.712  1.00  0.00     0.013 A 
ENDROOT
TORSDOF 0
ENDMDL
MODEL 20
REMARK VINA RESULT:      -5.6     16.058     16.387
REMARK  0 active torsions:
REMARK  status: ('A' for Active; 'I' for Inactive)
ROOT
HETATM    1  C   LIG     1      25.293  22.835  26.191  1.00  0.00    -0.013 A 
HETATM    2  C   LIG     1      24.269  21.999  26.623  1.00  0.00     0.014 A 
HETATM    3  C   LIG     1      23.531  21.300  25.664  1.00  0.00     0.013 A 
HETATM    4  C   LIG     1      23.811  21.451  24.288  1.00  0.00    -0.025 A 
HETATM    5  C   LIG     1      24.858  22.317  23.850  1.00  0.00    -0.014 A 
HETATM    6  C   LIG     1      25.079  22.464  22.469  1.00  0.00     0.013 A 
HETATM    7  C   LIG     1      24.304  21.757  21.546  1.00  0.00     0.001 A 
HETATM    8  C   LIG     1      23.295  20.898  21.981  1.00  0.00     0.001 A 
HETATM    9  C   LIG     1      23.044  20.747  23.345  1.00  0.00     0.012 A 
HETATM   10  C   LIG     1      25.610  22.996  24.838  1.00  0.00    -0.003 A 
HETATM   11  C   LIG     1      26.766  23.936  24.794  1.00  0.00    -0.012 A 
HETATM   12  C   LIG     1      27.035  24.271  26.102  1.00  0.00    -0.004 A 
HETATM   13  C   LIG     1      28.058  25.122  26.497  1.00  0.00    -0.024 A 
HETATM   14  C   LIG     1      28.217  25.362  27.875  1.00  0.00     0.012 A 
HETATM   15  C   LIG     1      27.350  24.734  28.803  1.00  0.00     0.002 A 
HETATM   16  C   LIG     1      26.329  23.865  28.360  1.00  0.00     0.013 A 
HETATM   17  C   LIG     1      26.198  23.654  26.986  1.00  0.00    -0.013 A 
HETATM   18  C   LIG     1      28.870  25.674  25.494  1.00  0.00     0.012 A 
HETATM   19  C   LIG     1      28.633  25.339  24.140  1.00  0.00     0.002 A 
HETATM   20  C   LIG     1      27.585  24.462  23.780  1.00  0.00     0.013 A 
ENDROOT
TORSDOF 0
ENDMDL
