REMARK  0 active torsions:
REMARK  status: ('A' for Active; 'I' for Inactive)
ROOT
HETATM    1  C   LIG     1       0.125  -1.290   0.055  1.00  0.00    -0.013 A 
HETATM    2  C   LIG     1       1.080  -2.300   0.078  1.00  0.00     0.014 A 
HETATM    3  C   LIG     1       2.429  -1.943   0.002  1.00  0.00     0.013 A 
HETATM    4  C   LIG     1       2.811  -0.588  -0.110  1.00  0.00    -0.025 A 
HETATM    5  C   LIG     1       1.825   0.445  -0.141  1.00  0.00    -0.014 A 
HETATM    6  C   LIG     1       2.249   1.778  -0.289  1.00  0.00     0.013 A 
HETATM    7  C   LIG     1       3.609   2.086  -0.378  1.00  0.00     0.001 A 
HETATM    8  C   LIG     1       4.567   1.074  -0.328  1.00  0.00     0.001 A 
HETATM    9  C   LIG     1       4.173  -0.258  -0.199  1.00  0.00     0.012 A 
HETATM   10  C   LIG     1       0.466   0.064  -0.037  1.00  0.00    -0.003 A 
HETATM   11  C   LIG     1      -0.820   0.817  -0.002  1.00  0.00    -0.012 A 
HETATM   12  C   LIG     1      -1.814  -0.131   0.090  1.00  0.00    -0.004 A 
HETATM   13  C   LIG     1      -3.169   0.162   0.163  1.00  0.00    -0.024 A 
HETATM   14  C   LIG     1      -4.069  -0.916   0.265  1.00  0.00     0.012 A 
HETATM   15  C   LIG     1      -3.575  -2.244   0.298  1.00  0.00     0.002 A 
HETATM   16  C   LIG     1      -2.187  -2.498   0.233  1.00  0.00     0.013 A 
HETATM   17  C   LIG     1      -1.325  -1.405   0.128  1.00  0.00    -0.013 A 
HETATM   18  C   LIG     1      -3.545   1.514   0.143  1.00  0.00     0.012 A 
HETATM   19  C   LIG     1      -2.549   2.515   0.065  1.00  0.00     0.002 A 
HETATM   20  C   LIG     1      -1.179   2.176   0.000  1.00  0.00     0.013 A 
ENDROOT
TORSDOF 0
