REMARK  1 active torsions:
REMARK  status: ('A' for Active; 'I' for Inactive)
REMARK    1  A    between atoms: C_6  and  C_7 
ROOT
HETATM    1 CL   LIG     1       4.094   2.000  -0.782  1.00  0.00    -0.084 Cl
HETATM    2  C   LIG     1       3.001   0.700  -0.344  1.00  0.00     0.034 A 
HETATM    3  C   LIG     1       3.511  -0.558  -0.010  1.00  0.00     0.024 A 
HETATM    4  C   LIG     1       2.642  -1.595   0.335  1.00  0.00     0.003 A 
HETATM    5  C   LIG     1       1.261  -1.379   0.346  1.00  0.00     0.012 A 
HETATM    6  C   LIG     1       0.734  -0.117   0.012  1.00  0.00    -0.024 A 
HETATM    7  C   LIG     1       1.619   0.921  -0.334  1.00  0.00     0.036 A 
ENDROOT
BRANCH   6   8
HETATM    8  C   LIG     1      -0.734   0.115   0.024  1.00  0.00    -0.024 A 
HETATM    9  C   LIG     1      -1.264   1.317   0.529  1.00  0.00     0.012 A 
HETATM   10  C   LIG     1      -2.645   1.533   0.540  1.00  0.00     0.003 A 
HETATM   11  C   LIG     1      -3.511   0.555   0.047  1.00  0.00     0.024 A 
HETATM   12  C   LIG     1      -2.999  -0.643  -0.458  1.00  0.00     0.034 A 
HETATM   13  C   LIG     1      -1.617  -0.864  -0.470  1.00  0.00     0.036 A 
HETATM   14 CL   LIG     1      -4.089  -1.868  -1.081  1.00  0.00    -0.084 Cl
ENDBRANCH   6   8
TORSDOF 1
