MODEL 1
REMARK VINA RESULT:      -6.9      0.000      0.000
REMARK  1 active torsions:
REMARK  status: ('A' for Active; 'I' for Inactive)
REMARK    1  A    between atoms: C_6  and  C_7 
ROOT
HETATM    1 CL   LIG     1      17.709  34.879  26.034  1.00  0.00    -0.084 Cl
HETATM    2  C   LIG     1      17.285  35.720  24.555  1.00  0.00     0.034 A 
HETATM    3  C   LIG     1      17.343  37.116  24.504  1.00  0.00     0.024 A 
HETATM    4  C   LIG     1      17.002  37.787  23.328  1.00  0.00     0.003 A 
HETATM    5  C   LIG     1      16.600  37.067  22.200  1.00  0.00     0.012 A 
HETATM    6  C   LIG     1      16.537  35.661  22.237  1.00  0.00    -0.024 A 
HETATM    7  C   LIG     1      16.883  34.994  23.427  1.00  0.00     0.036 A 
ENDROOT
BRANCH   6   8
HETATM    8  C   LIG     1      16.110  34.893  21.038  1.00  0.00    -0.024 A 
HETATM    9  C   LIG     1      16.128  35.489  19.764  1.00  0.00     0.012 A 
HETATM   10  C   LIG     1      15.726  34.765  18.637  1.00  0.00     0.003 A 
HETATM   11  C   LIG     1      15.304  33.440  18.770  1.00  0.00     0.024 A 
HETATM   12  C   LIG     1      15.282  32.835  20.029  1.00  0.00     0.034 A 
HETATM   13  C   LIG     1      15.683  33.557  21.160  1.00  0.00     0.036 A 
HETATM   14 CL   LIG     1      14.757  31.169  20.192  1.00  0.00    -0.084 Cl
ENDBRANCH   6   8
TORSDOF 1
ENDMDL
MODEL 2
REMARK VINA RESULT:      -6.8      2.288      2.705
REMARK  1 active torsions:
REMARK  status: ('A' for Active; 'I' for Inactive)
REMARK    1  A    between atoms: C_6  and  C_7 
ROOT
HETATM    1 CL   LIG     1      19.412  38.404  20.294  1.00  0.00    -0.084 Cl
HETATM    2  C   LIG     1      18.011  37.510  20.854  1.00  0.00     0.034 A 
HETATM    3  C   LIG     1      17.394  37.862  22.058  1.00  0.00     0.024 A 
HETATM    4  C   LIG     1      16.281  37.148  22.507  1.00  0.00     0.003 A 
HETATM    5  C   LIG     1      15.782  36.080  21.756  1.00  0.00     0.012 A 
HETATM    6  C   LIG     1      16.393  35.716  20.542  1.00  0.00    -0.024 A 
HETATM    7  C   LIG     1      17.514  36.442  20.098  1.00  0.00     0.036 A 
ENDROOT
BRANCH   6   8
HETATM    8  C   LIG     1      15.863  34.581  19.741  1.00  0.00    -0.024 A 
HETATM    9  C   LIG     1      15.577  34.744  18.372  1.00  0.00     0.012 A 
HETATM   10  C   LIG     1      15.078  33.676  17.621  1.00  0.00     0.003 A 
HETATM   11  C   LIG     1      14.861  32.436  18.225  1.00  0.00     0.024 A 
HETATM   12  C   LIG     1      15.142  32.259  19.582  1.00  0.00     0.034 A 
HETATM   13  C   LIG     1      15.640  33.326  20.339  1.00  0.00     0.036 A 
HETATM   14 CL   LIG     1      14.872  30.699  20.337  1.00  0.00    -0.084 Cl
ENDBRANCH   6   8
TORSDOF 1
ENDMDL
MODEL 3
REMARK VINA RESULT:      -6.8      1.579      2.461
REMARK  1 active torsions:
REMARK  status: ('A' for Active; 'I' for Inactive)
REMARK    1  A    between atoms: C_6  and  C_7 
ROOT
HETATM    1 CL   LIG     1      17.343  39.060  26.232  1.00  0.00    -0.084 Cl
HETATM    2  C   LIG     1      17.403  37.415  25.626  1.00  0.00     0.034 A 
HETATM    3  C   LIG     1      17.764  36.369  26.480  1.00  0.00     0.024 A 
HETATM    4  C   LIG     1      17.816  35.060  25.998  1.00  0.00     0.003 A 
HETATM    5  C   LIG     1      17.508  34.792  24.661  1.00  0.00     0.012 A 
HETATM    6  C   LIG     1      17.143  35.836  23.790  1.00  0.00    -0.024 A 
HETATM    7  C   LIG     1      17.094  37.151  24.287  1.00  0.00     0.036 A 
ENDROOT
BRANCH   6   8
HETATM    8  C   LIG     1      16.815  35.552  22.368  1.00  0.00    -0.024 A 
HETATM    9  C   LIG     1      17.221  36.436  21.351  1.00  0.00     0.012 A 
HETATM   10  C   LIG     1      16.910  36.168  20.015  1.00  0.00     0.003 A 
HETATM   11  C   LIG     1      16.194  35.017  19.679  1.00  0.00     0.024 A 
HETATM   12  C   LIG     1      15.785  34.131  20.678  1.00  0.00     0.034 A 
HETATM   13  C   LIG     1      16.093  34.396  22.018  1.00  0.00     0.036 A 
HETATM   14 CL   LIG     1      14.890  32.684  20.253  1.00  0.00    -0.084 Cl
ENDBRANCH   6   8
TORSDOF 1
ENDMDL
MODEL 4
REMARK VINA RESULT:      -6.8      2.440      3.334
REMARK  1 active torsions:
REMARK  status: ('A' for Active; 'I' for Inactive)
REMARK    1  A    between atoms: C_6  and  C_7 
ROOT
HETATM    1 CL   LIG     1      17.378  39.027  26.399  1.00  0.00    -0.084 Cl
HETATM    2  C   LIG     1      17.411  37.407  25.728  1.00  0.00     0.034 A 
HETATM    3  C   LIG     1      17.711  36.317  26.550  1.00  0.00     0.024 A 
HETATM    4  C   LIG     1      17.742  35.027  26.016  1.00  0.00     0.003 A 
HETATM    5  C   LIG     1      17.474  34.822  24.660  1.00  0.00     0.012 A 
HETATM    6  C   LIG     1      17.169  35.911  23.821  1.00  0.00    -0.024 A 
HETATM    7  C   LIG     1      17.141  37.207  24.369  1.00  0.00     0.036 A 
ENDROOT
BRANCH   6   8
HETATM    8  C   LIG     1      16.883  35.695  22.378  1.00  0.00    -0.024 A 
HETATM    9  C   LIG     1      15.842  34.838  21.976  1.00  0.00     0.012 A 
HETATM   10  C   LIG     1      15.574  34.636  20.619  1.00  0.00     0.003 A 
HETATM   11  C   LIG     1      16.340  35.286  19.650  1.00  0.00     0.024 A 
HETATM   12  C   LIG     1      17.377  36.140  20.034  1.00  0.00     0.034 A 
HETATM   13  C   LIG     1      17.649  36.345  21.392  1.00  0.00     0.036 A 
HETATM   14 CL   LIG     1      18.335  36.959  18.814  1.00  0.00    -0.084 Cl
ENDBRANCH   6   8
TORSDOF 1
ENDMDL
MODEL 5
REMARK VINA RESULT:      -6.7      6.666     10.292
REMARK  1 active torsions:
REMARK  status: ('A' for Active; 'I' for Inactive)
REMARK    1  A    between atoms: C_6  and  C_7 
ROOT
HETATM    1 CL   LIG     1      16.348  26.781  12.323  1.00  0.00    -0.084 Cl
HETATM    2  C   LIG     1      15.085  27.675  13.151  1.00  0.00     0.034 A 
HETATM    3  C   LIG     1      13.773  27.193  13.149  1.00  0.00     0.024 A 
HETATM    4  C   LIG     1      12.766  27.905  13.804  1.00  0.00     0.003 A 
HETATM    5  C   LIG     1      13.067  29.101  14.461  1.00  0.00     0.012 A 
HETATM    6  C   LIG     1      14.384  29.598  14.472  1.00  0.00    -0.024 A 
HETATM    7  C   LIG     1      15.391  28.872  13.808  1.00  0.00     0.036 A 
ENDROOT
BRANCH   6   8
HETATM    8  C   LIG     1      14.706  30.869  15.171  1.00  0.00    -0.024 A 
HETATM    9  C   LIG     1      13.924  31.306  16.257  1.00  0.00     0.012 A 
HETATM   10  C   LIG     1      14.228  32.502  16.913  1.00  0.00     0.003 A 
HETATM   11  C   LIG     1      15.314  33.273  16.495  1.00  0.00     0.024 A 
HETATM   12  C   LIG     1      16.100  32.852  15.420  1.00  0.00     0.034 A 
HETATM   13  C   LIG     1      15.798  31.655  14.759  1.00  0.00     0.036 A 
HETATM   14 CL   LIG     1      17.467  33.821  14.900  1.00  0.00    -0.084 Cl
ENDBRANCH   6   8
TORSDOF 1
ENDMDL
MODEL 6
REMARK VINA RESULT:      -6.6      6.583     10.345
REMARK  1 active torsions:
REMARK  status: ('A' for Active; 'I' for Inactive)
REMARK    1  A    between atoms: C_6  and  C_7 
ROOT
HETATM    1 CL   LIG     1      11.208  27.478  13.013  1.00  0.00    -0.084 Cl
HETATM    2  C   LIG     1      12.840  27.958  13.440  1.00  0.00     0.034 A 
HETATM    3  C   LIG     1      13.922  27.150  13.080  1.00  0.00     0.024 A 
HETATM    4  C   LIG     1      15.221  27.529  13.422  1.00  0.00     0.003 A 
HETATM    5  C   LIG     1      15.443  28.716  14.127  1.00  0.00     0.012 A 
HETATM    6  C   LIG     1      14.362  29.539  14.495  1.00  0.00    -0.024 A 
HETATM    7  C   LIG     1      13.057  29.148  14.144  1.00  0.00     0.036 A 
ENDROOT
BRANCH   6   8
HETATM    8  C   LIG     1      14.596  30.802  15.243  1.00  0.00    -0.024 A 
HETATM    9  C   LIG     1      13.760  31.164  16.315  1.00  0.00     0.012 A 
HETATM   10  C   LIG     1      13.981  32.352  17.017  1.00  0.00     0.003 A 
HETATM   11  C   LIG     1      15.038  33.191  16.659  1.00  0.00     0.024 A 
HETATM   12  C   LIG     1      15.878  32.844  15.597  1.00  0.00     0.034 A 
HETATM   13  C   LIG     1      15.659  31.656  14.891  1.00  0.00     0.036 A 
HETATM   14 CL   LIG     1      17.208  33.898  15.152  1.00  0.00    -0.084 Cl
ENDBRANCH   6   8
TORSDOF 1
ENDMDL
MODEL 7
REMARK VINA RESULT:      -6.6      6.619      9.106
REMARK  1 active torsions:
REMARK  status: ('A' for Active; 'I' for Inactive)
REMARK    1  A    between atoms: C_6  and  C_7 
ROOT
HETATM    1 CL   LIG     1      17.169  33.823  15.223  1.00  0.00    -0.084 Cl
HETATM    2  C   LIG     1      15.833  32.756  15.615  1.00  0.00     0.034 A 
HETATM    3  C   LIG     1      14.955  33.089  16.651  1.00  0.00     0.024 A 
HETATM    4  C   LIG     1      13.893  32.238  16.966  1.00  0.00     0.003 A 
HETATM    5  C   LIG     1      13.707  31.053  16.250  1.00  0.00     0.012 A 
HETATM    6  C   LIG     1      14.584  30.706  15.204  1.00  0.00    -0.024 A 
HETATM    7  C   LIG     1      15.650  31.571  14.894  1.00  0.00     0.036 A 
ENDROOT
BRANCH   6   8
HETATM    8  C   LIG     1      14.386  29.447  14.440  1.00  0.00    -0.024 A 
HETATM    9  C   LIG     1      15.492  28.684  14.021  1.00  0.00     0.012 A 
HETATM   10  C   LIG     1      15.305  27.500  13.302  1.00  0.00     0.003 A 
HETATM   11  C   LIG     1      14.014  27.064  12.995  1.00  0.00     0.024 A 
HETATM   12  C   LIG     1      12.907  27.810  13.405  1.00  0.00     0.034 A 
HETATM   13  C   LIG     1      13.090  28.997  14.125  1.00  0.00     0.036 A 
HETATM   14 CL   LIG     1      11.287  27.257  13.023  1.00  0.00    -0.084 Cl
ENDBRANCH   6   8
TORSDOF 1
ENDMDL
MODEL 8
REMARK VINA RESULT:      -6.5      6.711      9.051
REMARK  1 active torsions:
REMARK  status: ('A' for Active; 'I' for Inactive)
REMARK    1  A    between atoms: C_6  and  C_7 
ROOT
HETATM    1 CL   LIG     1      17.754  33.834  14.660  1.00  0.00    -0.084 Cl
HETATM    2  C   LIG     1      16.386  32.918  15.264  1.00  0.00     0.034 A 
HETATM    3  C   LIG     1      15.671  33.380  16.373  1.00  0.00     0.024 A 
HETATM    4  C   LIG     1      14.584  32.649  16.857  1.00  0.00     0.003 A 
HETATM    5  C   LIG     1      14.209  31.455  16.236  1.00  0.00     0.012 A 
HETATM    6  C   LIG     1      14.919  30.978  15.119  1.00  0.00    -0.024 A 
HETATM    7  C   LIG     1      16.013  31.722  14.639  1.00  0.00     0.036 A 
ENDROOT
BRANCH   6   8
HETATM    8  C   LIG     1      14.521  29.708  14.456  1.00  0.00    -0.024 A 
HETATM    9  C   LIG     1      13.184  29.270  14.496  1.00  0.00     0.012 A 
HETATM   10  C   LIG     1      12.812  28.075  13.873  1.00  0.00     0.003 A 
HETATM   11  C   LIG     1      13.766  27.307  13.204  1.00  0.00     0.024 A 
HETATM   12  C   LIG     1      15.097  27.730  13.155  1.00  0.00     0.034 A 
HETATM   13  C   LIG     1      15.475  28.925  13.779  1.00  0.00     0.036 A 
HETATM   14 CL   LIG     1      16.293  26.766  12.310  1.00  0.00    -0.084 Cl
ENDBRANCH   6   8
TORSDOF 1
ENDMDL
MODEL 9
REMARK VINA RESULT:      -6.5      2.556      5.927
REMARK  1 active torsions:
REMARK  status: ('A' for Active; 'I' for Inactive)
REMARK    1  A    between atoms: C_6  and  C_7 
ROOT
HETATM    1 CL   LIG     1      15.180  33.561  16.310  1.00  0.00    -0.084 Cl
HETATM    2  C   LIG     1      15.298  33.537  18.060  1.00  0.00     0.034 A 
HETATM    3  C   LIG     1      14.955  32.381  18.767  1.00  0.00     0.024 A 
HETATM    4  C   LIG     1      15.044  32.362  20.160  1.00  0.00     0.003 A 
HETATM    5  C   LIG     1      15.475  33.497  20.852  1.00  0.00     0.012 A 
HETATM    6  C   LIG     1      15.824  34.668  20.152  1.00  0.00    -0.024 A 
HETATM    7  C   LIG     1      15.730  34.677  18.748  1.00  0.00     0.036 A 
ENDROOT
BRANCH   6   8
HETATM    8  C   LIG     1      16.284  35.877  20.885  1.00  0.00    -0.024 A 
HETATM    9  C   LIG     1      15.577  36.343  22.010  1.00  0.00     0.012 A 
HETATM   10  C   LIG     1      16.010  37.480  22.698  1.00  0.00     0.003 A 
HETATM   11  C   LIG     1      17.152  38.163  22.273  1.00  0.00     0.024 A 
HETATM   12  C   LIG     1      17.864  37.711  21.159  1.00  0.00     0.034 A 
HETATM   13  C   LIG     1      17.433  36.574  20.466  1.00  0.00     0.036 A 
HETATM   14 CL   LIG     1      19.300  38.569  20.630  1.00  0.00    -0.084 Cl
ENDBRANCH   6   8
TORSDOF 1
ENDMDL
MODEL 10
REMARK VINA RESULT:      -6.5      3.009      3.658
REMARK  1 active torsions:
REMARK  status: ('A' for Active; 'I' for Inactive)
REMARK    1  A    between atoms: C_6  and  C_7 
ROOT
HETATM    1 CL   LIG     1      20.639  38.802  19.159  1.00  0.00    -0.084 Cl
HETATM    2  C   LIG     1      19.343  38.435  20.282  1.00  0.00     0.034 A 
HETATM    3  C   LIG     1      19.106  39.277  21.373  1.00  0.00     0.024 A 
HETATM    4  C   LIG     1      18.077  38.984  22.270  1.00  0.00     0.003 A 
HETATM    5  C   LIG     1      17.282  37.849  22.081  1.00  0.00     0.012 A 
HETATM    6  C   LIG     1      17.510  36.994  20.987  1.00  0.00    -0.024 A 
HETATM    7  C   LIG     1      18.550  37.299  20.089  1.00  0.00     0.036 A 
ENDROOT
BRANCH   6   8
HETATM    8  C   LIG     1      16.666  35.788  20.783  1.00  0.00    -0.024 A 
HETATM    9  C   LIG     1      16.150  35.081  21.886  1.00  0.00     0.012 A 
HETATM   10  C   LIG     1      15.357  33.947  21.693  1.00  0.00     0.003 A 
HETATM   11  C   LIG     1      15.069  33.505  20.400  1.00  0.00     0.024 A 
HETATM   12  C   LIG     1      15.573  34.197  19.296  1.00  0.00     0.034 A 
HETATM   13  C   LIG     1      16.369  35.333  19.484  1.00  0.00     0.036 A 
HETATM   14 CL   LIG     1      15.206  33.643  17.672  1.00  0.00    -0.084 Cl
ENDBRANCH   6   8
TORSDOF 1
ENDMDL
MODEL 11
REMARK VINA RESULT:      -6.2      3.831      5.909
REMARK  1 active torsions:
REMARK  status: ('A' for Active; 'I' for Inactive)
REMARK    1  A    between atoms: C_6  and  C_7 
ROOT
HETATM    1 CL   LIG     1      15.879  35.615  20.133  1.00  0.00    -0.084 Cl
HETATM    2  C   LIG     1      15.408  33.986  19.686  1.00  0.00     0.034 A 
HETATM    3  C   LIG     1      14.999  33.082  20.671  1.00  0.00     0.024 A 
HETATM    4  C   LIG     1      14.627  31.784  20.317  1.00  0.00     0.003 A 
HETATM    5  C   LIG     1      14.664  31.384  18.979  1.00  0.00     0.012 A 
HETATM    6  C   LIG     1      15.074  32.283  17.976  1.00  0.00    -0.024 A 
HETATM    7  C   LIG     1      15.446  33.590  18.344  1.00  0.00     0.036 A 
ENDROOT
BRANCH   6   8
HETATM    8  C   LIG     1      15.113  31.860  16.552  1.00  0.00    -0.024 A 
HETATM    9  C   LIG     1      16.011  32.461  15.652  1.00  0.00     0.012 A 
HETATM   10  C   LIG     1      16.046  32.062  14.312  1.00  0.00     0.003 A 
HETATM   11  C   LIG     1      15.187  31.059  13.858  1.00  0.00     0.024 A 
HETATM   12  C   LIG     1      14.290  30.453  14.741  1.00  0.00     0.034 A 
HETATM   13  C   LIG     1      14.251  30.850  16.082  1.00  0.00     0.036 A 
HETATM   14 CL   LIG     1      13.216  29.190  14.168  1.00  0.00    -0.084 Cl
ENDBRANCH   6   8
TORSDOF 1
ENDMDL
MODEL 12
REMARK VINA RESULT:      -6.2      3.834      7.895
REMARK  1 active torsions:
REMARK  status: ('A' for Active; 'I' for Inactive)
REMARK    1  A    between atoms: C_6  and  C_7 
ROOT
HETATM    1 CL   LIG     1      13.338  29.146  14.150  1.00  0.00    -0.084 Cl
HETATM    2  C   LIG     1      14.369  30.453  14.704  1.00  0.00     0.034 A 
HETATM    3  C   LIG     1      15.240  31.082  13.810  1.00  0.00     0.024 A 
HETATM    4  C   LIG     1      16.064  32.120  14.251  1.00  0.00     0.003 A 
HETATM    5  C   LIG     1      16.021  32.531  15.586  1.00  0.00     0.012 A 
HETATM    6  C   LIG     1      15.147  31.907  16.497  1.00  0.00    -0.024 A 
HETATM    7  C   LIG     1      14.322  30.862  16.042  1.00  0.00     0.036 A 
ENDROOT
BRANCH   6   8
HETATM    8  C   LIG     1      15.099  32.344  17.916  1.00  0.00    -0.024 A 
HETATM    9  C   LIG     1      14.628  31.474  18.917  1.00  0.00     0.012 A 
HETATM   10  C   LIG     1      14.583  31.887  20.252  1.00  0.00     0.003 A 
HETATM   11  C   LIG     1      15.007  33.170  20.603  1.00  0.00     0.024 A 
HETATM   12  C   LIG     1      15.478  34.044  19.620  1.00  0.00     0.034 A 
HETATM   13  C   LIG     1      15.524  33.635  18.282  1.00  0.00     0.036 A 
HETATM   14 CL   LIG     1      16.015  35.654  20.064  1.00  0.00    -0.084 Cl
ENDBRANCH   6   8
TORSDOF 1
ENDMDL
MODEL 13
REMARK VINA RESULT:      -6.2      1.926      2.598
REMARK  1 active torsions:
REMARK  status: ('A' for Active; 'I' for Inactive)
REMARK    1  A    between atoms: C_6  and  C_7 
ROOT
HETATM    1 CL   LIG     1      16.436  37.890  24.336  1.00  0.00    -0.084 Cl
HETATM    2  C   LIG     1      16.936  37.426  22.719  1.00  0.00     0.034 A 
HETATM    3  C   LIG     1      17.920  38.164  22.055  1.00  0.00     0.024 A 
HETATM    4  C   LIG     1      18.316  37.799  20.767  1.00  0.00     0.003 A 
HETATM    5  C   LIG     1      17.730  36.696  20.138  1.00  0.00     0.012 A 
HETATM    6  C   LIG     1      16.738  35.945  20.796  1.00  0.00    -0.024 A 
HETATM    7  C   LIG     1      16.346  36.322  22.094  1.00  0.00     0.036 A 
ENDROOT
BRANCH   6   8
HETATM    8  C   LIG     1      16.113  34.772  20.130  1.00  0.00    -0.024 A 
HETATM    9  C   LIG     1      15.727  33.645  20.879  1.00  0.00     0.012 A 
HETATM   10  C   LIG     1      15.141  32.543  20.251  1.00  0.00     0.003 A 
HETATM   11  C   LIG     1      14.932  32.553  18.870  1.00  0.00     0.024 A 
HETATM   12  C   LIG     1      15.310  33.665  18.113  1.00  0.00     0.034 A 
HETATM   13  C   LIG     1      15.898  34.771  18.738  1.00  0.00     0.036 A 
HETATM   14 CL   LIG     1      15.042  33.677  16.380  1.00  0.00    -0.084 Cl
ENDBRANCH   6   8
TORSDOF 1
ENDMDL
MODEL 14
REMARK VINA RESULT:      -6.2      1.866      5.723
REMARK  1 active torsions:
REMARK  status: ('A' for Active; 'I' for Inactive)
REMARK    1  A    between atoms: C_6  and  C_7 
ROOT
HETATM    1 CL   LIG     1      15.002  34.204  16.694  1.00  0.00    -0.084 Cl
HETATM    2  C   LIG     1      15.365  34.091  18.406  1.00  0.00     0.034 A 
HETATM    3  C   LIG     1      15.066  32.919  19.107  1.00  0.00     0.024 A 
HETATM    4  C   LIG     1      15.351  32.829  20.471  1.00  0.00     0.003 A 
HETATM    5  C   LIG     1      15.935  33.909  21.139  1.00  0.00     0.012 A 
HETATM    6  C   LIG     1      16.242  35.095  20.445  1.00  0.00    -0.024 A 
HETATM    7  C   LIG     1      15.951  35.175  19.070  1.00  0.00     0.036 A 
ENDROOT
BRANCH   6   8
HETATM    8  C   LIG     1      16.864  36.244  21.153  1.00  0.00    -0.024 A 
HETATM    9  C   LIG     1      17.742  37.111  20.476  1.00  0.00     0.012 A 
HETATM   10  C   LIG     1      18.327  38.191  21.144  1.00  0.00     0.003 A 
HETATM   11  C   LIG     1      18.042  38.418  22.491  1.00  0.00     0.024 A 
HETATM   12  C   LIG     1      17.171  37.566  23.176  1.00  0.00     0.034 A 
HETATM   13  C   LIG     1      16.585  36.483  22.512  1.00  0.00     0.036 A 
HETATM   14 CL   LIG     1      16.811  37.857  24.868  1.00  0.00    -0.084 Cl
ENDBRANCH   6   8
TORSDOF 1
ENDMDL
MODEL 15
REMARK VINA RESULT:      -6.1      3.758      6.024
REMARK  1 active torsions:
REMARK  status: ('A' for Active; 'I' for Inactive)
REMARK    1  A    between atoms: C_6  and  C_7 
ROOT
HETATM    1 CL   LIG     1      16.208  35.643  20.167  1.00  0.00    -0.084 Cl
HETATM    2  C   LIG     1      15.578  34.072  19.708  1.00  0.00     0.034 A 
HETATM    3  C   LIG     1      15.044  33.223  20.682  1.00  0.00     0.024 A 
HETATM    4  C   LIG     1      14.546  31.970  20.319  1.00  0.00     0.003 A 
HETATM    5  C   LIG     1      14.582  31.560  18.983  1.00  0.00     0.012 A 
HETATM    6  C   LIG     1      15.118  32.406  17.992  1.00  0.00    -0.024 A 
HETATM    7  C   LIG     1      15.616  33.666  18.369  1.00  0.00     0.036 A 
ENDROOT
BRANCH   6   8
HETATM    8  C   LIG     1      15.156  31.973  16.571  1.00  0.00    -0.024 A 
HETATM    9  C   LIG     1      14.314  30.941  16.115  1.00  0.00     0.012 A 
HETATM   10  C   LIG     1      14.352  30.535  14.778  1.00  0.00     0.003 A 
HETATM   11  C   LIG     1      15.227  31.153  13.882  1.00  0.00     0.024 A 
HETATM   12  C   LIG     1      16.068  32.179  14.321  1.00  0.00     0.034 A 
HETATM   13  C   LIG     1      16.034  32.588  15.659  1.00  0.00     0.036 A 
HETATM   14 CL   LIG     1      17.163  32.957  13.193  1.00  0.00    -0.084 Cl
ENDBRANCH   6   8
TORSDOF 1
ENDMDL
MODEL 16
REMARK VINA RESULT:      -5.9      7.587      9.844
REMARK  1 active torsions:
REMARK  status: ('A' for Active; 'I' for Inactive)
REMARK    1  A    between atoms: C_6  and  C_7 
ROOT
HETATM    1 CL   LIG     1      15.048  27.268  12.874  1.00  0.00    -0.084 Cl
HETATM    2  C   LIG     1      14.626  28.712  13.776  1.00  0.00     0.034 A 
HETATM    3  C   LIG     1      13.435  28.755  14.508  1.00  0.00     0.024 A 
HETATM    4  C   LIG     1      13.096  29.905  15.223  1.00  0.00     0.003 A 
HETATM    5  C   LIG     1      13.944  31.016  15.208  1.00  0.00     0.012 A 
HETATM    6  C   LIG     1      15.145  30.987  14.475  1.00  0.00    -0.024 A 
HETATM    7  C   LIG     1      15.477  29.822  13.758  1.00  0.00     0.036 A 
ENDROOT
BRANCH   6   8
HETATM    8  C   LIG     1      16.048  32.167  14.459  1.00  0.00    -0.024 A 
HETATM    9  C   LIG     1      16.179  32.984  15.597  1.00  0.00     0.012 A 
HETATM   10  C   LIG     1      17.028  34.094  15.580  1.00  0.00     0.003 A 
HETATM   11  C   LIG     1      17.757  34.400  14.429  1.00  0.00     0.024 A 
HETATM   12  C   LIG     1      17.638  33.598  13.291  1.00  0.00     0.034 A 
HETATM   13  C   LIG     1      16.788  32.486  13.304  1.00  0.00     0.036 A 
HETATM   14 CL   LIG     1      18.558  33.982  11.848  1.00  0.00    -0.084 Cl
ENDBRANCH   6   8
TORSDOF 1
ENDMDL
MODEL 17
REMARK VINA RESULT:      -5.8      7.274      9.471
REMARK  1 active torsions:
REMARK  status: ('A' for Active; 'I' for Inactive)
REMARK    1  A    between atoms: C_6  and  C_7 
ROOT
HETATM    1 CL   LIG     1      22.143  34.272  12.998  1.00  0.00    -0.084 Cl
HETATM    2  C   LIG     1      20.452  34.256  12.533  1.00  0.00     0.034 A 
HETATM    3  C   LIG     1      20.058  34.816  11.315  1.00  0.00     0.024 A 
HETATM    4  C   LIG     1      18.712  34.808  10.945  1.00  0.00     0.003 A 
HETATM    5  C   LIG     1      17.755  34.242  11.792  1.00  0.00     0.012 A 
HETATM    6  C   LIG     1      18.138  33.674  13.022  1.00  0.00    -0.024 A 
HETATM    7  C   LIG     1      19.498  33.688  13.384  1.00  0.00     0.036 A 
ENDROOT
BRANCH   6   8
HETATM    8  C   LIG     1      17.122  33.070  13.923  1.00  0.00    -0.024 A 
HETATM    9  C   LIG     1      16.864  33.632  15.188  1.00  0.00     0.012 A 
HETATM   10  C   LIG     1      15.909  33.063  16.034  1.00  0.00     0.003 A 
HETATM   11  C   LIG     1      15.201  31.929  15.630  1.00  0.00     0.024 A 
HETATM   12  C   LIG     1      15.446  31.361  14.377  1.00  0.00     0.034 A 
HETATM   13  C   LIG     1      16.402  31.927  13.526  1.00  0.00     0.036 A 
HETATM   14 CL   LIG     1      14.551  29.940  13.869  1.00  0.00    -0.084 Cl
ENDBRANCH   6   8
TORSDOF 1
ENDMDL
MODEL 18
REMARK VINA RESULT:      -5.8      7.647      9.035
REMARK  1 active torsions:
REMARK  status: ('A' for Active; 'I' for Inactive)
REMARK    1  A    between atoms: C_6  and  C_7 
ROOT
HETATM    1 CL   LIG     1      18.929  33.668  11.936  1.00  0.00    -0.084 Cl
HETATM    2  C   LIG     1      17.853  33.447  13.303  1.00  0.00     0.034 A 
HETATM    3  C   LIG     1      17.871  34.362  14.360  1.00  0.00     0.024 A 
HETATM    4  C   LIG     1      17.018  34.185  15.451  1.00  0.00     0.003 A 
HETATM    5  C   LIG     1      16.146  33.093  15.491  1.00  0.00     0.012 A 
HETATM    6  C   LIG     1      16.117  32.165  14.433  1.00  0.00    -0.024 A 
HETATM    7  C   LIG     1      16.982  32.353  13.338  1.00  0.00     0.036 A 
ENDROOT
BRANCH   6   8
HETATM    8  C   LIG     1      15.190  31.004  14.472  1.00  0.00    -0.024 A 
HETATM    9  C   LIG     1      13.988  31.073  15.201  1.00  0.00     0.012 A 
HETATM   10  C   LIG     1      13.118  29.980  15.237  1.00  0.00     0.003 A 
HETATM   11  C   LIG     1      13.435  28.809  14.547  1.00  0.00     0.024 A 
HETATM   12  C   LIG     1      14.625  28.726  13.819  1.00  0.00     0.034 A 
HETATM   13  C   LIG     1      15.500  29.817  13.781  1.00  0.00     0.036 A 
HETATM   14 CL   LIG     1      15.019  27.254  12.949  1.00  0.00    -0.084 Cl
ENDBRANCH   6   8
TORSDOF 1
ENDMDL
MODEL 19
REMARK VINA RESULT:      -5.6      4.362      5.346
REMARK  1 active torsions:
REMARK  status: ('A' for Active; 'I' for Inactive)
REMARK    1  A    between atoms: C_6  and  C_7 
ROOT
HETATM    1 CL   LIG     1      17.104  38.293  24.977  1.00  0.00    -0.084 Cl
HETATM    2  C   LIG     1      17.255  37.510  23.415  1.00  0.00     0.034 A 
HETATM    3  C   LIG     1      16.672  36.257  23.204  1.00  0.00     0.024 A 
HETATM    4  C   LIG     1      16.794  35.630  21.962  1.00  0.00     0.003 A 
HETATM    5  C   LIG     1      17.500  36.252  20.928  1.00  0.00     0.012 A 
HETATM    6  C   LIG     1      18.092  37.513  21.127  1.00  0.00    -0.024 A 
HETATM    7  C   LIG     1      17.962  38.136  22.383  1.00  0.00     0.036 A 
ENDROOT
BRANCH   6   8
HETATM    8  C   LIG     1      18.842  38.177  20.029  1.00  0.00    -0.024 A 
HETATM    9  C   LIG     1      20.248  38.242  20.061  1.00  0.00     0.012 A 
HETATM   10  C   LIG     1      20.952  38.867  19.028  1.00  0.00     0.003 A 
HETATM   11  C   LIG     1      20.263  39.431  17.952  1.00  0.00     0.024 A 
HETATM   12  C   LIG     1      18.867  39.374  17.907  1.00  0.00     0.034 A 
HETATM   13  C   LIG     1      18.159  38.750  18.940  1.00  0.00     0.036 A 
HETATM   14 CL   LIG     1      18.005  40.081  16.553  1.00  0.00    -0.084 Cl
ENDBRANCH   6   8
TORSDOF 1
ENDMDL
MODEL 20
REMARK VINA RESULT:      -5.5      6.668      9.249
REMARK  1 active torsions:
REMARK  status: ('A' for Active; 'I' for Inactive)
REMARK    1  A    between atoms: C_6  and  C_7 
ROOT
HETATM    1 CL   LIG     1      15.297  33.701  17.545  1.00  0.00    -0.084 Cl
HETATM    2  C   LIG     1      15.690  32.982  15.994  1.00  0.00     0.034 A 
HETATM    3  C   LIG     1      15.028  31.825  15.573  1.00  0.00     0.024 A 
HETATM    4  C   LIG     1      15.343  31.250  14.341  1.00  0.00     0.003 A 
HETATM    5  C   LIG     1      16.321  31.827  13.526  1.00  0.00     0.012 A 
HETATM    6  C   LIG     1      16.995  32.993  13.937  1.00  0.00    -0.024 A 
HETATM    7  C   LIG     1      16.670  33.564  15.181  1.00  0.00     0.036 A 
ENDROOT
BRANCH   6   8
HETATM    8  C   LIG     1      18.034  33.609  13.072  1.00  0.00    -0.024 A 
HETATM    9  C   LIG     1      17.676  34.255  11.874  1.00  0.00     0.012 A 
HETATM   10  C   LIG     1      18.655  34.833  11.061  1.00  0.00     0.003 A 
HETATM   11  C   LIG     1      19.999  34.776  11.434  1.00  0.00     0.024 A 
HETATM   12  C   LIG     1      20.370  34.138  12.621  1.00  0.00     0.034 A 
HETATM   13  C   LIG     1      19.393  33.557  13.437  1.00  0.00     0.036 A 
HETATM   14 CL   LIG     1      22.059  34.071  13.089  1.00  0.00    -0.084 Cl
ENDBRANCH   6   8
TORSDOF 1
ENDMDL
