REMARK  1 active torsions:
REMARK  status: ('A' for Active; 'I' for Inactive)
REMARK    1  A    between atoms: C_5  and  C_6 
ROOT
HETATM    1 CL   LIG     1      -5.271   0.542   0.360  1.00  0.00    -0.084 Cl
HETATM    2  C   LIG     1      -3.530   0.363   0.241  1.00  0.00     0.034 A 
HETATM    3  C   LIG     1      -2.723   0.610   1.356  1.00  0.00     0.024 A 
HETATM    4  C   LIG     1      -1.335   0.468   1.263  1.00  0.00     0.014 A 
HETATM    5  C   LIG     1      -0.737   0.076   0.050  1.00  0.00    -0.026 A 
HETATM    6  C   LIG     1      -1.560  -0.170  -1.065  1.00  0.00     0.014 A 
HETATM    7  C   LIG     1      -2.947  -0.027  -0.968  1.00  0.00     0.024 A 
ENDROOT
BRANCH   5   8
HETATM    8  C   LIG     1       0.737  -0.076  -0.050  1.00  0.00    -0.026 A 
HETATM    9  C   LIG     1       1.470  -0.660   1.000  1.00  0.00     0.014 A 
HETATM   10  C   LIG     1       2.857  -0.802   0.903  1.00  0.00     0.024 A 
HETATM   11  C   LIG     1       3.530  -0.363  -0.241  1.00  0.00     0.034 A 
HETATM   12  C   LIG     1       2.813   0.219  -1.290  1.00  0.00     0.024 A 
HETATM   13 CL   LIG     1       5.271  -0.542  -0.360  1.00  0.00    -0.084 Cl
HETATM   14  C   LIG     1       1.425   0.362  -1.198  1.00  0.00     0.014 A 
ENDBRANCH   5   8
TORSDOF 1
