MODEL 1
REMARK VINA RESULT:      -7.0      0.000      0.000
REMARK  1 active torsions:
REMARK  status: ('A' for Active; 'I' for Inactive)
REMARK    1  A    between atoms: C_5  and  C_6 
ROOT
HETATM    1 CL   LIG     1      14.196  31.044  16.665  1.00  0.00    -0.084 Cl
HETATM    2  C   LIG     1      14.713  32.305  17.769  1.00  0.00     0.034 A 
HETATM    3  C   LIG     1      14.914  33.607  17.299  1.00  0.00     0.024 A 
HETATM    4  C   LIG     1      15.327  34.614  18.178  1.00  0.00     0.014 A 
HETATM    5  C   LIG     1      15.543  34.329  19.540  1.00  0.00    -0.026 A 
HETATM    6  C   LIG     1      15.337  33.015  20.000  1.00  0.00     0.014 A 
HETATM    7  C   LIG     1      14.925  32.011  19.119  1.00  0.00     0.024 A 
ENDROOT
BRANCH   5   8
HETATM    8  C   LIG     1      15.981  35.397  20.474  1.00  0.00    -0.026 A 
HETATM    9  C   LIG     1      17.279  35.934  20.391  1.00  0.00     0.014 A 
HETATM   10  C   LIG     1      17.688  36.940  21.271  1.00  0.00     0.024 A 
HETATM   11  C   LIG     1      16.808  37.422  22.245  1.00  0.00     0.034 A 
HETATM   12  C   LIG     1      15.516  36.897  22.337  1.00  0.00     0.024 A 
HETATM   13 CL   LIG     1      17.323  38.684  23.349  1.00  0.00    -0.084 Cl
HETATM   14  C   LIG     1      15.102  35.891  21.457  1.00  0.00     0.014 A 
ENDBRANCH   5   8
TORSDOF 1
ENDMDL
MODEL 2
REMARK VINA RESULT:      -7.0      0.051      6.043
REMARK  1 active torsions:
REMARK  status: ('A' for Active; 'I' for Inactive)
REMARK    1  A    between atoms: C_5  and  C_6 
ROOT
HETATM    1 CL   LIG     1      17.280  38.637  23.374  1.00  0.00    -0.084 Cl
HETATM    2  C   LIG     1      16.766  37.383  22.260  1.00  0.00     0.034 A 
HETATM    3  C   LIG     1      17.652  36.902  21.291  1.00  0.00     0.024 A 
HETATM    4  C   LIG     1      17.245  35.903  20.401  1.00  0.00     0.014 A 
HETATM    5  C   LIG     1      15.942  35.373  20.472  1.00  0.00    -0.026 A 
HETATM    6  C   LIG     1      15.060  35.865  21.452  1.00  0.00     0.014 A 
HETATM    7  C   LIG     1      15.471  36.864  22.339  1.00  0.00     0.024 A 
ENDROOT
BRANCH   5   8
HETATM    8  C   LIG     1      15.508  34.311  19.528  1.00  0.00    -0.026 A 
HETATM    9  C   LIG     1      15.324  34.598  18.163  1.00  0.00     0.014 A 
HETATM   10  C   LIG     1      14.916  33.596  17.277  1.00  0.00     0.024 A 
HETATM   11  C   LIG     1      14.686  32.298  17.742  1.00  0.00     0.034 A 
HETATM   12  C   LIG     1      14.865  32.002  19.096  1.00  0.00     0.024 A 
HETATM   13 CL   LIG     1      14.173  31.043  16.628  1.00  0.00    -0.084 Cl
HETATM   14  C   LIG     1      15.274  33.000  19.985  1.00  0.00     0.014 A 
ENDBRANCH   5   8
TORSDOF 1
ENDMDL
MODEL 3
REMARK VINA RESULT:      -6.9      1.051      1.450
REMARK  1 active torsions:
REMARK  status: ('A' for Active; 'I' for Inactive)
REMARK    1  A    between atoms: C_5  and  C_6 
ROOT
HETATM    1 CL   LIG     1      14.536  31.574  16.404  1.00  0.00    -0.084 Cl
HETATM    2  C   LIG     1      14.918  32.597  17.777  1.00  0.00     0.034 A 
HETATM    3  C   LIG     1      15.136  33.966  17.592  1.00  0.00     0.024 A 
HETATM    4  C   LIG     1      15.441  34.782  18.685  1.00  0.00     0.014 A 
HETATM    5  C   LIG     1      15.533  34.237  19.980  1.00  0.00    -0.026 A 
HETATM    6  C   LIG     1      15.312  32.858  20.154  1.00  0.00     0.014 A 
HETATM    7  C   LIG     1      15.007  32.045  19.059  1.00  0.00     0.024 A 
ENDROOT
BRANCH   5   8
HETATM    8  C   LIG     1      15.856  35.103  21.142  1.00  0.00    -0.026 A 
HETATM    9  C   LIG     1      15.093  36.255  21.412  1.00  0.00     0.014 A 
HETATM   10  C   LIG     1      15.399  37.068  22.506  1.00  0.00     0.024 A 
HETATM   11  C   LIG     1      16.470  36.744  23.345  1.00  0.00     0.034 A 
HETATM   12  C   LIG     1      17.236  35.603  23.087  1.00  0.00     0.024 A 
HETATM   13 CL   LIG     1      16.853  37.767  24.717  1.00  0.00    -0.084 Cl
HETATM   14  C   LIG     1      16.932  34.786  21.993  1.00  0.00     0.014 A 
ENDBRANCH   5   8
TORSDOF 1
ENDMDL
MODEL 4
REMARK VINA RESULT:      -6.8      4.528      5.965
REMARK  1 active torsions:
REMARK  status: ('A' for Active; 'I' for Inactive)
REMARK    1  A    between atoms: C_5  and  C_6 
ROOT
HETATM    1 CL   LIG     1      16.804  34.817  26.448  1.00  0.00    -0.084 Cl
HETATM    2  C   LIG     1      17.188  35.603  24.927  1.00  0.00     0.034 A 
HETATM    3  C   LIG     1      17.615  36.934  24.915  1.00  0.00     0.024 A 
HETATM    4  C   LIG     1      17.922  37.562  23.704  1.00  0.00     0.014 A 
HETATM    5  C   LIG     1      17.803  36.863  22.487  1.00  0.00    -0.026 A 
HETATM    6  C   LIG     1      17.372  35.524  22.512  1.00  0.00     0.014 A 
HETATM    7  C   LIG     1      17.067  34.899  23.725  1.00  0.00     0.024 A 
ENDROOT
BRANCH   5   8
HETATM    8  C   LIG     1      18.129  37.529  21.200  1.00  0.00    -0.026 A 
HETATM    9  C   LIG     1      18.264  36.776  20.018  1.00  0.00     0.014 A 
HETATM   10  C   LIG     1      18.571  37.405  18.808  1.00  0.00     0.024 A 
HETATM   11  C   LIG     1      18.747  38.791  18.762  1.00  0.00     0.034 A 
HETATM   12  C   LIG     1      18.616  39.549  19.929  1.00  0.00     0.024 A 
HETATM   13 CL   LIG     1      19.132  39.578  17.242  1.00  0.00    -0.084 Cl
HETATM   14  C   LIG     1      18.308  38.924  21.141  1.00  0.00     0.014 A 
ENDBRANCH   5   8
TORSDOF 1
ENDMDL
MODEL 5
REMARK VINA RESULT:      -6.8      4.568      5.572
REMARK  1 active torsions:
REMARK  status: ('A' for Active; 'I' for Inactive)
REMARK    1  A    between atoms: C_5  and  C_6 
ROOT
HETATM    1 CL   LIG     1      19.178  39.680  17.362  1.00  0.00    -0.084 Cl
HETATM    2  C   LIG     1      18.772  38.858  18.858  1.00  0.00     0.034 A 
HETATM    3  C   LIG     1      18.612  37.469  18.873  1.00  0.00     0.024 A 
HETATM    4  C   LIG     1      18.288  36.813  20.064  1.00  0.00     0.014 A 
HETATM    5  C   LIG     1      18.121  37.541  21.258  1.00  0.00    -0.026 A 
HETATM    6  C   LIG     1      18.286  38.939  21.230  1.00  0.00     0.014 A 
HETATM    7  C   LIG     1      18.609  39.591  20.037  1.00  0.00     0.024 A 
ENDROOT
BRANCH   5   8
HETATM    8  C   LIG     1      17.779  36.845  22.525  1.00  0.00    -0.026 A 
HETATM    9  C   LIG     1      17.829  37.529  23.754  1.00  0.00     0.014 A 
HETATM   10  C   LIG     1      17.506  36.871  24.944  1.00  0.00     0.024 A 
HETATM   11  C   LIG     1      17.129  35.525  24.924  1.00  0.00     0.034 A 
HETATM   12  C   LIG     1      17.075  34.836  23.709  1.00  0.00     0.024 A 
HETATM   13 CL   LIG     1      16.724  34.702  26.419  1.00  0.00    -0.084 Cl
HETATM   14  C   LIG     1      17.397  35.490  22.515  1.00  0.00     0.014 A 
ENDBRANCH   5   8
TORSDOF 1
ENDMDL
MODEL 6
REMARK VINA RESULT:      -6.7      1.518      6.263
REMARK  1 active torsions:
REMARK  status: ('A' for Active; 'I' for Inactive)
REMARK    1  A    between atoms: C_5  and  C_6 
ROOT
HETATM    1 CL   LIG     1      17.557  37.778  25.522  1.00  0.00    -0.084 Cl
HETATM    2  C   LIG     1      17.073  36.852  24.113  1.00  0.00     0.034 A 
HETATM    3  C   LIG     1      17.277  35.469  24.079  1.00  0.00     0.024 A 
HETATM    4  C   LIG     1      16.892  34.730  22.957  1.00  0.00     0.014 A 
HETATM    5  C   LIG     1      16.296  35.368  21.852  1.00  0.00    -0.026 A 
HETATM    6  C   LIG     1      16.095  36.760  21.898  1.00  0.00     0.014 A 
HETATM    7  C   LIG     1      16.482  37.496  23.022  1.00  0.00     0.024 A 
ENDROOT
BRANCH   5   8
HETATM    8  C   LIG     1      15.886  34.583  20.659  1.00  0.00    -0.026 A 
HETATM    9  C   LIG     1      15.545  33.223  20.778  1.00  0.00     0.014 A 
HETATM   10  C   LIG     1      15.159  32.488  19.654  1.00  0.00     0.024 A 
HETATM   11  C   LIG     1      15.109  33.099  18.398  1.00  0.00     0.034 A 
HETATM   12  C   LIG     1      15.445  34.449  18.267  1.00  0.00     0.024 A 
HETATM   13 CL   LIG     1      14.624  32.174  16.989  1.00  0.00    -0.084 Cl
HETATM   14  C   LIG     1      15.830  35.189  19.389  1.00  0.00     0.014 A 
ENDBRANCH   5   8
TORSDOF 1
ENDMDL
MODEL 7
REMARK VINA RESULT:      -6.2      2.201      3.722
REMARK  1 active torsions:
REMARK  status: ('A' for Active; 'I' for Inactive)
REMARK    1  A    between atoms: C_5  and  C_6 
ROOT
HETATM    1 CL   LIG     1      13.305  29.179  13.765  1.00  0.00    -0.084 Cl
HETATM    2  C   LIG     1      13.807  30.268  15.045  1.00  0.00     0.034 A 
HETATM    3  C   LIG     1      14.993  30.998  14.917  1.00  0.00     0.024 A 
HETATM    4  C   LIG     1      15.395  31.867  15.937  1.00  0.00     0.014 A 
HETATM    5  C   LIG     1      14.613  32.016  17.098  1.00  0.00    -0.026 A 
HETATM    6  C   LIG     1      13.422  31.275  17.214  1.00  0.00     0.014 A 
HETATM    7  C   LIG     1      13.023  30.408  16.193  1.00  0.00     0.024 A 
ENDROOT
BRANCH   5   8
HETATM    8  C   LIG     1      15.038  32.939  18.181  1.00  0.00    -0.026 A 
HETATM    9  C   LIG     1      15.180  32.476  19.503  1.00  0.00     0.014 A 
HETATM   10  C   LIG     1      15.581  33.346  20.520  1.00  0.00     0.024 A 
HETATM   11  C   LIG     1      15.844  34.689  20.232  1.00  0.00     0.034 A 
HETATM   12  C   LIG     1      15.706  35.161  18.924  1.00  0.00     0.024 A 
HETATM   13 CL   LIG     1      16.346  35.780  21.511  1.00  0.00    -0.084 Cl
HETATM   14  C   LIG     1      15.306  34.293  17.903  1.00  0.00     0.014 A 
ENDBRANCH   5   8
TORSDOF 1
ENDMDL
MODEL 8
REMARK VINA RESULT:      -6.2      2.181      6.978
REMARK  1 active torsions:
REMARK  status: ('A' for Active; 'I' for Inactive)
REMARK    1  A    between atoms: C_5  and  C_6 
ROOT
HETATM    1 CL   LIG     1      16.215  35.790  21.626  1.00  0.00    -0.084 Cl
HETATM    2  C   LIG     1      15.771  34.707  20.321  1.00  0.00     0.034 A 
HETATM    3  C   LIG     1      15.501  33.361  20.589  1.00  0.00     0.024 A 
HETATM    4  C   LIG     1      15.147  32.495  19.549  1.00  0.00     0.014 A 
HETATM    5  C   LIG     1      15.057  32.968  18.226  1.00  0.00    -0.026 A 
HETATM    6  C   LIG     1      15.330  34.325  17.969  1.00  0.00     0.014 A 
HETATM    7  C   LIG     1      15.684  35.187  19.011  1.00  0.00     0.024 A 
ENDROOT
BRANCH   5   8
HETATM    8  C   LIG     1      14.680  32.050  17.121  1.00  0.00    -0.026 A 
HETATM    9  C   LIG     1      15.467  31.969  15.957  1.00  0.00     0.014 A 
HETATM   10  C   LIG     1      15.110  31.104  14.918  1.00  0.00     0.024 A 
HETATM   11  C   LIG     1      13.964  30.311  15.028  1.00  0.00     0.034 A 
HETATM   12  C   LIG     1      13.174  30.383  16.178  1.00  0.00     0.024 A 
HETATM   13 CL   LIG     1      13.518  29.227  13.723  1.00  0.00    -0.084 Cl
HETATM   14  C   LIG     1      13.529  31.246  17.220  1.00  0.00     0.014 A 
ENDBRANCH   5   8
TORSDOF 1
ENDMDL
MODEL 9
REMARK VINA RESULT:      -6.0      6.098      8.461
REMARK  1 active torsions:
REMARK  status: ('A' for Active; 'I' for Inactive)
REMARK    1  A    between atoms: C_5  and  C_6 
ROOT
HETATM    1 CL   LIG     1      14.235  31.216  16.203  1.00  0.00    -0.084 Cl
HETATM    2  C   LIG     1      15.463  31.948  15.185  1.00  0.00     0.034 A 
HETATM    3  C   LIG     1      16.302  32.939  15.703  1.00  0.00     0.024 A 
HETATM    4  C   LIG     1      17.280  33.524  14.893  1.00  0.00     0.014 A 
HETATM    5  C   LIG     1      17.431  33.122  13.552  1.00  0.00    -0.026 A 
HETATM    6  C   LIG     1      16.581  32.123  13.043  1.00  0.00     0.014 A 
HETATM    7  C   LIG     1      15.604  31.541  13.856  1.00  0.00     0.024 A 
ENDROOT
BRANCH   5   8
HETATM    8  C   LIG     1      18.471  33.741  12.691  1.00  0.00    -0.026 A 
HETATM    9  C   LIG     1      18.112  34.430  11.518  1.00  0.00     0.014 A 
HETATM   10  C   LIG     1      19.092  35.012  10.709  1.00  0.00     0.024 A 
HETATM   11  C   LIG     1      20.442  34.914  11.060  1.00  0.00     0.034 A 
HETATM   12  C   LIG     1      20.810  34.231  12.223  1.00  0.00     0.024 A 
HETATM   13 CL   LIG     1      21.670  35.645  10.044  1.00  0.00    -0.084 Cl
HETATM   14  C   LIG     1      19.833  33.648  13.036  1.00  0.00     0.014 A 
ENDBRANCH   5   8
TORSDOF 1
ENDMDL
MODEL 10
REMARK VINA RESULT:      -6.0      4.827      9.394
REMARK  1 active torsions:
REMARK  status: ('A' for Active; 'I' for Inactive)
REMARK    1  A    between atoms: C_5  and  C_6 
ROOT
HETATM    1 CL   LIG     1      15.344  34.356  17.684  1.00  0.00    -0.084 Cl
HETATM    2  C   LIG     1      14.950  32.929  16.745  1.00  0.00     0.034 A 
HETATM    3  C   LIG     1      15.709  32.601  15.617  1.00  0.00     0.024 A 
HETATM    4  C   LIG     1      15.395  31.464  14.866  1.00  0.00     0.014 A 
HETATM    5  C   LIG     1      14.316  30.638  15.237  1.00  0.00    -0.026 A 
HETATM    6  C   LIG     1      13.560  30.978  16.375  1.00  0.00     0.014 A 
HETATM    7  C   LIG     1      13.877  32.116  17.122  1.00  0.00     0.024 A 
ENDROOT
BRANCH   5   8
HETATM    8  C   LIG     1      13.983  29.429  14.441  1.00  0.00    -0.026 A 
HETATM    9  C   LIG     1      15.003  28.617  13.911  1.00  0.00     0.014 A 
HETATM   10  C   LIG     1      14.686  27.480  13.163  1.00  0.00     0.024 A 
HETATM   11  C   LIG     1      13.350  27.139  12.934  1.00  0.00     0.034 A 
HETATM   12  C   LIG     1      12.329  27.938  13.455  1.00  0.00     0.024 A 
HETATM   13 CL   LIG     1      12.956  25.711  11.994  1.00  0.00    -0.084 Cl
HETATM   14  C   LIG     1      12.641  29.076  14.205  1.00  0.00     0.014 A 
ENDBRANCH   5   8
TORSDOF 1
ENDMDL
MODEL 11
REMARK VINA RESULT:      -5.9      2.580      3.337
REMARK  1 active torsions:
REMARK  status: ('A' for Active; 'I' for Inactive)
REMARK    1  A    between atoms: C_5  and  C_6 
ROOT
HETATM    1 CL   LIG     1      15.129  34.315  17.525  1.00  0.00    -0.084 Cl
HETATM    2  C   LIG     1      15.668  34.723  19.144  1.00  0.00     0.034 A 
HETATM    3  C   LIG     1      16.660  35.691  19.329  1.00  0.00     0.024 A 
HETATM    4  C   LIG     1      17.090  36.017  20.618  1.00  0.00     0.014 A 
HETATM    5  C   LIG     1      16.531  35.377  21.741  1.00  0.00    -0.026 A 
HETATM    6  C   LIG     1      15.533  34.405  21.542  1.00  0.00     0.014 A 
HETATM    7  C   LIG     1      15.105  34.082  20.251  1.00  0.00     0.024 A 
ENDROOT
BRANCH   5   8
HETATM    8  C   LIG     1      16.987  35.723  23.112  1.00  0.00    -0.026 A 
HETATM    9  C   LIG     1      17.233  37.063  23.468  1.00  0.00     0.014 A 
HETATM   10  C   LIG     1      17.662  37.385  24.758  1.00  0.00     0.024 A 
HETATM   11  C   LIG     1      17.851  36.378  25.709  1.00  0.00     0.034 A 
HETATM   12  C   LIG     1      17.611  35.044  25.366  1.00  0.00     0.024 A 
HETATM   13 CL   LIG     1      18.390  36.786  27.328  1.00  0.00    -0.084 Cl
HETATM   14  C   LIG     1      17.181  34.716  24.077  1.00  0.00     0.014 A 
ENDBRANCH   5   8
TORSDOF 1
ENDMDL
MODEL 12
REMARK VINA RESULT:      -5.9      4.851      7.340
REMARK  1 active torsions:
REMARK  status: ('A' for Active; 'I' for Inactive)
REMARK    1  A    between atoms: C_5  and  C_6 
ROOT
HETATM    1 CL   LIG     1      12.711  25.740  12.026  1.00  0.00    -0.084 Cl
HETATM    2  C   LIG     1      13.154  27.162  12.953  1.00  0.00     0.034 A 
HETATM    3  C   LIG     1      12.161  28.015  13.444  1.00  0.00     0.024 A 
HETATM    4  C   LIG     1      12.512  29.149  14.183  1.00  0.00     0.014 A 
HETATM    5  C   LIG     1      13.865  29.444  14.439  1.00  0.00    -0.026 A 
HETATM    6  C   LIG     1      14.855  28.577  13.940  1.00  0.00     0.014 A 
HETATM    7  C   LIG     1      14.500  27.445  13.202  1.00  0.00     0.024 A 
ENDROOT
BRANCH   5   8
HETATM    8  C   LIG     1      14.239  30.647  15.225  1.00  0.00    -0.026 A 
HETATM    9  C   LIG     1      15.382  31.396  14.887  1.00  0.00     0.014 A 
HETATM   10  C   LIG     1      15.731  32.529  15.627  1.00  0.00     0.024 A 
HETATM   11  C   LIG     1      14.947  32.928  16.714  1.00  0.00     0.034 A 
HETATM   12  C   LIG     1      13.811  32.192  17.059  1.00  0.00     0.024 A 
HETATM   13 CL   LIG     1      15.389  34.349  17.642  1.00  0.00    -0.084 Cl
HETATM   14  C   LIG     1      13.456  31.059  16.320  1.00  0.00     0.014 A 
ENDBRANCH   5   8
TORSDOF 1
ENDMDL
MODEL 13
REMARK VINA RESULT:      -5.8      5.382     10.074
REMARK  1 active torsions:
REMARK  status: ('A' for Active; 'I' for Inactive)
REMARK    1  A    between atoms: C_5  and  C_6 
ROOT
HETATM    1 CL   LIG     1      15.320  33.569  17.344  1.00  0.00    -0.084 Cl
HETATM    2  C   LIG     1      14.660  32.231  16.421  1.00  0.00     0.034 A 
HETATM    3  C   LIG     1      15.387  31.688  15.357  1.00  0.00     0.024 A 
HETATM    4  C   LIG     1      14.862  30.622  14.620  1.00  0.00     0.014 A 
HETATM    5  C   LIG     1      13.601  30.085  14.941  1.00  0.00    -0.026 A 
HETATM    6  C   LIG     1      12.879  30.639  16.015  1.00  0.00     0.014 A 
HETATM    7  C   LIG     1      13.407  31.705  16.749  1.00  0.00     0.024 A 
ENDROOT
BRANCH   5   8
HETATM    8  C   LIG     1      13.042  28.951  14.160  1.00  0.00    -0.026 A 
HETATM    9  C   LIG     1      11.716  28.988  13.692  1.00  0.00     0.014 A 
HETATM   10  C   LIG     1      11.193  27.920  12.957  1.00  0.00     0.024 A 
HETATM   11  C   LIG     1      11.986  26.803  12.680  1.00  0.00     0.034 A 
HETATM   12  C   LIG     1      13.305  26.755  13.140  1.00  0.00     0.024 A 
HETATM   13 CL   LIG     1      11.328  25.464  11.758  1.00  0.00    -0.084 Cl
HETATM   14  C   LIG     1      13.833  27.821  13.875  1.00  0.00     0.014 A 
ENDBRANCH   5   8
TORSDOF 1
ENDMDL
MODEL 14
REMARK VINA RESULT:      -5.6      5.354     10.075
REMARK  1 active torsions:
REMARK  status: ('A' for Active; 'I' for Inactive)
REMARK    1  A    between atoms: C_5  and  C_6 
ROOT
HETATM    1 CL   LIG     1      15.048  33.764  17.339  1.00  0.00    -0.084 Cl
HETATM    2  C   LIG     1      14.530  32.367  16.414  1.00  0.00     0.034 A 
HETATM    3  C   LIG     1      13.287  31.779  16.669  1.00  0.00     0.024 A 
HETATM    4  C   LIG     1      12.873  30.665  15.932  1.00  0.00     0.014 A 
HETATM    5  C   LIG     1      13.700  30.125  14.929  1.00  0.00    -0.026 A 
HETATM    6  C   LIG     1      14.948  30.726  14.681  1.00  0.00     0.014 A 
HETATM    7  C   LIG     1      15.359  31.839  15.420  1.00  0.00     0.024 A 
ENDROOT
BRANCH   5   8
HETATM    8  C   LIG     1      13.261  28.943  14.145  1.00  0.00    -0.026 A 
HETATM    9  C   LIG     1      11.915  28.799  13.757  1.00  0.00     0.014 A 
HETATM   10  C   LIG     1      11.505  27.686  13.019  1.00  0.00     0.024 A 
HETATM   11  C   LIG     1      12.430  26.701  12.660  1.00  0.00     0.034 A 
HETATM   12  C   LIG     1      13.769  26.832  13.040  1.00  0.00     0.024 A 
HETATM   13 CL   LIG     1      11.912  25.304  11.734  1.00  0.00    -0.084 Cl
HETATM   14  C   LIG     1      14.184  27.945  13.777  1.00  0.00     0.014 A 
ENDBRANCH   5   8
TORSDOF 1
ENDMDL
MODEL 15
REMARK VINA RESULT:      -5.0     18.277     19.134
REMARK  1 active torsions:
REMARK  status: ('A' for Active; 'I' for Inactive)
REMARK    1  A    between atoms: C_5  and  C_6 
ROOT
HETATM    1 CL   LIG     1      27.795  25.932  29.840  1.00  0.00    -0.084 Cl
HETATM    2  C   LIG     1      27.682  27.034  31.200  1.00  0.00     0.034 A 
HETATM    3  C   LIG     1      28.689  27.978  31.422  1.00  0.00     0.024 A 
HETATM    4  C   LIG     1      28.601  28.857  32.506  1.00  0.00     0.014 A 
HETATM    5  C   LIG     1      27.501  28.801  33.383  1.00  0.00    -0.026 A 
HETATM    6  C   LIG     1      26.493  27.846  33.149  1.00  0.00     0.014 A 
HETATM    7  C   LIG     1      26.585  26.970  32.064  1.00  0.00     0.024 A 
ENDROOT
BRANCH   5   8
HETATM    8  C   LIG     1      27.405  29.735  34.534  1.00  0.00    -0.026 A 
HETATM    9  C   LIG     1      26.173  29.956  35.177  1.00  0.00     0.014 A 
HETATM   10  C   LIG     1      26.086  30.835  36.260  1.00  0.00     0.024 A 
HETATM   11  C   LIG     1      27.226  31.504  36.715  1.00  0.00     0.034 A 
HETATM   12  C   LIG     1      28.455  31.293  36.084  1.00  0.00     0.024 A 
HETATM   13 CL   LIG     1      27.114  32.607  38.074  1.00  0.00    -0.084 Cl
HETATM   14  C   LIG     1      28.547  30.414  35.001  1.00  0.00     0.014 A 
ENDBRANCH   5   8
TORSDOF 1
ENDMDL
MODEL 16
REMARK VINA RESULT:      -4.5     14.738     15.745
REMARK  1 active torsions:
REMARK  status: ('A' for Active; 'I' for Inactive)
REMARK    1  A    between atoms: C_5  and  C_6 
ROOT
HETATM    1 CL   LIG     1      22.332  18.806  18.742  1.00  0.00    -0.084 Cl
HETATM    2  C   LIG     1      23.421  20.182  18.710  1.00  0.00     0.034 A 
HETATM    3  C   LIG     1      23.216  21.257  19.580  1.00  0.00     0.024 A 
HETATM    4  C   LIG     1      24.082  22.354  19.556  1.00  0.00     0.014 A 
HETATM    5  C   LIG     1      25.167  22.388  18.659  1.00  0.00    -0.026 A 
HETATM    6  C   LIG     1      25.363  21.299  17.789  1.00  0.00     0.014 A 
HETATM    7  C   LIG     1      24.495  20.204  17.816  1.00  0.00     0.024 A 
ENDROOT
BRANCH   5   8
HETATM    8  C   LIG     1      26.089  23.552  18.633  1.00  0.00    -0.026 A 
HETATM    9  C   LIG     1      25.911  24.627  19.524  1.00  0.00     0.014 A 
HETATM   10  C   LIG     1      26.780  25.721  19.498  1.00  0.00     0.024 A 
HETATM   11  C   LIG     1      27.836  25.758  18.582  1.00  0.00     0.034 A 
HETATM   12  C   LIG     1      28.022  24.697  17.692  1.00  0.00     0.024 A 
HETATM   13 CL   LIG     1      28.925  27.133  18.551  1.00  0.00    -0.084 Cl
HETATM   14  C   LIG     1      27.156  23.599  17.715  1.00  0.00     0.014 A 
ENDBRANCH   5   8
TORSDOF 1
ENDMDL
MODEL 17
REMARK VINA RESULT:      -4.4     15.083     15.704
REMARK  1 active torsions:
REMARK  status: ('A' for Active; 'I' for Inactive)
REMARK    1  A    between atoms: C_5  and  C_6 
ROOT
HETATM    1 CL   LIG     1      22.636  21.268  21.112  1.00  0.00    -0.084 Cl
HETATM    2  C   LIG     1      23.915  22.199  20.354  1.00  0.00     0.034 A 
HETATM    3  C   LIG     1      24.725  23.036  21.128  1.00  0.00     0.024 A 
HETATM    4  C   LIG     1      25.744  23.779  20.525  1.00  0.00     0.014 A 
HETATM    5  C   LIG     1      25.965  23.694  19.137  1.00  0.00    -0.026 A 
HETATM    6  C   LIG     1      25.143  22.849  18.369  1.00  0.00     0.014 A 
HETATM    7  C   LIG     1      24.125  22.107  18.975  1.00  0.00     0.024 A 
ENDROOT
BRANCH   5   8
HETATM    8  C   LIG     1      27.048  24.483  18.496  1.00  0.00    -0.026 A 
HETATM    9  C   LIG     1      27.783  23.949  17.421  1.00  0.00     0.014 A 
HETATM   10  C   LIG     1      28.801  24.693  16.819  1.00  0.00     0.024 A 
HETATM   11  C   LIG     1      29.100  25.978  17.282  1.00  0.00     0.034 A 
HETATM   12  C   LIG     1      28.378  26.519  18.350  1.00  0.00     0.024 A 
HETATM   13 CL   LIG     1      30.379  26.910  16.525  1.00  0.00    -0.084 Cl
HETATM   14  C   LIG     1      27.357  25.778  18.954  1.00  0.00     0.014 A 
ENDBRANCH   5   8
TORSDOF 1
ENDMDL
MODEL 18
REMARK VINA RESULT:      -4.4     15.187     16.586
REMARK  1 active torsions:
REMARK  status: ('A' for Active; 'I' for Inactive)
REMARK    1  A    between atoms: C_5  and  C_6 
ROOT
HETATM    1 CL   LIG     1      26.333  23.407  28.384  1.00  0.00    -0.084 Cl
HETATM    2  C   LIG     1      25.827  23.164  26.722  1.00  0.00     0.034 A 
HETATM    3  C   LIG     1      26.546  23.753  25.678  1.00  0.00     0.024 A 
HETATM    4  C   LIG     1      26.144  23.560  24.353  1.00  0.00     0.014 A 
HETATM    5  C   LIG     1      25.014  22.773  24.057  1.00  0.00    -0.026 A 
HETATM    6  C   LIG     1      24.298  22.186  25.117  1.00  0.00     0.014 A 
HETATM    7  C   LIG     1      24.704  22.381  26.440  1.00  0.00     0.024 A 
ENDROOT
BRANCH   5   8
HETATM    8  C   LIG     1      24.586  22.567  22.649  1.00  0.00    -0.026 A 
HETATM    9  C   LIG     1      23.299  22.077  22.356  1.00  0.00     0.014 A 
HETATM   10  C   LIG     1      22.899  21.884  21.031  1.00  0.00     0.024 A 
HETATM   11  C   LIG     1      23.776  22.177  19.983  1.00  0.00     0.034 A 
HETATM   12  C   LIG     1      25.056  22.664  20.261  1.00  0.00     0.024 A 
HETATM   13 CL   LIG     1      23.272  21.933  18.320  1.00  0.00    -0.084 Cl
HETATM   14  C   LIG     1      25.461  22.859  21.585  1.00  0.00     0.014 A 
ENDBRANCH   5   8
TORSDOF 1
ENDMDL
MODEL 19
REMARK VINA RESULT:      -4.3     17.997     18.734
REMARK  1 active torsions:
REMARK  status: ('A' for Active; 'I' for Inactive)
REMARK    1  A    between atoms: C_5  and  C_6 
ROOT
HETATM    1 CL   LIG     1      27.737  25.447  28.732  1.00  0.00    -0.084 Cl
HETATM    2  C   LIG     1      27.709  26.502  30.133  1.00  0.00     0.034 A 
HETATM    3  C   LIG     1      26.779  26.285  31.154  1.00  0.00     0.024 A 
HETATM    4  C   LIG     1      26.756  27.125  32.272  1.00  0.00     0.014 A 
HETATM    5  C   LIG     1      27.665  28.195  32.381  1.00  0.00    -0.026 A 
HETATM    6  C   LIG     1      28.597  28.402  31.346  1.00  0.00     0.014 A 
HETATM    7  C   LIG     1      28.617  27.560  30.231  1.00  0.00     0.024 A 
ENDROOT
BRANCH   5   8
HETATM    8  C   LIG     1      27.642  29.087  33.567  1.00  0.00    -0.026 A 
HETATM    9  C   LIG     1      28.757  29.884  33.887  1.00  0.00     0.014 A 
HETATM   10  C   LIG     1      28.732  30.723  35.004  1.00  0.00     0.024 A 
HETATM   11  C   LIG     1      27.596  30.778  35.817  1.00  0.00     0.034 A 
HETATM   12  C   LIG     1      26.482  29.991  35.510  1.00  0.00     0.024 A 
HETATM   13 CL   LIG     1      27.568  31.832  37.219  1.00  0.00    -0.084 Cl
HETATM   14  C   LIG     1      26.502  29.151  34.392  1.00  0.00     0.014 A 
ENDBRANCH   5   8
TORSDOF 1
ENDMDL
MODEL 20
REMARK VINA RESULT:      -4.2     14.950     15.401
REMARK  1 active torsions:
REMARK  status: ('A' for Active; 'I' for Inactive)
REMARK    1  A    between atoms: C_5  and  C_6 
ROOT
HETATM    1 CL   LIG     1      22.564  19.966  22.715  1.00  0.00    -0.084 Cl
HETATM    2  C   LIG     1      23.596  21.182  21.983  1.00  0.00     0.034 A 
HETATM    3  C   LIG     1      24.483  21.917  22.776  1.00  0.00     0.024 A 
HETATM    4  C   LIG     1      25.306  22.886  22.193  1.00  0.00     0.014 A 
HETATM    5  C   LIG     1      25.251  23.131  20.808  1.00  0.00    -0.026 A 
HETATM    6  C   LIG     1      24.354  22.384  20.021  1.00  0.00     0.014 A 
HETATM    7  C   LIG     1      23.533  21.416  20.607  1.00  0.00     0.024 A 
ENDROOT
BRANCH   5   8
HETATM    8  C   LIG     1      26.125  24.159  20.188  1.00  0.00    -0.026 A 
HETATM    9  C   LIG     1      27.130  24.794  20.942  1.00  0.00     0.014 A 
HETATM   10  C   LIG     1      27.951  25.761  20.356  1.00  0.00     0.024 A 
HETATM   11  C   LIG     1      27.780  26.108  19.013  1.00  0.00     0.034 A 
HETATM   12  C   LIG     1      26.785  25.486  18.254  1.00  0.00     0.024 A 
HETATM   13 CL   LIG     1      28.812  27.323  18.280  1.00  0.00    -0.084 Cl
HETATM   14  C   LIG     1      25.962  24.516  18.836  1.00  0.00     0.014 A 
ENDBRANCH   5   8
TORSDOF 1
ENDMDL
