REMARK  1 active torsions:
REMARK  status: ('A' for Active; 'I' for Inactive)
REMARK    1  A    between atoms: C_6  and  C_7 
ROOT
HETATM    1 CL   LIG     1      -3.950  -2.317   0.502  1.00  0.00    -0.084 Cl
HETATM    2  C   LIG     1      -2.938  -0.913   0.215  1.00  0.00     0.034 A 
HETATM    3  C   LIG     1      -3.523   0.326  -0.058  1.00  0.00     0.024 A 
HETATM    4  C   LIG     1      -2.718   1.445  -0.282  1.00  0.00     0.003 A 
HETATM    5  C   LIG     1      -1.326   1.329  -0.234  1.00  0.00     0.012 A 
HETATM    6  C   LIG     1      -0.722   0.087   0.039  1.00  0.00    -0.024 A 
HETATM    7  C   LIG     1      -1.544  -1.034   0.263  1.00  0.00     0.036 A 
ENDROOT
BRANCH   6   8
HETATM    8  C   LIG     1       0.757  -0.039   0.089  1.00  0.00    -0.026 A 
HETATM    9  C   LIG     1       1.399  -1.161  -0.467  1.00  0.00     0.012 A 
HETATM   10  C   LIG     1       2.792  -1.277  -0.419  1.00  0.00     0.001 A 
HETATM   11  C   LIG     1       3.558  -0.277   0.185  1.00  0.00     0.000 A 
HETATM   12  C   LIG     1       2.933   0.841   0.741  1.00  0.00     0.001 A 
HETATM   13  C   LIG     1       1.540   0.962   0.694  1.00  0.00     0.012 A 
ENDBRANCH   6   8
TORSDOF 1
