MODEL 1
REMARK VINA RESULT:      -7.6      0.000      0.000
REMARK  1 active torsions:
REMARK  status: ('A' for Active; 'I' for Inactive)
REMARK    1  A    between atoms: C_5  and  C_6 
ROOT
HETATM    1 CL   LIG     1      15.464  34.753  18.345  1.00  0.00    -0.084 Cl
HETATM    2  C   LIG     1      15.983  35.088  19.987  1.00  0.00     0.034 A 
HETATM    3  C   LIG     1      15.333  34.479  21.065  1.00  0.00     0.024 A 
HETATM    4  C   LIG     1      15.745  34.745  22.374  1.00  0.00     0.014 A 
HETATM    5  C   LIG     1      16.814  35.626  22.620  1.00  0.00    -0.026 A 
HETATM    6  C   LIG     1      17.461  36.233  21.528  1.00  0.00     0.014 A 
HETATM    7  C   LIG     1      17.047  35.964  20.219  1.00  0.00     0.024 A 
ENDROOT
BRANCH   5   8
HETATM    8  C   LIG     1      17.254  35.909  24.011  1.00  0.00    -0.026 A 
HETATM    9  C   LIG     1      17.455  37.235  24.443  1.00  0.00     0.012 A 
HETATM   10  C   LIG     1      17.869  37.498  25.752  1.00  0.00     0.001 A 
HETATM   11  C   LIG     1      18.090  36.445  26.643  1.00  0.00     0.000 A 
HETATM   12  C   LIG     1      17.896  35.126  26.226  1.00  0.00     0.001 A 
HETATM   13  C   LIG     1      17.480  34.857  24.919  1.00  0.00     0.012 A 
ENDBRANCH   5   8
TORSDOF 1
ENDMDL
MODEL 2
REMARK VINA RESULT:      -6.9      4.787      8.647
REMARK  1 active torsions:
REMARK  status: ('A' for Active; 'I' for Inactive)
REMARK    1  A    between atoms: C_5  and  C_6 
ROOT
HETATM    1 CL   LIG     1      15.908  35.181  21.419  1.00  0.00    -0.084 Cl
HETATM    2  C   LIG     1      15.555  34.201  20.008  1.00  0.00     0.034 A 
HETATM    3  C   LIG     1      15.503  34.790  18.741  1.00  0.00     0.024 A 
HETATM    4  C   LIG     1      15.222  34.011  17.615  1.00  0.00     0.014 A 
HETATM    5  C   LIG     1      14.986  32.630  17.745  1.00  0.00    -0.026 A 
HETATM    6  C   LIG     1      15.041  32.047  19.025  1.00  0.00     0.014 A 
HETATM    7  C   LIG     1      15.324  32.830  20.149  1.00  0.00     0.024 A 
ENDROOT
BRANCH   5   8
HETATM    8  C   LIG     1      14.688  31.799  16.550  1.00  0.00    -0.026 A 
HETATM    9  C   LIG     1      13.524  31.007  16.500  1.00  0.00     0.012 A 
HETATM   10  C   LIG     1      13.245  30.227  15.373  1.00  0.00     0.001 A 
HETATM   11  C   LIG     1      14.123  30.225  14.287  1.00  0.00     0.000 A 
HETATM   12  C   LIG     1      15.281  31.005  14.325  1.00  0.00     0.001 A 
HETATM   13  C   LIG     1      15.564  31.789  15.447  1.00  0.00     0.012 A 
ENDBRANCH   5   8
TORSDOF 1
ENDMDL
MODEL 3
REMARK VINA RESULT:      -6.7      3.256      6.109
REMARK  1 active torsions:
REMARK  status: ('A' for Active; 'I' for Inactive)
REMARK    1  A    between atoms: C_5  and  C_6 
ROOT
HETATM    1 CL   LIG     1      17.127  38.786  23.317  1.00  0.00    -0.084 Cl
HETATM    2  C   LIG     1      16.667  37.476  22.244  1.00  0.00     0.034 A 
HETATM    3  C   LIG     1      17.592  36.962  21.331  1.00  0.00     0.024 A 
HETATM    4  C   LIG     1      17.228  35.918  20.475  1.00  0.00     0.014 A 
HETATM    5  C   LIG     1      15.929  35.377  20.523  1.00  0.00    -0.026 A 
HETATM    6  C   LIG     1      15.007  35.902  21.447  1.00  0.00     0.014 A 
HETATM    7  C   LIG     1      15.376  36.946  22.302  1.00  0.00     0.024 A 
ENDROOT
BRANCH   5   8
HETATM    8  C   LIG     1      15.540  34.267  19.616  1.00  0.00    -0.026 A 
HETATM    9  C   LIG     1      15.341  32.966  20.118  1.00  0.00     0.012 A 
HETATM   10  C   LIG     1      14.974  31.924  19.260  1.00  0.00     0.001 A 
HETATM   11  C   LIG     1      14.803  32.166  17.895  1.00  0.00     0.000 A 
HETATM   12  C   LIG     1      14.998  33.451  17.385  1.00  0.00     0.001 A 
HETATM   13  C   LIG     1      15.363  34.497  18.238  1.00  0.00     0.012 A 
ENDBRANCH   5   8
TORSDOF 1
ENDMDL
MODEL 4
REMARK VINA RESULT:      -6.5      2.888      4.167
REMARK  1 active torsions:
REMARK  status: ('A' for Active; 'I' for Inactive)
REMARK    1  A    between atoms: C_5  and  C_6 
ROOT
HETATM    1 CL   LIG     1      14.242  31.077  16.444  1.00  0.00    -0.084 Cl
HETATM    2  C   LIG     1      14.721  32.310  17.596  1.00  0.00     0.034 A 
HETATM    3  C   LIG     1      14.871  31.985  18.948  1.00  0.00     0.024 A 
HETATM    4  C   LIG     1      15.253  32.966  19.867  1.00  0.00     0.014 A 
HETATM    5  C   LIG     1      15.489  34.288  19.444  1.00  0.00    -0.026 A 
HETATM    6  C   LIG     1      15.336  34.603  18.081  1.00  0.00     0.014 A 
HETATM    7  C   LIG     1      14.954  33.618  17.164  1.00  0.00     0.024 A 
ENDROOT
BRANCH   5   8
HETATM    8  C   LIG     1      15.896  35.332  20.419  1.00  0.00    -0.026 A 
HETATM    9  C   LIG     1      17.195  35.874  20.388  1.00  0.00     0.012 A 
HETATM   10  C   LIG     1      17.575  36.858  21.307  1.00  0.00     0.001 A 
HETATM   11  C   LIG     1      16.666  37.309  22.267  1.00  0.00     0.000 A 
HETATM   12  C   LIG     1      15.375  36.778  22.308  1.00  0.00     0.001 A 
HETATM   13  C   LIG     1      14.989  35.797  21.391  1.00  0.00     0.012 A 
ENDBRANCH   5   8
TORSDOF 1
ENDMDL
MODEL 5
REMARK VINA RESULT:      -6.5      3.055      5.383
REMARK  1 active torsions:
REMARK  status: ('A' for Active; 'I' for Inactive)
REMARK    1  A    between atoms: C_5  and  C_6 
ROOT
HETATM    1 CL   LIG     1      16.769  34.773  26.455  1.00  0.00    -0.084 Cl
HETATM    2  C   LIG     1      17.171  35.595  24.958  1.00  0.00     0.034 A 
HETATM    3  C   LIG     1      17.050  34.924  23.737  1.00  0.00     0.024 A 
HETATM    4  C   LIG     1      17.370  35.577  22.543  1.00  0.00     0.014 A 
HETATM    5  C   LIG     1      17.817  36.912  22.557  1.00  0.00    -0.026 A 
HETATM    6  C   LIG     1      17.935  37.577  23.792  1.00  0.00     0.014 A 
HETATM    7  C   LIG     1      17.613  36.920  24.984  1.00  0.00     0.024 A 
ENDROOT
BRANCH   5   8
HETATM    8  C   LIG     1      18.157  37.608  21.290  1.00  0.00    -0.026 A 
HETATM    9  C   LIG     1      18.287  36.886  20.088  1.00  0.00     0.012 A 
HETATM   10  C   LIG     1      18.608  37.545  18.896  1.00  0.00     0.001 A 
HETATM   11  C   LIG     1      18.803  38.928  18.890  1.00  0.00     0.000 A 
HETATM   12  C   LIG     1      18.678  39.655  20.076  1.00  0.00     0.001 A 
HETATM   13  C   LIG     1      18.356  39.002  21.270  1.00  0.00     0.012 A 
ENDBRANCH   5   8
TORSDOF 1
ENDMDL
MODEL 6
REMARK VINA RESULT:      -6.5      7.570     11.053
REMARK  1 active torsions:
REMARK  status: ('A' for Active; 'I' for Inactive)
REMARK    1  A    between atoms: C_5  and  C_6 
ROOT
HETATM    1 CL   LIG     1      15.214  34.559  17.591  1.00  0.00    -0.084 Cl
HETATM    2  C   LIG     1      14.959  33.074  16.693  1.00  0.00     0.034 A 
HETATM    3  C   LIG     1      15.803  32.745  15.628  1.00  0.00     0.024 A 
HETATM    4  C   LIG     1      15.602  31.562  14.912  1.00  0.00     0.014 A 
HETATM    5  C   LIG     1      14.549  30.692  15.253  1.00  0.00    -0.026 A 
HETATM    6  C   LIG     1      13.705  31.033  16.326  1.00  0.00     0.014 A 
HETATM    7  C   LIG     1      13.911  32.217  17.041  1.00  0.00     0.024 A 
ENDROOT
BRANCH   5   8
HETATM    8  C   LIG     1      14.333  29.434  14.493  1.00  0.00    -0.026 A 
HETATM    9  C   LIG     1      13.038  28.901  14.343  1.00  0.00     0.012 A 
HETATM   10  C   LIG     1      12.838  27.716  13.627  1.00  0.00     0.001 A 
HETATM   11  C   LIG     1      13.925  27.049  13.056  1.00  0.00     0.000 A 
HETATM   12  C   LIG     1      15.214  27.567  13.200  1.00  0.00     0.001 A 
HETATM   13  C   LIG     1      15.420  28.752  13.912  1.00  0.00     0.012 A 
ENDBRANCH   5   8
TORSDOF 1
ENDMDL
MODEL 7
REMARK VINA RESULT:      -5.9      1.378      2.791
REMARK  1 active torsions:
REMARK  status: ('A' for Active; 'I' for Inactive)
REMARK    1  A    between atoms: C_5  and  C_6 
ROOT
HETATM    1 CL   LIG     1      14.756  32.500  17.419  1.00  0.00    -0.084 Cl
HETATM    2  C   LIG     1      15.250  33.426  18.825  1.00  0.00     0.034 A 
HETATM    3  C   LIG     1      15.618  34.768  18.686  1.00  0.00     0.024 A 
HETATM    4  C   LIG     1      16.011  35.507  19.805  1.00  0.00     0.014 A 
HETATM    5  C   LIG     1      16.042  34.911  21.080  1.00  0.00    -0.026 A 
HETATM    6  C   LIG     1      15.669  33.560  21.207  1.00  0.00     0.014 A 
HETATM    7  C   LIG     1      15.275  32.823  20.085  1.00  0.00     0.024 A 
ENDROOT
BRANCH   5   8
HETATM    8  C   LIG     1      16.459  35.694  22.271  1.00  0.00    -0.026 A 
HETATM    9  C   LIG     1      16.966  35.046  23.414  1.00  0.00     0.012 A 
HETATM   10  C   LIG     1      17.357  35.787  24.533  1.00  0.00     0.001 A 
HETATM   11  C   LIG     1      17.247  37.179  24.527  1.00  0.00     0.000 A 
HETATM   12  C   LIG     1      16.744  37.834  23.400  1.00  0.00     0.001 A 
HETATM   13  C   LIG     1      16.353  37.099  22.277  1.00  0.00     0.012 A 
ENDBRANCH   5   8
TORSDOF 1
ENDMDL
MODEL 8
REMARK VINA RESULT:      -5.9      4.792      7.196
REMARK  1 active torsions:
REMARK  status: ('A' for Active; 'I' for Inactive)
REMARK    1  A    between atoms: C_5  and  C_6 
ROOT
HETATM    1 CL   LIG     1      13.286  29.184  13.746  1.00  0.00    -0.084 Cl
HETATM    2  C   LIG     1      13.791  30.270  15.028  1.00  0.00     0.034 A 
HETATM    3  C   LIG     1      12.976  30.456  16.149  1.00  0.00     0.024 A 
HETATM    4  C   LIG     1      13.376  31.321  17.172  1.00  0.00     0.014 A 
HETATM    5  C   LIG     1      14.599  32.013  17.084  1.00  0.00    -0.026 A 
HETATM    6  C   LIG     1      15.411  31.818  15.951  1.00  0.00     0.014 A 
HETATM    7  C   LIG     1      15.008  30.950  14.930  1.00  0.00     0.024 A 
ENDROOT
BRANCH   5   8
HETATM    8  C   LIG     1      15.027  32.932  18.170  1.00  0.00    -0.026 A 
HETATM    9  C   LIG     1      15.188  32.459  19.487  1.00  0.00     0.012 A 
HETATM   10  C   LIG     1      15.591  33.328  20.507  1.00  0.00     0.001 A 
HETATM   11  C   LIG     1      15.836  34.674  20.226  1.00  0.00     0.000 A 
HETATM   12  C   LIG     1      15.678  35.154  18.924  1.00  0.00     0.001 A 
HETATM   13  C   LIG     1      15.277  34.291  17.900  1.00  0.00     0.012 A 
ENDBRANCH   5   8
TORSDOF 1
ENDMDL
MODEL 9
REMARK VINA RESULT:      -5.9      4.268      6.466
REMARK  1 active torsions:
REMARK  status: ('A' for Active; 'I' for Inactive)
REMARK    1  A    between atoms: C_5  and  C_6 
ROOT
HETATM    1 CL   LIG     1      14.529  29.944  13.599  1.00  0.00    -0.084 Cl
HETATM    2  C   LIG     1      14.712  30.876  15.074  1.00  0.00     0.034 A 
HETATM    3  C   LIG     1      13.825  30.685  16.138  1.00  0.00     0.024 A 
HETATM    4  C   LIG     1      13.969  31.427  17.314  1.00  0.00     0.014 A 
HETATM    5  C   LIG     1      15.005  32.371  17.440  1.00  0.00    -0.026 A 
HETATM    6  C   LIG     1      15.892  32.555  16.363  1.00  0.00     0.014 A 
HETATM    7  C   LIG     1      15.746  31.810  15.188  1.00  0.00     0.024 A 
ENDROOT
BRANCH   5   8
HETATM    8  C   LIG     1      15.161  33.160  18.689  1.00  0.00    -0.026 A 
HETATM    9  C   LIG     1      15.538  34.516  18.638  1.00  0.00     0.012 A 
HETATM   10  C   LIG     1      15.683  35.255  19.816  1.00  0.00     0.001 A 
HETATM   11  C   LIG     1      15.457  34.652  21.056  1.00  0.00     0.000 A 
HETATM   12  C   LIG     1      15.083  33.308  21.119  1.00  0.00     0.001 A 
HETATM   13  C   LIG     1      14.935  32.564  19.945  1.00  0.00     0.012 A 
ENDBRANCH   5   8
TORSDOF 1
ENDMDL
MODEL 10
REMARK VINA RESULT:      -5.8      8.059     10.603
REMARK  1 active torsions:
REMARK  status: ('A' for Active; 'I' for Inactive)
REMARK    1  A    between atoms: C_5  and  C_6 
ROOT
HETATM    1 CL   LIG     1      12.729  25.971  12.405  1.00  0.00    -0.084 Cl
HETATM    2  C   LIG     1      13.295  27.413  13.226  1.00  0.00     0.034 A 
HETATM    3  C   LIG     1      12.376  28.329  13.748  1.00  0.00     0.024 A 
HETATM    4  C   LIG     1      12.825  29.479  14.403  1.00  0.00     0.014 A 
HETATM    5  C   LIG     1      14.203  29.728  14.544  1.00  0.00    -0.026 A 
HETATM    6  C   LIG     1      15.119  28.799  14.015  1.00  0.00     0.014 A 
HETATM    7  C   LIG     1      14.666  27.649  13.361  1.00  0.00     0.024 A 
ENDROOT
BRANCH   5   8
HETATM    8  C   LIG     1      14.683  30.949  15.240  1.00  0.00    -0.026 A 
HETATM    9  C   LIG     1      15.790  31.667  14.747  1.00  0.00     0.012 A 
HETATM   10  C   LIG     1      16.240  32.816  15.405  1.00  0.00     0.001 A 
HETATM   11  C   LIG     1      15.593  33.261  16.561  1.00  0.00     0.000 A 
HETATM   12  C   LIG     1      14.495  32.557  17.060  1.00  0.00     0.001 A 
HETATM   13  C   LIG     1      14.040  31.408  16.405  1.00  0.00     0.012 A 
ENDBRANCH   5   8
TORSDOF 1
ENDMDL
MODEL 11
REMARK VINA RESULT:      -5.7      8.211     10.911
REMARK  1 active torsions:
REMARK  status: ('A' for Active; 'I' for Inactive)
REMARK    1  A    between atoms: C_5  and  C_6 
ROOT
HETATM    1 CL   LIG     1      14.436  31.635  16.236  1.00  0.00    -0.084 Cl
HETATM    2  C   LIG     1      15.685  32.279  15.186  1.00  0.00     0.034 A 
HETATM    3  C   LIG     1      16.545  33.278  15.652  1.00  0.00     0.024 A 
HETATM    4  C   LIG     1      17.542  33.792  14.817  1.00  0.00     0.014 A 
HETATM    5  C   LIG     1      17.689  33.312  13.502  1.00  0.00    -0.026 A 
HETATM    6  C   LIG     1      16.818  32.306  13.044  1.00  0.00     0.014 A 
HETATM    7  C   LIG     1      15.823  31.793  13.883  1.00  0.00     0.024 A 
ENDROOT
BRANCH   5   8
HETATM    8  C   LIG     1      18.747  33.856  12.613  1.00  0.00    -0.026 A 
HETATM    9  C   LIG     1      18.413  34.443  11.378  1.00  0.00     0.012 A 
HETATM   10  C   LIG     1      19.412  34.955  10.543  1.00  0.00     0.001 A 
HETATM   11  C   LIG     1      20.753  34.884  10.929  1.00  0.00     0.000 A 
HETATM   12  C   LIG     1      21.097  34.303  12.152  1.00  0.00     0.001 A 
HETATM   13  C   LIG     1      20.103  33.792  12.991  1.00  0.00     0.012 A 
ENDBRANCH   5   8
TORSDOF 1
ENDMDL
MODEL 12
REMARK VINA RESULT:      -5.6      8.309     10.984
REMARK  1 active torsions:
REMARK  status: ('A' for Active; 'I' for Inactive)
REMARK    1  A    between atoms: C_5  and  C_6 
ROOT
HETATM    1 CL   LIG     1      14.466  31.479  16.126  1.00  0.00    -0.084 Cl
HETATM    2  C   LIG     1      15.721  32.145  15.096  1.00  0.00     0.034 A 
HETATM    3  C   LIG     1      15.836  31.720  13.769  1.00  0.00     0.024 A 
HETATM    4  C   LIG     1      16.835  32.249  12.947  1.00  0.00     0.014 A 
HETATM    5  C   LIG     1      17.734  33.211  13.445  1.00  0.00    -0.026 A 
HETATM    6  C   LIG     1      17.609  33.630  14.782  1.00  0.00     0.014 A 
HETATM    7  C   LIG     1      16.607  33.100  15.601  1.00  0.00     0.024 A 
ENDROOT
BRANCH   5   8
HETATM    8  C   LIG     1      18.797  33.775  12.573  1.00  0.00    -0.026 A 
HETATM    9  C   LIG     1      20.156  33.554  12.866  1.00  0.00     0.012 A 
HETATM   10  C   LIG     1      21.154  34.087  12.043  1.00  0.00     0.001 A 
HETATM   11  C   LIG     1      20.808  34.845  10.922  1.00  0.00     0.000 A 
HETATM   12  C   LIG     1      19.463  35.072  10.622  1.00  0.00     0.001 A 
HETATM   13  C   LIG     1      18.462  34.540  11.440  1.00  0.00     0.012 A 
ENDBRANCH   5   8
TORSDOF 1
ENDMDL
MODEL 13
REMARK VINA RESULT:      -5.6      9.030     11.736
REMARK  1 active torsions:
REMARK  status: ('A' for Active; 'I' for Inactive)
REMARK    1  A    between atoms: C_5  and  C_6 
ROOT
HETATM    1 CL   LIG     1      11.221  25.363  11.828  1.00  0.00    -0.084 Cl
HETATM    2  C   LIG     1      11.945  26.708  12.690  1.00  0.00     0.034 A 
HETATM    3  C   LIG     1      11.181  27.840  12.989  1.00  0.00     0.024 A 
HETATM    4  C   LIG     1      11.756  28.913  13.676  1.00  0.00     0.014 A 
HETATM    5  C   LIG     1      13.106  28.867  14.072  1.00  0.00    -0.026 A 
HETATM    6  C   LIG     1      13.865  27.722  13.766  1.00  0.00     0.014 A 
HETATM    7  C   LIG     1      13.286  26.650  13.079  1.00  0.00     0.024 A 
ENDROOT
BRANCH   5   8
HETATM    8  C   LIG     1      13.719  30.005  14.803  1.00  0.00    -0.026 A 
HETATM    9  C   LIG     1      13.065  30.582  15.909  1.00  0.00     0.012 A 
HETATM   10  C   LIG     1      13.645  31.654  16.595  1.00  0.00     0.001 A 
HETATM   11  C   LIG     1      14.880  32.164  16.185  1.00  0.00     0.000 A 
HETATM   12  C   LIG     1      15.537  31.601  15.089  1.00  0.00     0.001 A 
HETATM   13  C   LIG     1      14.963  30.528  14.401  1.00  0.00     0.012 A 
ENDBRANCH   5   8
TORSDOF 1
ENDMDL
MODEL 14
REMARK VINA RESULT:      -5.4      8.637     12.147
REMARK  1 active torsions:
REMARK  status: ('A' for Active; 'I' for Inactive)
REMARK    1  A    between atoms: C_5  and  C_6 
ROOT
HETATM    1 CL   LIG     1      15.401  33.156  17.114  1.00  0.00    -0.084 Cl
HETATM    2  C   LIG     1      14.594  31.881  16.219  1.00  0.00     0.034 A 
HETATM    3  C   LIG     1      13.313  31.465  16.593  1.00  0.00     0.024 A 
HETATM    4  C   LIG     1      12.669  30.449  15.881  1.00  0.00     0.014 A 
HETATM    5  C   LIG     1      13.301  29.836  14.783  1.00  0.00    -0.026 A 
HETATM    6  C   LIG     1      14.591  30.263  14.415  1.00  0.00     0.014 A 
HETATM    7  C   LIG     1      15.232  31.280  15.130  1.00  0.00     0.024 A 
ENDROOT
BRANCH   5   8
HETATM    8  C   LIG     1      12.618  28.757  14.024  1.00  0.00    -0.026 A 
HETATM    9  C   LIG     1      13.265  27.529  13.786  1.00  0.00     0.012 A 
HETATM   10  C   LIG     1      12.619  26.515  13.071  1.00  0.00     0.001 A 
HETATM   11  C   LIG     1      11.325  26.714  12.585  1.00  0.00     0.000 A 
HETATM   12  C   LIG     1      10.673  27.929  12.814  1.00  0.00     0.001 A 
HETATM   13  C   LIG     1      11.313  28.945  13.529  1.00  0.00     0.012 A 
ENDBRANCH   5   8
TORSDOF 1
ENDMDL
MODEL 15
REMARK VINA RESULT:      -5.2      8.164     10.244
REMARK  1 active torsions:
REMARK  status: ('A' for Active; 'I' for Inactive)
REMARK    1  A    between atoms: C_5  and  C_6 
ROOT
HETATM    1 CL   LIG     1      12.702  27.123  13.870  1.00  0.00    -0.084 Cl
HETATM    2  C   LIG     1      13.654  28.584  14.061  1.00  0.00     0.034 A 
HETATM    3  C   LIG     1      13.188  29.623  14.872  1.00  0.00     0.024 A 
HETATM    4  C   LIG     1      13.945  30.787  15.025  1.00  0.00     0.014 A 
HETATM    5  C   LIG     1      15.181  30.927  14.366  1.00  0.00    -0.026 A 
HETATM    6  C   LIG     1      15.640  29.875  13.552  1.00  0.00     0.014 A 
HETATM    7  C   LIG     1      14.880  28.710  13.402  1.00  0.00     0.024 A 
ENDROOT
BRANCH   5   8
HETATM    8  C   LIG     1      15.988  32.164  14.528  1.00  0.00    -0.026 A 
HETATM    9  C   LIG     1      16.833  32.609  13.492  1.00  0.00     0.012 A 
HETATM   10  C   LIG     1      17.591  33.773  13.648  1.00  0.00     0.001 A 
HETATM   11  C   LIG     1      17.517  34.505  14.835  1.00  0.00     0.000 A 
HETATM   12  C   LIG     1      16.683  34.074  15.870  1.00  0.00     0.001 A 
HETATM   13  C   LIG     1      15.922  32.911  15.719  1.00  0.00     0.012 A 
ENDBRANCH   5   8
TORSDOF 1
ENDMDL
MODEL 16
REMARK VINA RESULT:      -4.6      3.993      6.376
REMARK  1 active torsions:
REMARK  status: ('A' for Active; 'I' for Inactive)
REMARK    1  A    between atoms: C_5  and  C_6 
ROOT
HETATM    1 CL   LIG     1      17.134  37.286  25.478  1.00  0.00    -0.084 Cl
HETATM    2  C   LIG     1      17.652  37.746  23.867  1.00  0.00     0.034 A 
HETATM    3  C   LIG     1      17.106  37.110  22.748  1.00  0.00     0.024 A 
HETATM    4  C   LIG     1      17.517  37.475  21.462  1.00  0.00     0.014 A 
HETATM    5  C   LIG     1      18.482  38.483  21.281  1.00  0.00    -0.026 A 
HETATM    6  C   LIG     1      19.024  39.118  22.415  1.00  0.00     0.014 A 
HETATM    7  C   LIG     1      18.609  38.750  23.699  1.00  0.00     0.024 A 
ENDROOT
BRANCH   5   8
HETATM    8  C   LIG     1      18.920  38.874  19.916  1.00  0.00    -0.026 A 
HETATM    9  C   LIG     1      17.981  39.303  18.958  1.00  0.00     0.012 A 
HETATM   10  C   LIG     1      18.397  39.669  17.674  1.00  0.00     0.001 A 
HETATM   11  C   LIG     1      19.750  39.611  17.331  1.00  0.00     0.000 A 
HETATM   12  C   LIG     1      20.690  39.187  18.273  1.00  0.00     0.001 A 
HETATM   13  C   LIG     1      20.280  38.820  19.558  1.00  0.00     0.012 A 
ENDBRANCH   5   8
TORSDOF 1
ENDMDL
