MODEL 1
REMARK VINA RESULT:      -8.0      0.000      0.000
REMARK  1 active torsions:
REMARK  status: ('A' for Active; 'I' for Inactive)
REMARK    1  A    between atoms: C_7  and  C_8 
ROOT
HETATM    1 CL   LIG     1      17.081  38.697  23.464  1.00  0.00    -0.083 Cl
HETATM    2  C   LIG     1      17.337  37.271  24.465  1.00  0.00     0.045 A 
HETATM    3  C   LIG     1      17.717  37.459  25.800  1.00  0.00     0.024 A 
HETATM    4  C   LIG     1      17.987  36.360  26.619  1.00  0.00     0.002 A 
HETATM    5  C   LIG     1      17.885  35.066  26.108  1.00  0.00     0.001 A 
HETATM    6  C   LIG     1      17.506  34.866  24.779  1.00  0.00     0.014 A 
HETATM    7  C   LIG     1      17.220  35.961  23.945  1.00  0.00    -0.004 A 
ENDROOT
BRANCH   7   8
HETATM    8  C   LIG     1      16.808  35.714  22.545  1.00  0.00    -0.024 A 
HETATM    9  C   LIG     1      15.718  34.874  22.258  1.00  0.00     0.012 A 
HETATM   10  C   LIG     1      15.345  34.629  20.934  1.00  0.00     0.001 A 
HETATM   11  C   LIG     1      16.062  35.213  19.885  1.00  0.00     0.000 A 
HETATM   12  C   LIG     1      17.154  36.039  20.160  1.00  0.00     0.001 A 
HETATM   13  C   LIG     1      17.530  36.286  21.484  1.00  0.00     0.012 A 
ENDBRANCH   7   8
TORSDOF 1
ENDMDL
MODEL 2
REMARK VINA RESULT:      -7.5      0.658      4.759
REMARK  1 active torsions:
REMARK  status: ('A' for Active; 'I' for Inactive)
REMARK    1  A    between atoms: C_7  and  C_8 
ROOT
HETATM    1 CL   LIG     1      18.237  37.955  21.703  1.00  0.00    -0.083 Cl
HETATM    2  C   LIG     1      17.247  36.523  21.440  1.00  0.00     0.045 A 
HETATM    3  C   LIG     1      16.865  36.215  20.127  1.00  0.00     0.024 A 
HETATM    4  C   LIG     1      16.034  35.122  19.873  1.00  0.00     0.002 A 
HETATM    5  C   LIG     1      15.572  34.334  20.927  1.00  0.00     0.001 A 
HETATM    6  C   LIG     1      15.945  34.632  22.239  1.00  0.00     0.014 A 
HETATM    7  C   LIG     1      16.791  35.721  22.511  1.00  0.00    -0.004 A 
ENDROOT
BRANCH   7   8
HETATM    8  C   LIG     1      17.179  36.001  23.912  1.00  0.00    -0.024 A 
HETATM    9  C   LIG     1      17.234  37.322  24.389  1.00  0.00     0.012 A 
HETATM   10  C   LIG     1      17.618  37.582  25.707  1.00  0.00     0.001 A 
HETATM   11  C   LIG     1      17.959  36.525  26.558  1.00  0.00     0.000 A 
HETATM   12  C   LIG     1      17.919  35.209  26.090  1.00  0.00     0.001 A 
HETATM   13  C   LIG     1      17.535  34.947  24.771  1.00  0.00     0.012 A 
ENDBRANCH   7   8
TORSDOF 1
ENDMDL
MODEL 3
REMARK VINA RESULT:      -7.2      2.475      4.225
REMARK  1 active torsions:
REMARK  status: ('A' for Active; 'I' for Inactive)
REMARK    1  A    between atoms: C_7  and  C_8 
ROOT
HETATM    1 CL   LIG     1      16.785  38.823  22.306  1.00  0.00    -0.083 Cl
HETATM    2  C   LIG     1      18.074  38.419  21.176  1.00  0.00     0.045 A 
HETATM    3  C   LIG     1      19.032  39.400  20.887  1.00  0.00     0.024 A 
HETATM    4  C   LIG     1      20.042  39.148  19.956  1.00  0.00     0.002 A 
HETATM    5  C   LIG     1      20.097  37.917  19.301  1.00  0.00     0.001 A 
HETATM    6  C   LIG     1      19.148  36.932  19.581  1.00  0.00     0.014 A 
HETATM    7  C   LIG     1      18.133  37.166  20.525  1.00  0.00    -0.004 A 
ENDROOT
BRANCH   7   8
HETATM    8  C   LIG     1      17.150  36.095  20.808  1.00  0.00    -0.024 A 
HETATM    9  C   LIG     1      16.356  35.563  19.777  1.00  0.00     0.012 A 
HETATM   10  C   LIG     1      15.417  34.565  20.053  1.00  0.00     0.001 A 
HETATM   11  C   LIG     1      15.258  34.096  21.361  1.00  0.00     0.000 A 
HETATM   12  C   LIG     1      16.034  34.628  22.394  1.00  0.00     0.001 A 
HETATM   13  C   LIG     1      16.974  35.626  22.121  1.00  0.00     0.012 A 
ENDBRANCH   7   8
TORSDOF 1
ENDMDL
MODEL 4
REMARK VINA RESULT:      -6.9      5.580      9.043
REMARK  1 active torsions:
REMARK  status: ('A' for Active; 'I' for Inactive)
REMARK    1  A    between atoms: C_7  and  C_8 
ROOT
HETATM    1 CL   LIG     1      17.077  32.461  15.370  1.00  0.00    -0.083 Cl
HETATM    2  C   LIG     1      15.545  31.596  15.426  1.00  0.00     0.045 A 
HETATM    3  C   LIG     1      15.208  30.775  14.341  1.00  0.00     0.024 A 
HETATM    4  C   LIG     1      13.980  30.112  14.313  1.00  0.00     0.002 A 
HETATM    5  C   LIG     1      13.075  30.270  15.362  1.00  0.00     0.001 A 
HETATM    6  C   LIG     1      13.399  31.086  16.449  1.00  0.00     0.014 A 
HETATM    7  C   LIG     1      14.637  31.751  16.498  1.00  0.00    -0.004 A 
ENDROOT
BRANCH   7   8
HETATM    8  C   LIG     1      14.954  32.597  17.670  1.00  0.00    -0.024 A 
HETATM    9  C   LIG     1      15.118  33.986  17.526  1.00  0.00     0.012 A 
HETATM   10  C   LIG     1      15.436  34.778  18.633  1.00  0.00     0.001 A 
HETATM   11  C   LIG     1      15.600  34.190  19.891  1.00  0.00     0.000 A 
HETATM   12  C   LIG     1      15.452  32.809  20.042  1.00  0.00     0.001 A 
HETATM   13  C   LIG     1      15.134  32.014  18.936  1.00  0.00     0.012 A 
ENDBRANCH   7   8
TORSDOF 1
ENDMDL
MODEL 5
REMARK VINA RESULT:      -6.8      2.544      4.549
REMARK  1 active torsions:
REMARK  status: ('A' for Active; 'I' for Inactive)
REMARK    1  A    between atoms: C_7  and  C_8 
ROOT
HETATM    1 CL   LIG     1      17.334  36.585  23.556  1.00  0.00    -0.083 Cl
HETATM    2  C   LIG     1      16.624  35.808  22.145  1.00  0.00     0.045 A 
HETATM    3  C   LIG     1      15.649  34.823  22.353  1.00  0.00     0.024 A 
HETATM    4  C   LIG     1      15.096  34.137  21.269  1.00  0.00     0.002 A 
HETATM    5  C   LIG     1      15.517  34.426  19.971  1.00  0.00     0.001 A 
HETATM    6  C   LIG     1      16.488  35.406  19.751  1.00  0.00     0.014 A 
HETATM    7  C   LIG     1      17.045  36.113  20.831  1.00  0.00    -0.004 A 
ENDROOT
BRANCH   7   8
HETATM    8  C   LIG     1      18.062  37.155  20.562  1.00  0.00    -0.024 A 
HETATM    9  C   LIG     1      17.971  38.417  21.174  1.00  0.00     0.012 A 
HETATM   10  C   LIG     1      18.924  39.403  20.902  1.00  0.00     0.001 A 
HETATM   11  C   LIG     1      19.969  39.140  20.011  1.00  0.00     0.000 A 
HETATM   12  C   LIG     1      20.060  37.893  19.388  1.00  0.00     0.001 A 
HETATM   13  C   LIG     1      19.109  36.904  19.658  1.00  0.00     0.012 A 
ENDBRANCH   7   8
TORSDOF 1
ENDMDL
MODEL 6
REMARK VINA RESULT:      -6.8      2.334      3.356
REMARK  1 active torsions:
REMARK  status: ('A' for Active; 'I' for Inactive)
REMARK    1  A    between atoms: C_7  and  C_8 
ROOT
HETATM    1 CL   LIG     1      16.678  35.143  21.695  1.00  0.00    -0.083 Cl
HETATM    2  C   LIG     1      17.171  36.281  22.945  1.00  0.00     0.045 A 
HETATM    3  C   LIG     1      16.850  35.982  24.276  1.00  0.00     0.024 A 
HETATM    4  C   LIG     1      17.169  36.879  25.297  1.00  0.00     0.002 A 
HETATM    5  C   LIG     1      17.804  38.084  24.996  1.00  0.00     0.001 A 
HETATM    6  C   LIG     1      18.130  38.393  23.674  1.00  0.00     0.014 A 
HETATM    7  C   LIG     1      17.827  37.495  22.636  1.00  0.00    -0.004 A 
ENDROOT
BRANCH   7   8
HETATM    8  C   LIG     1      18.198  37.847  21.247  1.00  0.00    -0.024 A 
HETATM    9  C   LIG     1      18.371  36.844  20.277  1.00  0.00     0.012 A 
HETATM   10  C   LIG     1      18.739  37.181  18.971  1.00  0.00     0.001 A 
HETATM   11  C   LIG     1      18.946  38.520  18.625  1.00  0.00     0.000 A 
HETATM   12  C   LIG     1      18.789  39.522  19.586  1.00  0.00     0.001 A 
HETATM   13  C   LIG     1      18.420  39.188  20.893  1.00  0.00     0.012 A 
ENDBRANCH   7   8
TORSDOF 1
ENDMDL
MODEL 7
REMARK VINA RESULT:      -6.3      7.950     10.500
REMARK  1 active torsions:
REMARK  status: ('A' for Active; 'I' for Inactive)
REMARK    1  A    between atoms: C_7  and  C_8 
ROOT
HETATM    1 CL   LIG     1      16.287  31.855  13.402  1.00  0.00    -0.083 Cl
HETATM    2  C   LIG     1      15.463  32.006  14.951  1.00  0.00     0.045 A 
HETATM    3  C   LIG     1      15.676  33.169  15.704  1.00  0.00     0.024 A 
HETATM    4  C   LIG     1      15.090  33.312  16.963  1.00  0.00     0.002 A 
HETATM    5  C   LIG     1      14.293  32.292  17.483  1.00  0.00     0.001 A 
HETATM    6  C   LIG     1      14.072  31.129  16.742  1.00  0.00     0.014 A 
HETATM    7  C   LIG     1      14.645  30.975  15.467  1.00  0.00    -0.004 A 
ENDROOT
BRANCH   7   8
HETATM    8  C   LIG     1      14.381  29.735  14.702  1.00  0.00    -0.024 A 
HETATM    9  C   LIG     1      13.062  29.308  14.467  1.00  0.00     0.012 A 
HETATM   10  C   LIG     1      12.818  28.127  13.761  1.00  0.00     0.001 A 
HETATM   11  C   LIG     1      13.888  27.359  13.290  1.00  0.00     0.000 A 
HETATM   12  C   LIG     1      15.202  27.769  13.531  1.00  0.00     0.001 A 
HETATM   13  C   LIG     1      15.449  28.950  14.238  1.00  0.00     0.012 A 
ENDBRANCH   7   8
TORSDOF 1
ENDMDL
MODEL 8
REMARK VINA RESULT:      -6.1      2.847      3.707
REMARK  1 active torsions:
REMARK  status: ('A' for Active; 'I' for Inactive)
REMARK    1  A    between atoms: C_7  and  C_8 
ROOT
HETATM    1 CL   LIG     1      18.594  36.515  19.437  1.00  0.00    -0.083 Cl
HETATM    2  C   LIG     1      17.497  36.916  20.754  1.00  0.00     0.045 A 
HETATM    3  C   LIG     1      17.810  38.014  21.566  1.00  0.00     0.024 A 
HETATM    4  C   LIG     1      17.002  38.339  22.657  1.00  0.00     0.002 A 
HETATM    5  C   LIG     1      15.880  37.564  22.951  1.00  0.00     0.001 A 
HETATM    6  C   LIG     1      15.557  36.467  22.150  1.00  0.00     0.014 A 
HETATM    7  C   LIG     1      16.354  36.135  21.040  1.00  0.00    -0.004 A 
ENDROOT
BRANCH   7   8
HETATM    8  C   LIG     1      15.976  34.973  20.203  1.00  0.00    -0.024 A 
HETATM    9  C   LIG     1      15.678  35.142  18.839  1.00  0.00     0.012 A 
HETATM   10  C   LIG     1      15.304  34.044  18.058  1.00  0.00     0.001 A 
HETATM   11  C   LIG     1      15.216  32.772  18.634  1.00  0.00     0.000 A 
HETATM   12  C   LIG     1      15.498  32.598  19.991  1.00  0.00     0.001 A 
HETATM   13  C   LIG     1      15.873  33.694  20.775  1.00  0.00     0.012 A 
ENDBRANCH   7   8
TORSDOF 1
ENDMDL
MODEL 9
REMARK VINA RESULT:      -6.0      5.691      9.146
REMARK  1 active torsions:
REMARK  status: ('A' for Active; 'I' for Inactive)
REMARK    1  A    between atoms: C_7  and  C_8 
ROOT
HETATM    1 CL   LIG     1      13.068  30.565  17.017  1.00  0.00    -0.083 Cl
HETATM    2  C   LIG     1      14.257  31.067  15.819  1.00  0.00     0.045 A 
HETATM    3  C   LIG     1      14.232  30.449  14.562  1.00  0.00     0.024 A 
HETATM    4  C   LIG     1      15.188  30.772  13.597  1.00  0.00     0.002 A 
HETATM    5  C   LIG     1      16.181  31.709  13.884  1.00  0.00     0.001 A 
HETATM    6  C   LIG     1      16.217  32.332  15.133  1.00  0.00     0.014 A 
HETATM    7  C   LIG     1      15.254  32.027  16.111  1.00  0.00    -0.004 A 
ENDROOT
BRANCH   7   8
HETATM    8  C   LIG     1      15.312  32.715  17.420  1.00  0.00    -0.024 A 
HETATM    9  C   LIG     1      15.378  31.976  18.614  1.00  0.00     0.012 A 
HETATM   10  C   LIG     1      15.414  32.631  19.848  1.00  0.00     0.001 A 
HETATM   11  C   LIG     1      15.377  34.028  19.901  1.00  0.00     0.000 A 
HETATM   12  C   LIG     1      15.300  34.771  18.720  1.00  0.00     0.001 A 
HETATM   13  C   LIG     1      15.263  34.118  17.483  1.00  0.00     0.012 A 
ENDBRANCH   7   8
TORSDOF 1
ENDMDL
MODEL 10
REMARK VINA RESULT:      -5.8      1.962      4.877
REMARK  1 active torsions:
REMARK  status: ('A' for Active; 'I' for Inactive)
REMARK    1  A    between atoms: C_7  and  C_8 
ROOT
HETATM    1 CL   LIG     1      18.257  39.980  22.334  1.00  0.00    -0.083 Cl
HETATM    2  C   LIG     1      18.420  38.835  21.007  1.00  0.00     0.045 A 
HETATM    3  C   LIG     1      18.819  39.324  19.756  1.00  0.00     0.024 A 
HETATM    4  C   LIG     1      18.908  38.466  18.658  1.00  0.00     0.002 A 
HETATM    5  C   LIG     1      18.592  37.114  18.800  1.00  0.00     0.001 A 
HETATM    6  C   LIG     1      18.194  36.615  20.042  1.00  0.00     0.014 A 
HETATM    7  C   LIG     1      18.111  37.464  21.159  1.00  0.00    -0.004 A 
ENDROOT
BRANCH   7   8
HETATM    8  C   LIG     1      17.698  36.899  22.464  1.00  0.00    -0.024 A 
HETATM    9  C   LIG     1      17.711  37.695  23.623  1.00  0.00     0.012 A 
HETATM   10  C   LIG     1      17.338  37.152  24.856  1.00  0.00     0.001 A 
HETATM   11  C   LIG     1      16.957  35.809  24.943  1.00  0.00     0.000 A 
HETATM   12  C   LIG     1      16.953  35.008  23.799  1.00  0.00     0.001 A 
HETATM   13  C   LIG     1      17.326  35.548  22.564  1.00  0.00     0.012 A 
ENDBRANCH   7   8
TORSDOF 1
ENDMDL
MODEL 11
REMARK VINA RESULT:      -5.7      2.042      3.125
REMARK  1 active torsions:
REMARK  status: ('A' for Active; 'I' for Inactive)
REMARK    1  A    between atoms: C_7  and  C_8 
ROOT
HETATM    1 CL   LIG     1      18.548  38.920  23.896  1.00  0.00    -0.083 Cl
HETATM    2  C   LIG     1      17.802  37.348  23.627  1.00  0.00     0.045 A 
HETATM    3  C   LIG     1      17.363  36.624  24.743  1.00  0.00     0.024 A 
HETATM    4  C   LIG     1      16.816  35.348  24.587  1.00  0.00     0.002 A 
HETATM    5  C   LIG     1      16.710  34.784  23.315  1.00  0.00     0.001 A 
HETATM    6  C   LIG     1      17.144  35.496  22.195  1.00  0.00     0.014 A 
HETATM    7  C   LIG     1      17.686  36.786  22.335  1.00  0.00    -0.004 A 
ENDROOT
BRANCH   7   8
HETATM    8  C   LIG     1      18.123  37.519  21.125  1.00  0.00    -0.024 A 
HETATM    9  C   LIG     1      18.479  36.823  19.957  1.00  0.00     0.012 A 
HETATM   10  C   LIG     1      18.909  37.519  18.824  1.00  0.00     0.001 A 
HETATM   11  C   LIG     1      18.996  38.915  18.850  1.00  0.00     0.000 A 
HETATM   12  C   LIG     1      18.656  39.614  20.011  1.00  0.00     0.001 A 
HETATM   13  C   LIG     1      18.226  38.920  21.146  1.00  0.00     0.012 A 
ENDBRANCH   7   8
TORSDOF 1
ENDMDL
MODEL 12
REMARK VINA RESULT:      -5.7      2.907      3.716
REMARK  1 active torsions:
REMARK  status: ('A' for Active; 'I' for Inactive)
REMARK    1  A    between atoms: C_7  and  C_8 
ROOT
HETATM    1 CL   LIG     1      18.512  36.845  18.967  1.00  0.00    -0.083 Cl
HETATM    2  C   LIG     1      18.381  37.765  20.462  1.00  0.00     0.045 A 
HETATM    3  C   LIG     1      19.221  38.874  20.632  1.00  0.00     0.024 A 
HETATM    4  C   LIG     1      19.196  39.602  21.823  1.00  0.00     0.002 A 
HETATM    5  C   LIG     1      18.336  39.225  22.855  1.00  0.00     0.001 A 
HETATM    6  C   LIG     1      17.494  38.123  22.697  1.00  0.00     0.014 A 
HETATM    7  C   LIG     1      17.499  37.386  21.500  1.00  0.00    -0.004 A 
ENDROOT
BRANCH   7   8
HETATM    8  C   LIG     1      16.584  36.231  21.360  1.00  0.00    -0.024 A 
HETATM    9  C   LIG     1      15.196  36.397  21.509  1.00  0.00     0.012 A 
HETATM   10  C   LIG     1      14.338  35.299  21.394  1.00  0.00     0.001 A 
HETATM   11  C   LIG     1      14.859  34.026  21.138  1.00  0.00     0.000 A 
HETATM   12  C   LIG     1      16.238  33.850  21.002  1.00  0.00     0.001 A 
HETATM   13  C   LIG     1      17.099  34.947  21.116  1.00  0.00     0.012 A 
ENDBRANCH   7   8
TORSDOF 1
ENDMDL
MODEL 13
REMARK VINA RESULT:      -5.6      8.689     11.511
REMARK  1 active torsions:
REMARK  status: ('A' for Active; 'I' for Inactive)
REMARK    1  A    between atoms: C_7  and  C_8 
ROOT
HETATM    1 CL   LIG     1      12.595  30.754  15.445  1.00  0.00    -0.083 Cl
HETATM    2  C   LIG     1      13.520  29.556  14.546  1.00  0.00     0.045 A 
HETATM    3  C   LIG     1      12.916  28.321  14.275  1.00  0.00     0.024 A 
HETATM    4  C   LIG     1      13.628  27.317  13.614  1.00  0.00     0.002 A 
HETATM    5  C   LIG     1      14.950  27.537  13.227  1.00  0.00     0.001 A 
HETATM    6  C   LIG     1      15.563  28.764  13.492  1.00  0.00     0.014 A 
HETATM    7  C   LIG     1      14.856  29.788  14.145  1.00  0.00    -0.004 A 
ENDROOT
BRANCH   7   8
HETATM    8  C   LIG     1      15.530  31.081  14.398  1.00  0.00    -0.024 A 
HETATM    9  C   LIG     1      16.181  31.764  13.356  1.00  0.00     0.012 A 
HETATM   10  C   LIG     1      16.832  32.976  13.605  1.00  0.00     0.001 A 
HETATM   11  C   LIG     1      16.846  33.511  14.897  1.00  0.00     0.000 A 
HETATM   12  C   LIG     1      16.212  32.833  15.941  1.00  0.00     0.001 A 
HETATM   13  C   LIG     1      15.560  31.621  15.695  1.00  0.00     0.012 A 
ENDBRANCH   7   8
TORSDOF 1
ENDMDL
MODEL 14
REMARK VINA RESULT:      -5.6      9.211     11.819
REMARK  1 active torsions:
REMARK  status: ('A' for Active; 'I' for Inactive)
REMARK    1  A    between atoms: C_7  and  C_8 
ROOT
HETATM    1 CL   LIG     1      15.575  29.795  13.221  1.00  0.00    -0.083 Cl
HETATM    2  C   LIG     1      14.691  30.498  14.573  1.00  0.00     0.045 A 
HETATM    3  C   LIG     1      15.314  31.508  15.318  1.00  0.00     0.024 A 
HETATM    4  C   LIG     1      14.678  32.057  16.432  1.00  0.00     0.002 A 
HETATM    5  C   LIG     1      13.418  31.597  16.816  1.00  0.00     0.001 A 
HETATM    6  C   LIG     1      12.786  30.591  16.081  1.00  0.00     0.014 A 
HETATM    7  C   LIG     1      13.409  30.036  14.949  1.00  0.00    -0.004 A 
ENDROOT
BRANCH   7   8
HETATM    8  C   LIG     1      12.706  28.981  14.185  1.00  0.00    -0.024 A 
HETATM    9  C   LIG     1      13.277  27.704  14.038  1.00  0.00     0.012 A 
HETATM   10  C   LIG     1      12.618  26.717  13.300  1.00  0.00     0.001 A 
HETATM   11  C   LIG     1      11.388  26.999  12.695  1.00  0.00     0.000 A 
HETATM   12  C   LIG     1      10.820  28.268  12.825  1.00  0.00     0.001 A 
HETATM   13  C   LIG     1      11.477  29.258  13.563  1.00  0.00     0.012 A 
ENDBRANCH   7   8
TORSDOF 1
ENDMDL
MODEL 15
REMARK VINA RESULT:      -5.0     16.133     16.957
REMARK  1 active torsions:
REMARK  status: ('A' for Active; 'I' for Inactive)
REMARK    1  A    between atoms: C_7  and  C_8 
ROOT
HETATM    1 CL   LIG     1      27.554  27.167  36.606  1.00  0.00    -0.083 Cl
HETATM    2  C   LIG     1      26.924  28.806  36.485  1.00  0.00     0.045 A 
HETATM    3  C   LIG     1      26.551  29.461  37.666  1.00  0.00     0.024 A 
HETATM    4  C   LIG     1      25.994  30.741  37.618  1.00  0.00     0.002 A 
HETATM    5  C   LIG     1      25.800  31.373  36.390  1.00  0.00     0.001 A 
HETATM    6  C   LIG     1      26.168  30.731  35.206  1.00  0.00     0.014 A 
HETATM    7  C   LIG     1      26.741  29.448  35.238  1.00  0.00    -0.004 A 
ENDROOT
BRANCH   7   8
HETATM    8  C   LIG     1      27.133  28.801  33.965  1.00  0.00    -0.024 A 
HETATM    9  C   LIG     1      28.338  29.147  33.329  1.00  0.00     0.012 A 
HETATM   10  C   LIG     1      28.694  28.546  32.118  1.00  0.00     0.001 A 
HETATM   11  C   LIG     1      27.847  27.603  31.528  1.00  0.00     0.000 A 
HETATM   12  C   LIG     1      26.641  27.263  32.147  1.00  0.00     0.001 A 
HETATM   13  C   LIG     1      26.282  27.862  33.359  1.00  0.00     0.012 A 
ENDBRANCH   7   8
TORSDOF 1
ENDMDL
