REMARK  1 active torsions:
REMARK  status: ('A' for Active; 'I' for Inactive)
REMARK    1  A    between atoms: C_5  and  C_6 
ROOT
HETATM    1 CL   LIG     1       5.244   0.307   0.610  1.00  0.00    -0.084 Cl
HETATM    2  C   LIG     1       3.502   0.205   0.430  1.00  0.00     0.034 A 
HETATM    3  C   LIG     1       2.770   1.334   0.050  1.00  0.00     0.024 A 
HETATM    4  C   LIG     1       1.382   1.255  -0.094  1.00  0.00     0.014 A 
HETATM    5  C   LIG     1       0.708   0.042   0.142  1.00  0.00    -0.026 A 
HETATM    6  C   LIG     1       1.455  -1.088   0.524  1.00  0.00     0.014 A 
HETATM    7  C   LIG     1       2.844  -1.005   0.666  1.00  0.00     0.024 A 
ENDROOT
BRANCH   5   8
HETATM    8  C   LIG     1      -0.767  -0.045  -0.011  1.00  0.00    -0.026 A 
HETATM    9  C   LIG     1      -1.417   0.610  -1.075  1.00  0.00     0.012 A 
HETATM   10  C   LIG     1      -2.806   0.526  -1.216  1.00  0.00     0.001 A 
HETATM   11  C   LIG     1      -3.561  -0.209  -0.299  1.00  0.00     0.000 A 
HETATM   12  C   LIG     1      -2.928  -0.862   0.761  1.00  0.00     0.001 A 
HETATM   13  C   LIG     1      -1.540  -0.783   0.906  1.00  0.00     0.012 A 
ENDBRANCH   5   8
TORSDOF 1
