MODEL 1
REMARK VINA RESULT:      -7.7      0.000      0.000
REMARK  1 active torsions:
REMARK  status: ('A' for Active; 'I' for Inactive)
REMARK    1  A    between atoms: C_6  and  C_7 
ROOT
HETATM    1 CL   LIG     1      14.932  33.029  20.374  1.00  0.00    -0.084 Cl
HETATM    2  C   LIG     1      15.898  34.411  20.860  1.00  0.00     0.034 A 
HETATM    3  C   LIG     1      16.349  35.320  19.900  1.00  0.00     0.024 A 
HETATM    4  C   LIG     1      17.114  36.423  20.286  1.00  0.00     0.003 A 
HETATM    5  C   LIG     1      17.431  36.620  21.633  1.00  0.00     0.012 A 
HETATM    6  C   LIG     1      16.984  35.712  22.612  1.00  0.00    -0.024 A 
HETATM    7  C   LIG     1      16.213  34.604  22.210  1.00  0.00     0.036 A 
ENDROOT
BRANCH   6   8
HETATM    8  C   LIG     1      17.320  35.918  24.044  1.00  0.00    -0.026 A 
HETATM    9  C   LIG     1      17.464  34.819  24.911  1.00  0.00     0.012 A 
HETATM   10  C   LIG     1      17.781  35.017  26.259  1.00  0.00     0.001 A 
HETATM   11  C   LIG     1      17.956  36.311  26.756  1.00  0.00     0.000 A 
HETATM   12  C   LIG     1      17.815  37.409  25.906  1.00  0.00     0.001 A 
HETATM   13  C   LIG     1      17.499  37.217  24.556  1.00  0.00     0.012 A 
ENDBRANCH   6   8
TORSDOF 1
ENDMDL
MODEL 2
REMARK VINA RESULT:      -6.8      2.946      5.468
REMARK  1 active torsions:
REMARK  status: ('A' for Active; 'I' for Inactive)
REMARK    1  A    between atoms: C_6  and  C_7 
ROOT
HETATM    1 CL   LIG     1      17.234  38.186  26.098  1.00  0.00    -0.084 Cl
HETATM    2  C   LIG     1      17.286  37.223  24.633  1.00  0.00     0.034 A 
HETATM    3  C   LIG     1      16.914  35.877  24.667  1.00  0.00     0.024 A 
HETATM    4  C   LIG     1      16.951  35.111  23.500  1.00  0.00     0.003 A 
HETATM    5  C   LIG     1      17.360  35.688  22.295  1.00  0.00     0.012 A 
HETATM    6  C   LIG     1      17.739  37.043  22.244  1.00  0.00    -0.024 A 
HETATM    7  C   LIG     1      17.698  37.805  23.428  1.00  0.00     0.036 A 
ENDROOT
BRANCH   6   8
HETATM    8  C   LIG     1      18.176  37.658  20.965  1.00  0.00    -0.026 A 
HETATM    9  C   LIG     1      18.353  36.867  19.814  1.00  0.00     0.012 A 
HETATM   10  C   LIG     1      18.764  37.449  18.611  1.00  0.00     0.001 A 
HETATM   11  C   LIG     1      19.004  38.823  18.543  1.00  0.00     0.000 A 
HETATM   12  C   LIG     1      18.833  39.619  19.677  1.00  0.00     0.001 A 
HETATM   13  C   LIG     1      18.421  39.042  20.883  1.00  0.00     0.012 A 
ENDBRANCH   6   8
TORSDOF 1
ENDMDL
MODEL 3
REMARK VINA RESULT:      -6.7      2.456      5.469
REMARK  1 active torsions:
REMARK  status: ('A' for Active; 'I' for Inactive)
REMARK    1  A    between atoms: C_6  and  C_7 
ROOT
HETATM    1 CL   LIG     1      17.360  39.014  26.231  1.00  0.00    -0.084 Cl
HETATM    2  C   LIG     1      17.415  37.380  25.594  1.00  0.00     0.034 A 
HETATM    3  C   LIG     1      17.797  36.320  26.420  1.00  0.00     0.024 A 
HETATM    4  C   LIG     1      17.837  35.019  25.915  1.00  0.00     0.003 A 
HETATM    5  C   LIG     1      17.495  34.773  24.583  1.00  0.00     0.012 A 
HETATM    6  C   LIG     1      17.109  35.830  23.737  1.00  0.00    -0.024 A 
HETATM    7  C   LIG     1      17.073  37.138  24.258  1.00  0.00     0.036 A 
ENDROOT
BRANCH   6   8
HETATM    8  C   LIG     1      16.746  35.572  22.321  1.00  0.00    -0.026 A 
HETATM    9  C   LIG     1      17.369  36.286  21.280  1.00  0.00     0.012 A 
HETATM   10  C   LIG     1      17.026  36.040  19.947  1.00  0.00     0.001 A 
HETATM   11  C   LIG     1      16.058  35.081  19.638  1.00  0.00     0.000 A 
HETATM   12  C   LIG     1      15.433  34.366  20.661  1.00  0.00     0.001 A 
HETATM   13  C   LIG     1      15.773  34.608  21.996  1.00  0.00     0.012 A 
ENDBRANCH   6   8
TORSDOF 1
ENDMDL
MODEL 4
REMARK VINA RESULT:      -6.6      2.807      3.812
REMARK  1 active torsions:
REMARK  status: ('A' for Active; 'I' for Inactive)
REMARK    1  A    between atoms: C_6  and  C_7 
ROOT
HETATM    1 CL   LIG     1      14.900  30.668  20.298  1.00  0.00    -0.084 Cl
HETATM    2  C   LIG     1      15.144  32.258  19.598  1.00  0.00     0.034 A 
HETATM    3  C   LIG     1      14.915  32.465  18.236  1.00  0.00     0.024 A 
HETATM    4  C   LIG     1      15.105  33.732  17.679  1.00  0.00     0.003 A 
HETATM    5  C   LIG     1      15.524  34.796  18.483  1.00  0.00     0.012 A 
HETATM    6  C   LIG     1      15.759  34.602  19.858  1.00  0.00    -0.024 A 
HETATM    7  C   LIG     1      15.565  33.321  20.407  1.00  0.00     0.036 A 
ENDROOT
BRANCH   6   8
HETATM    8  C   LIG     1      16.206  35.731  20.714  1.00  0.00    -0.026 A 
HETATM    9  C   LIG     1      15.360  36.252  21.711  1.00  0.00     0.012 A 
HETATM   10  C   LIG     1      15.783  37.314  22.516  1.00  0.00     0.001 A 
HETATM   11  C   LIG     1      17.052  37.869  22.334  1.00  0.00     0.000 A 
HETATM   12  C   LIG     1      17.901  37.362  21.347  1.00  0.00     0.001 A 
HETATM   13  C   LIG     1      17.482  36.298  20.541  1.00  0.00     0.012 A 
ENDBRANCH   6   8
TORSDOF 1
ENDMDL
MODEL 5
REMARK VINA RESULT:      -6.6      2.677      4.397
REMARK  1 active torsions:
REMARK  status: ('A' for Active; 'I' for Inactive)
REMARK    1  A    between atoms: C_6  and  C_7 
ROOT
HETATM    1 CL   LIG     1      15.132  33.221  18.635  1.00  0.00    -0.084 Cl
HETATM    2  C   LIG     1      15.669  34.245  19.954  1.00  0.00     0.034 A 
HETATM    3  C   LIG     1      15.163  34.048  21.241  1.00  0.00     0.024 A 
HETATM    4  C   LIG     1      15.594  34.860  22.293  1.00  0.00     0.003 A 
HETATM    5  C   LIG     1      16.531  35.871  22.061  1.00  0.00     0.012 A 
HETATM    6  C   LIG     1      17.049  36.081  20.768  1.00  0.00    -0.024 A 
HETATM    7  C   LIG     1      16.607  35.256  19.716  1.00  0.00     0.036 A 
ENDROOT
BRANCH   6   8
HETATM    8  C   LIG     1      18.044  37.155  20.519  1.00  0.00    -0.026 A 
HETATM    9  C   LIG     1      17.989  38.363  21.240  1.00  0.00     0.012 A 
HETATM   10  C   LIG     1      18.928  39.373  21.003  1.00  0.00     0.001 A 
HETATM   11  C   LIG     1      19.928  39.190  20.045  1.00  0.00     0.000 A 
HETATM   12  C   LIG     1      19.992  37.996  19.323  1.00  0.00     0.001 A 
HETATM   13  C   LIG     1      19.057  36.983  19.557  1.00  0.00     0.012 A 
ENDBRANCH   6   8
TORSDOF 1
ENDMDL
MODEL 6
REMARK VINA RESULT:      -6.5      8.043     10.703
REMARK  1 active torsions:
REMARK  status: ('A' for Active; 'I' for Inactive)
REMARK    1  A    between atoms: C_6  and  C_7 
ROOT
HETATM    1 CL   LIG     1      11.313  27.330  13.005  1.00  0.00    -0.084 Cl
HETATM    2  C   LIG     1      12.916  27.889  13.447  1.00  0.00     0.034 A 
HETATM    3  C   LIG     1      14.042  27.156  13.063  1.00  0.00     0.024 A 
HETATM    4  C   LIG     1      15.319  27.603  13.410  1.00  0.00     0.003 A 
HETATM    5  C   LIG     1      15.474  28.783  14.143  1.00  0.00     0.012 A 
HETATM    6  C   LIG     1      14.349  29.531  14.538  1.00  0.00    -0.024 A 
HETATM    7  C   LIG     1      13.067  29.071  14.182  1.00  0.00     0.036 A 
ENDROOT
BRANCH   6   8
HETATM    8  C   LIG     1      14.512  30.785  15.318  1.00  0.00    -0.026 A 
HETATM    9  C   LIG     1      15.576  31.664  15.047  1.00  0.00     0.012 A 
HETATM   10  C   LIG     1      15.727  32.844  15.783  1.00  0.00     0.001 A 
HETATM   11  C   LIG     1      14.819  33.158  16.797  1.00  0.00     0.000 A 
HETATM   12  C   LIG     1      13.758  32.293  17.077  1.00  0.00     0.001 A 
HETATM   13  C   LIG     1      13.603  31.113  16.342  1.00  0.00     0.012 A 
ENDBRANCH   6   8
TORSDOF 1
ENDMDL
MODEL 7
REMARK VINA RESULT:      -6.4      5.059      7.581
REMARK  1 active torsions:
REMARK  status: ('A' for Active; 'I' for Inactive)
REMARK    1  A    between atoms: C_6  and  C_7 
ROOT
HETATM    1 CL   LIG     1      15.914  31.112  13.111  1.00  0.00    -0.084 Cl
HETATM    2  C   LIG     1      14.966  31.096  14.587  1.00  0.00     0.034 A 
HETATM    3  C   LIG     1      13.848  30.265  14.691  1.00  0.00     0.024 A 
HETATM    4  C   LIG     1      13.097  30.248  15.868  1.00  0.00     0.003 A 
HETATM    5  C   LIG     1      13.460  31.061  16.945  1.00  0.00     0.012 A 
HETATM    6  C   LIG     1      14.584  31.904  16.855  1.00  0.00    -0.024 A 
HETATM    7  C   LIG     1      15.334  31.913  15.663  1.00  0.00     0.036 A 
ENDROOT
BRANCH   6   8
HETATM    8  C   LIG     1      14.972  32.771  17.997  1.00  0.00    -0.026 A 
HETATM    9  C   LIG     1      15.257  34.134  17.797  1.00  0.00     0.012 A 
HETATM   10  C   LIG     1      15.621  34.948  18.875  1.00  0.00     0.001 A 
HETATM   11  C   LIG     1      15.706  34.411  20.161  1.00  0.00     0.000 A 
HETATM   12  C   LIG     1      15.426  33.059  20.373  1.00  0.00     0.001 A 
HETATM   13  C   LIG     1      15.060  32.242  19.298  1.00  0.00     0.012 A 
ENDBRANCH   6   8
TORSDOF 1
ENDMDL
MODEL 8
REMARK VINA RESULT:      -6.4      3.325      5.830
REMARK  1 active torsions:
REMARK  status: ('A' for Active; 'I' for Inactive)
REMARK    1  A    between atoms: C_6  and  C_7 
ROOT
HETATM    1 CL   LIG     1      19.215  38.579  20.755  1.00  0.00    -0.084 Cl
HETATM    2  C   LIG     1      17.778  37.671  21.189  1.00  0.00     0.034 A 
HETATM    3  C   LIG     1      17.013  38.058  22.292  1.00  0.00     0.024 A 
HETATM    4  C   LIG     1      15.867  37.338  22.635  1.00  0.00     0.003 A 
HETATM    5  C   LIG     1      15.482  36.228  21.878  1.00  0.00     0.012 A 
HETATM    6  C   LIG     1      16.244  35.825  20.764  1.00  0.00    -0.024 A 
HETATM    7  C   LIG     1      17.397  36.559  20.428  1.00  0.00     0.036 A 
ENDROOT
BRANCH   6   8
HETATM    8  C   LIG     1      15.838  34.645  19.959  1.00  0.00    -0.026 A 
HETATM    9  C   LIG     1      15.539  34.781  18.591  1.00  0.00     0.012 A 
HETATM   10  C   LIG     1      15.157  33.668  17.834  1.00  0.00     0.001 A 
HETATM   11  C   LIG     1      15.069  32.409  18.435  1.00  0.00     0.000 A 
HETATM   12  C   LIG     1      15.363  32.261  19.792  1.00  0.00     0.001 A 
HETATM   13  C   LIG     1      15.746  33.372  20.552  1.00  0.00     0.012 A 
ENDBRANCH   6   8
TORSDOF 1
ENDMDL
MODEL 9
REMARK VINA RESULT:      -6.4      3.027      4.132
REMARK  1 active torsions:
REMARK  status: ('A' for Active; 'I' for Inactive)
REMARK    1  A    between atoms: C_6  and  C_7 
ROOT
HETATM    1 CL   LIG     1      15.266  33.339  16.170  1.00  0.00    -0.084 Cl
HETATM    2  C   LIG     1      15.254  33.303  17.924  1.00  0.00     0.034 A 
HETATM    3  C   LIG     1      14.859  32.145  18.597  1.00  0.00     0.024 A 
HETATM    4  C   LIG     1      14.853  32.114  19.993  1.00  0.00     0.003 A 
HETATM    5  C   LIG     1      15.243  33.242  20.721  1.00  0.00     0.012 A 
HETATM    6  C   LIG     1      15.642  34.418  20.057  1.00  0.00    -0.024 A 
HETATM    7  C   LIG     1      15.644  34.436  18.649  1.00  0.00     0.036 A 
ENDROOT
BRANCH   6   8
HETATM    8  C   LIG     1      16.055  35.618  20.829  1.00  0.00    -0.026 A 
HETATM    9  C   LIG     1      17.331  36.182  20.646  1.00  0.00     0.012 A 
HETATM   10  C   LIG     1      17.717  37.313  21.373  1.00  0.00     0.001 A 
HETATM   11  C   LIG     1      16.836  37.890  22.291  1.00  0.00     0.000 A 
HETATM   12  C   LIG     1      15.567  37.339  22.482  1.00  0.00     0.001 A 
HETATM   13  C   LIG     1      15.176  36.210  21.755  1.00  0.00     0.012 A 
ENDBRANCH   6   8
TORSDOF 1
ENDMDL
MODEL 10
REMARK VINA RESULT:      -6.3      8.136     10.790
REMARK  1 active torsions:
REMARK  status: ('A' for Active; 'I' for Inactive)
REMARK    1  A    between atoms: C_6  and  C_7 
ROOT
HETATM    1 CL   LIG     1      16.412  26.839  12.279  1.00  0.00    -0.084 Cl
HETATM    2  C   LIG     1      15.113  27.674  13.112  1.00  0.00     0.034 A 
HETATM    3  C   LIG     1      13.819  27.149  13.090  1.00  0.00     0.024 A 
HETATM    4  C   LIG     1      12.785  27.811  13.757  1.00  0.00     0.003 A 
HETATM    5  C   LIG     1      13.043  28.999  14.447  1.00  0.00     0.012 A 
HETATM    6  C   LIG     1      14.342  29.540  14.477  1.00  0.00    -0.024 A 
HETATM    7  C   LIG     1      15.376  28.864  13.801  1.00  0.00     0.036 A 
ENDROOT
BRANCH   6   8
HETATM    8  C   LIG     1      14.618  30.802  15.209  1.00  0.00    -0.026 A 
HETATM    9  C   LIG     1      13.795  31.205  16.277  1.00  0.00     0.012 A 
HETATM   10  C   LIG     1      14.057  32.394  16.965  1.00  0.00     0.001 A 
HETATM   11  C   LIG     1      15.140  33.194  16.593  1.00  0.00     0.000 A 
HETATM   12  C   LIG     1      15.964  32.806  15.535  1.00  0.00     0.001 A 
HETATM   13  C   LIG     1      15.707  31.617  14.845  1.00  0.00     0.012 A 
ENDBRANCH   6   8
TORSDOF 1
ENDMDL
MODEL 11
REMARK VINA RESULT:      -6.1      8.020     10.964
REMARK  1 active torsions:
REMARK  status: ('A' for Active; 'I' for Inactive)
REMARK    1  A    between atoms: C_6  and  C_7 
ROOT
HETATM    1 CL   LIG     1      15.068  33.879  17.579  1.00  0.00    -0.084 Cl
HETATM    2  C   LIG     1      15.534  33.024  16.120  1.00  0.00     0.034 A 
HETATM    3  C   LIG     1      16.516  33.558  15.281  1.00  0.00     0.024 A 
HETATM    4  C   LIG     1      16.891  32.876  14.122  1.00  0.00     0.003 A 
HETATM    5  C   LIG     1      16.285  31.659  13.797  1.00  0.00     0.012 A 
HETATM    6  C   LIG     1      15.293  31.109  14.631  1.00  0.00    -0.024 A 
HETATM    7  C   LIG     1      14.924  31.806  15.798  1.00  0.00     0.036 A 
ENDROOT
BRANCH   6   8
HETATM    8  C   LIG     1      14.647  29.817  14.287  1.00  0.00    -0.026 A 
HETATM    9  C   LIG     1      15.417  28.731  13.830  1.00  0.00     0.012 A 
HETATM   10  C   LIG     1      14.806  27.515  13.507  1.00  0.00     0.001 A 
HETATM   11  C   LIG     1      13.422  27.371  13.634  1.00  0.00     0.000 A 
HETATM   12  C   LIG     1      12.647  28.441  14.086  1.00  0.00     0.001 A 
HETATM   13  C   LIG     1      13.254  29.659  14.412  1.00  0.00     0.012 A 
ENDBRANCH   6   8
TORSDOF 1
ENDMDL
MODEL 12
REMARK VINA RESULT:      -6.1      2.452      5.668
REMARK  1 active torsions:
REMARK  status: ('A' for Active; 'I' for Inactive)
REMARK    1  A    between atoms: C_6  and  C_7 
ROOT
HETATM    1 CL   LIG     1      16.802  39.190  22.436  1.00  0.00    -0.084 Cl
HETATM    2  C   LIG     1      16.766  37.439  22.539  1.00  0.00     0.034 A 
HETATM    3  C   LIG     1      17.137  36.801  23.725  1.00  0.00     0.024 A 
HETATM    4  C   LIG     1      17.104  35.407  23.808  1.00  0.00     0.003 A 
HETATM    5  C   LIG     1      16.700  34.648  22.707  1.00  0.00     0.012 A 
HETATM    6  C   LIG     1      16.324  35.277  21.505  1.00  0.00    -0.024 A 
HETATM    7  C   LIG     1      16.361  36.682  21.433  1.00  0.00     0.036 A 
ENDROOT
BRANCH   6   8
HETATM    8  C   LIG     1      15.895  34.471  20.333  1.00  0.00    -0.026 A 
HETATM    9  C   LIG     1      15.716  33.080  20.448  1.00  0.00     0.012 A 
HETATM   10  C   LIG     1      15.312  32.324  19.343  1.00  0.00     0.001 A 
HETATM   11  C   LIG     1      15.085  32.947  18.113  1.00  0.00     0.000 A 
HETATM   12  C   LIG     1      15.259  34.326  17.986  1.00  0.00     0.001 A 
HETATM   13  C   LIG     1      15.662  35.087  19.089  1.00  0.00     0.012 A 
ENDBRANCH   6   8
TORSDOF 1
ENDMDL
MODEL 13
REMARK VINA RESULT:      -6.0      2.572      4.878
REMARK  1 active torsions:
REMARK  status: ('A' for Active; 'I' for Inactive)
REMARK    1  A    between atoms: C_6  and  C_7 
ROOT
HETATM    1 CL   LIG     1      16.845  34.736  24.824  1.00  0.00    -0.084 Cl
HETATM    2  C   LIG     1      16.720  35.088  23.109  1.00  0.00     0.034 A 
HETATM    3  C   LIG     1      15.807  34.386  22.317  1.00  0.00     0.024 A 
HETATM    4  C   LIG     1      15.704  34.668  20.954  1.00  0.00     0.003 A 
HETATM    5  C   LIG     1      16.512  35.652  20.377  1.00  0.00     0.012 A 
HETATM    6  C   LIG     1      17.436  36.367  21.162  1.00  0.00    -0.024 A 
HETATM    7  C   LIG     1      17.532  36.073  22.536  1.00  0.00     0.036 A 
ENDROOT
BRANCH   6   8
HETATM    8  C   LIG     1      18.297  37.412  20.552  1.00  0.00    -0.026 A 
HETATM    9  C   LIG     1      18.229  38.745  20.996  1.00  0.00     0.012 A 
HETATM   10  C   LIG     1      19.041  39.727  20.420  1.00  0.00     0.001 A 
HETATM   11  C   LIG     1      19.928  39.390  19.394  1.00  0.00     0.000 A 
HETATM   12  C   LIG     1      20.005  38.071  18.944  1.00  0.00     0.001 A 
HETATM   13  C   LIG     1      19.195  37.085  19.518  1.00  0.00     0.012 A 
ENDBRANCH   6   8
TORSDOF 1
ENDMDL
MODEL 14
REMARK VINA RESULT:      -5.8      8.302     11.088
REMARK  1 active torsions:
REMARK  status: ('A' for Active; 'I' for Inactive)
REMARK    1  A    between atoms: C_6  and  C_7 
ROOT
HETATM    1 CL   LIG     1      14.949  30.480  13.746  1.00  0.00    -0.084 Cl
HETATM    2  C   LIG     1      15.936  31.879  14.128  1.00  0.00     0.034 A 
HETATM    3  C   LIG     1      15.779  32.532  15.353  1.00  0.00     0.024 A 
HETATM    4  C   LIG     1      16.567  33.643  15.659  1.00  0.00     0.003 A 
HETATM    5  C   LIG     1      17.516  34.105  14.742  1.00  0.00     0.012 A 
HETATM    6  C   LIG     1      17.685  33.458  13.503  1.00  0.00    -0.024 A 
HETATM    7  C   LIG     1      16.884  32.339  13.206  1.00  0.00     0.036 A 
ENDROOT
BRANCH   6   8
HETATM    8  C   LIG     1      18.691  33.949  12.527  1.00  0.00    -0.026 A 
HETATM    9  C   LIG     1      20.065  33.740  12.748  1.00  0.00     0.012 A 
HETATM   10  C   LIG     1      21.010  34.202  11.827  1.00  0.00     0.001 A 
HETATM   11  C   LIG     1      20.595  34.878  10.677  1.00  0.00     0.000 A 
HETATM   12  C   LIG     1      19.235  35.092  10.446  1.00  0.00     0.001 A 
HETATM   13  C   LIG     1      18.286  34.630  11.364  1.00  0.00     0.012 A 
ENDBRANCH   6   8
TORSDOF 1
ENDMDL
MODEL 15
REMARK VINA RESULT:      -5.8      8.697     10.037
REMARK  1 active torsions:
REMARK  status: ('A' for Active; 'I' for Inactive)
REMARK    1  A    between atoms: C_6  and  C_7 
ROOT
HETATM    1 CL   LIG     1      12.849  28.512  14.081  1.00  0.00    -0.084 Cl
HETATM    2  C   LIG     1      13.539  29.894  14.913  1.00  0.00     0.034 A 
HETATM    3  C   LIG     1      12.966  30.351  16.102  1.00  0.00     0.024 A 
HETATM    4  C   LIG     1      13.518  31.449  16.766  1.00  0.00     0.003 A 
HETATM    5  C   LIG     1      14.643  32.092  16.244  1.00  0.00     0.012 A 
HETATM    6  C   LIG     1      15.231  31.643  15.046  1.00  0.00    -0.024 A 
HETATM    7  C   LIG     1      14.665  30.536  14.385  1.00  0.00     0.036 A 
ENDROOT
BRANCH   6   8
HETATM    8  C   LIG     1      16.426  32.327  14.488  1.00  0.00    -0.026 A 
HETATM    9  C   LIG     1      17.503  32.679  15.322  1.00  0.00     0.012 A 
HETATM   10  C   LIG     1      18.627  33.322  14.794  1.00  0.00     0.001 A 
HETATM   11  C   LIG     1      18.688  33.621  13.431  1.00  0.00     0.000 A 
HETATM   12  C   LIG     1      17.625  33.277  12.593  1.00  0.00     0.001 A 
HETATM   13  C   LIG     1      16.499  32.633  13.117  1.00  0.00     0.012 A 
ENDBRANCH   6   8
TORSDOF 1
ENDMDL
MODEL 16
REMARK VINA RESULT:      -5.7     16.646     17.308
REMARK  1 active torsions:
REMARK  status: ('A' for Active; 'I' for Inactive)
REMARK    1  A    between atoms: C_6  and  C_7 
ROOT
HETATM    1 CL   LIG     1       2.560  39.291  29.056  1.00  0.00    -0.084 Cl
HETATM    2  C   LIG     1       2.947  40.503  30.264  1.00  0.00     0.034 A 
HETATM    3  C   LIG     1       2.882  41.860  29.938  1.00  0.00     0.024 A 
HETATM    4  C   LIG     1       3.187  42.825  30.900  1.00  0.00     0.003 A 
HETATM    5  C   LIG     1       3.557  42.437  32.191  1.00  0.00     0.012 A 
HETATM    6  C   LIG     1       3.628  41.073  32.534  1.00  0.00    -0.024 A 
HETATM    7  C   LIG     1       3.319  40.109  31.555  1.00  0.00     0.036 A 
ENDROOT
BRANCH   6   8
HETATM    8  C   LIG     1       4.023  40.658  33.904  1.00  0.00    -0.026 A 
HETATM    9  C   LIG     1       4.028  39.298  34.266  1.00  0.00     0.012 A 
HETATM   10  C   LIG     1       4.401  38.910  35.557  1.00  0.00     0.001 A 
HETATM   11  C   LIG     1       4.770  39.873  36.500  1.00  0.00     0.000 A 
HETATM   12  C   LIG     1       4.768  41.226  36.153  1.00  0.00     0.001 A 
HETATM   13  C   LIG     1       4.397  41.619  34.862  1.00  0.00     0.012 A 
ENDBRANCH   6   8
TORSDOF 1
ENDMDL
MODEL 17
REMARK VINA RESULT:      -5.6      5.767      9.394
REMARK  1 active torsions:
REMARK  status: ('A' for Active; 'I' for Inactive)
REMARK    1  A    between atoms: C_6  and  C_7 
ROOT
HETATM    1 CL   LIG     1      14.772  32.426  20.780  1.00  0.00    -0.084 Cl
HETATM    2  C   LIG     1      14.931  32.816  19.077  1.00  0.00     0.034 A 
HETATM    3  C   LIG     1      15.318  34.101  18.688  1.00  0.00     0.024 A 
HETATM    4  C   LIG     1      15.449  34.410  17.333  1.00  0.00     0.003 A 
HETATM    5  C   LIG     1      15.193  33.438  16.362  1.00  0.00     0.012 A 
HETATM    6  C   LIG     1      14.801  32.139  16.739  1.00  0.00    -0.024 A 
HETATM    7  C   LIG     1      14.672  31.839  18.109  1.00  0.00     0.036 A 
ENDROOT
BRANCH   6   8
HETATM    8  C   LIG     1      14.527  31.104  15.710  1.00  0.00    -0.026 A 
HETATM    9  C   LIG     1      13.268  30.478  15.642  1.00  0.00     0.012 A 
HETATM   10  C   LIG     1      13.012  29.504  14.671  1.00  0.00     0.001 A 
HETATM   11  C   LIG     1      14.009  29.144  13.761  1.00  0.00     0.000 A 
HETATM   12  C   LIG     1      15.262  29.757  13.818  1.00  0.00     0.001 A 
HETATM   13  C   LIG     1      15.522  30.733  14.787  1.00  0.00     0.012 A 
ENDBRANCH   6   8
TORSDOF 1
ENDMDL
MODEL 18
REMARK VINA RESULT:      -5.3     17.540     18.489
REMARK  1 active torsions:
REMARK  status: ('A' for Active; 'I' for Inactive)
REMARK    1  A    between atoms: C_6  and  C_7 
ROOT
HETATM    1 CL   LIG     1       3.144  42.215  30.155  1.00  0.00    -0.084 Cl
HETATM    2  C   LIG     1       3.540  42.636  31.811  1.00  0.00     0.034 A 
HETATM    3  C   LIG     1       3.852  43.958  32.140  1.00  0.00     0.024 A 
HETATM    4  C   LIG     1       4.162  44.295  33.460  1.00  0.00     0.003 A 
HETATM    5  C   LIG     1       4.162  43.312  34.454  1.00  0.00     0.012 A 
HETATM    6  C   LIG     1       3.851  41.977  34.137  1.00  0.00    -0.024 A 
HETATM    7  C   LIG     1       3.539  41.649  32.804  1.00  0.00     0.036 A 
ENDROOT
BRANCH   6   8
HETATM    8  C   LIG     1       3.851  40.930  35.191  1.00  0.00    -0.026 A 
HETATM    9  C   LIG     1       3.147  41.125  36.394  1.00  0.00     0.012 A 
HETATM   10  C   LIG     1       3.149  40.139  37.385  1.00  0.00     0.001 A 
HETATM   11  C   LIG     1       3.854  38.949  37.188  1.00  0.00     0.000 A 
HETATM   12  C   LIG     1       4.558  38.744  36.000  1.00  0.00     0.001 A 
HETATM   13  C   LIG     1       4.558  39.727  35.005  1.00  0.00     0.012 A 
ENDBRANCH   6   8
TORSDOF 1
ENDMDL
MODEL 19
REMARK VINA RESULT:      -5.3      7.120      9.344
REMARK  1 active torsions:
REMARK  status: ('A' for Active; 'I' for Inactive)
REMARK    1  A    between atoms: C_6  and  C_7 
ROOT
HETATM    1 CL   LIG     1      14.744  32.231  19.876  1.00  0.00    -0.084 Cl
HETATM    2  C   LIG     1      14.582  31.855  18.170  1.00  0.00     0.034 A 
HETATM    3  C   LIG     1      13.580  30.983  17.739  1.00  0.00     0.024 A 
HETATM    4  C   LIG     1      13.448  30.687  16.380  1.00  0.00     0.003 A 
HETATM    5  C   LIG     1      14.318  31.262  15.449  1.00  0.00     0.012 A 
HETATM    6  C   LIG     1      15.333  32.142  15.869  1.00  0.00    -0.024 A 
HETATM    7  C   LIG     1      15.456  32.432  17.241  1.00  0.00     0.036 A 
ENDROOT
BRANCH   6   8
HETATM    8  C   LIG     1      16.259  32.752  14.882  1.00  0.00    -0.026 A 
HETATM    9  C   LIG     1      16.349  32.242  13.573  1.00  0.00     0.012 A 
HETATM   10  C   LIG     1      17.222  32.819  12.645  1.00  0.00     0.001 A 
HETATM   11  C   LIG     1      18.014  33.909  13.013  1.00  0.00     0.000 A 
HETATM   12  C   LIG     1      17.935  34.425  14.308  1.00  0.00     0.001 A 
HETATM   13  C   LIG     1      17.062  33.852  15.239  1.00  0.00     0.012 A 
ENDBRANCH   6   8
TORSDOF 1
ENDMDL
MODEL 20
REMARK VINA RESULT:      -5.1      8.181     10.637
REMARK  1 active torsions:
REMARK  status: ('A' for Active; 'I' for Inactive)
REMARK    1  A    between atoms: C_6  and  C_7 
ROOT
HETATM    1 CL   LIG     1      15.315  33.589  17.503  1.00  0.00    -0.084 Cl
HETATM    2  C   LIG     1      15.710  32.894  15.942  1.00  0.00     0.034 A 
HETATM    3  C   LIG     1      15.033  31.758  15.491  1.00  0.00     0.024 A 
HETATM    4  C   LIG     1      15.344  31.207  14.246  1.00  0.00     0.003 A 
HETATM    5  C   LIG     1      16.333  31.790  13.448  1.00  0.00     0.012 A 
HETATM    6  C   LIG     1      17.024  32.934  13.889  1.00  0.00    -0.024 A 
HETATM    7  C   LIG     1      16.701  33.481  15.146  1.00  0.00     0.036 A 
ENDROOT
BRANCH   6   8
HETATM    8  C   LIG     1      18.075  33.555  13.043  1.00  0.00    -0.026 A 
HETATM    9  C   LIG     1      17.730  34.269  11.881  1.00  0.00     0.012 A 
HETATM   10  C   LIG     1      18.722  34.852  11.086  1.00  0.00     0.001 A 
HETATM   11  C   LIG     1      20.067  34.728  11.441  1.00  0.00     0.000 A 
HETATM   12  C   LIG     1      20.423  34.021  12.592  1.00  0.00     0.001 A 
HETATM   13  C   LIG     1      19.434  33.437  13.390  1.00  0.00     0.012 A 
ENDBRANCH   6   8
TORSDOF 1
ENDMDL
