REMARK  1 active torsions:
REMARK  status: ('A' for Active; 'I' for Inactive)
REMARK    1  A    between atoms: C_6  and  C_7 
ROOT
HETATM    1 CL   LIG     1      -5.255   0.770   0.291  1.00  0.00    -0.081 Cl
HETATM    2  C   LIG     1      -3.511   0.515   0.195  1.00  0.00     0.081 A 
HETATM    3  C   LIG     1      -2.637   1.365   0.893  1.00  0.00     0.080 A 
HETATM    4  C   LIG     1      -1.248   1.163   0.817  1.00  0.00     0.070 A 
HETATM    5 CL   LIG     1      -0.151   2.234   1.697  1.00  0.00    -0.081 Cl
HETATM    6  C   LIG     1      -0.732   0.107   0.041  1.00  0.00     0.025 A 
HETATM    7  C   LIG     1      -1.609  -0.744  -0.659  1.00  0.00     0.070 A 
HETATM    8 CL   LIG     1      -0.966  -2.070  -1.635  1.00  0.00    -0.081 Cl
HETATM    9  C   LIG     1      -2.998  -0.539  -0.581  1.00  0.00     0.080 A 
HETATM   10 CL   LIG     1      -4.097  -1.607  -1.458  1.00  0.00    -0.081 Cl
HETATM   11 CL   LIG     1      -3.283   2.688   1.867  1.00  0.00    -0.081 Cl
ENDROOT
BRANCH   6  12
HETATM   12  C   LIG     1       0.732  -0.107  -0.041  1.00  0.00     0.025 A 
HETATM   13  C   LIG     1       1.483   0.530  -1.047  1.00  0.00     0.070 A 
HETATM   14  C   LIG     1       2.872   0.325  -1.123  1.00  0.00     0.080 A 
HETATM   15 CL   LIG     1       0.682   1.586  -2.216  1.00  0.00    -0.081 Cl
HETATM   16  C   LIG     1       3.511  -0.515  -0.195  1.00  0.00     0.081 A 
HETATM   17 CL   LIG     1       3.813   1.124  -2.385  1.00  0.00    -0.081 Cl
HETATM   18  C   LIG     1       2.763  -1.151   0.811  1.00  0.00     0.080 A 
HETATM   19 CL   LIG     1       5.255  -0.770  -0.291  1.00  0.00    -0.081 Cl
HETATM   20  C   LIG     1       1.374  -0.949   0.889  1.00  0.00     0.070 A 
HETATM   21 CL   LIG     1       3.567  -2.206   1.976  1.00  0.00    -0.081 Cl
HETATM   22 CL   LIG     1       0.435  -1.750   2.154  1.00  0.00    -0.081 Cl
ENDBRANCH   6  12
TORSDOF 1
