MODEL 1
REMARK VINA RESULT:      -4.6      0.000      0.000
REMARK  1 active torsions:
REMARK  status: ('A' for Active; 'I' for Inactive)
REMARK    1  A    between atoms: C_6  and  C_7 
ROOT
HETATM    1 CL   LIG     1      24.196  19.378  18.160  1.00  0.00    -0.081 Cl
HETATM    2  C   LIG     1      24.493  20.188  19.700  1.00  0.00     0.081 A 
HETATM    3  C   LIG     1      23.810  21.375  20.013  1.00  0.00     0.080 A 
HETATM    4  C   LIG     1      24.045  22.021  21.239  1.00  0.00     0.070 A 
HETATM    5 CL   LIG     1      23.183  23.514  21.629  1.00  0.00    -0.081 Cl
HETATM    6  C   LIG     1      24.967  21.478  22.154  1.00  0.00     0.025 A 
HETATM    7  C   LIG     1      25.653  20.288  21.839  1.00  0.00     0.070 A 
HETATM    8 CL   LIG     1      26.811  19.603  22.985  1.00  0.00    -0.081 Cl
HETATM    9  C   LIG     1      25.414  19.644  20.612  1.00  0.00     0.080 A 
HETATM   10 CL   LIG     1      26.273  18.153  20.218  1.00  0.00    -0.081 Cl
HETATM   11 CL   LIG     1      22.653  22.056  18.866  1.00  0.00    -0.081 Cl
ENDROOT
BRANCH   6  12
HETATM   12  C   LIG     1      25.218  22.158  23.447  1.00  0.00     0.025 A 
HETATM   13  C   LIG     1      24.450  21.826  24.579  1.00  0.00     0.070 A 
HETATM   14  C   LIG     1      24.689  22.473  25.804  1.00  0.00     0.080 A 
HETATM   15 CL   LIG     1      23.185  20.598  24.463  1.00  0.00    -0.081 Cl
HETATM   16  C   LIG     1      25.695  23.450  25.899  1.00  0.00     0.081 A 
HETATM   17 CL   LIG     1      23.726  22.056  27.224  1.00  0.00    -0.081 Cl
HETATM   18  C   LIG     1      26.463  23.782  24.770  1.00  0.00     0.080 A 
HETATM   19 CL   LIG     1      25.995  24.261  27.438  1.00  0.00    -0.081 Cl
HETATM   20  C   LIG     1      26.225  23.138  23.543  1.00  0.00     0.070 A 
HETATM   21 CL   LIG     1      27.725  25.011  24.890  1.00  0.00    -0.081 Cl
HETATM   22 CL   LIG     1      27.192  23.557  22.124  1.00  0.00    -0.081 Cl
ENDBRANCH   6  12
TORSDOF 1
ENDMDL
MODEL 2
REMARK VINA RESULT:      -4.6      0.136      6.290
REMARK  1 active torsions:
REMARK  status: ('A' for Active; 'I' for Inactive)
REMARK    1  A    between atoms: C_6  and  C_7 
ROOT
HETATM    1 CL   LIG     1      26.095  24.268  27.348  1.00  0.00    -0.081 Cl
HETATM    2  C   LIG     1      25.739  23.454  25.823  1.00  0.00     0.081 A 
HETATM    3  C   LIG     1      24.734  22.473  25.767  1.00  0.00     0.080 A 
HETATM    4  C   LIG     1      24.450  21.824  24.553  1.00  0.00     0.070 A 
HETATM    5 CL   LIG     1      23.184  20.592  24.486  1.00  0.00    -0.081 Cl
HETATM    6  C   LIG     1      25.172  22.157  23.391  1.00  0.00     0.025 A 
HETATM    7  C   LIG     1      26.180  23.140  23.448  1.00  0.00     0.070 A 
HETATM    8 CL   LIG     1      27.091  23.560  21.993  1.00  0.00    -0.081 Cl
HETATM    9  C   LIG     1      26.462  23.787  24.664  1.00  0.00     0.080 A 
HETATM   10 CL   LIG     1      27.725  25.019  24.735  1.00  0.00    -0.081 Cl
HETATM   11 CL   LIG     1      23.826  22.056  27.223  1.00  0.00    -0.081 Cl
ENDROOT
BRANCH   6  12
HETATM   12  C   LIG     1      24.875  21.474  22.111  1.00  0.00     0.025 A 
HETATM   13  C   LIG     1      23.931  22.021  21.221  1.00  0.00     0.070 A 
HETATM   14  C   LIG     1      23.650  21.370  20.007  1.00  0.00     0.080 A 
HETATM   15 CL   LIG     1      23.097  23.525  21.629  1.00  0.00    -0.081 Cl
HETATM   16  C   LIG     1      24.311  20.174  19.680  1.00  0.00     0.081 A 
HETATM   17 CL   LIG     1      22.466  22.057  18.892  1.00  0.00    -0.081 Cl
HETATM   18  C   LIG     1      25.255  19.626  20.567  1.00  0.00     0.080 A 
HETATM   19 CL   LIG     1      23.958  19.359  18.155  1.00  0.00    -0.081 Cl
HETATM   20  C   LIG     1      25.537  20.274  21.782  1.00  0.00     0.070 A 
HETATM   21 CL   LIG     1      26.085  18.123  20.155  1.00  0.00    -0.081 Cl
HETATM   22 CL   LIG     1      26.724  19.584  22.895  1.00  0.00    -0.081 Cl
ENDBRANCH   6  12
TORSDOF 1
ENDMDL
MODEL 3
REMARK VINA RESULT:      -4.6      0.138      2.567
REMARK  1 active torsions:
REMARK  status: ('A' for Active; 'I' for Inactive)
REMARK    1  A    between atoms: C_6  and  C_7 
ROOT
HETATM    1 CL   LIG     1      23.995  19.403  18.104  1.00  0.00    -0.081 Cl
HETATM    2  C   LIG     1      24.343  20.209  19.636  1.00  0.00     0.081 A 
HETATM    3  C   LIG     1      25.303  19.673  20.510  1.00  0.00     0.080 A 
HETATM    4  C   LIG     1      25.581  20.314  21.729  1.00  0.00     0.070 A 
HETATM    5 CL   LIG     1      26.790  19.637  22.827  1.00  0.00    -0.081 Cl
HETATM    6  C   LIG     1      24.896  21.495  22.076  1.00  0.00     0.025 A 
HETATM    7  C   LIG     1      23.933  22.031  21.199  1.00  0.00     0.070 A 
HETATM    8 CL   LIG     1      23.070  23.513  21.630  1.00  0.00    -0.081 Cl
HETATM    9  C   LIG     1      23.657  21.388  19.980  1.00  0.00     0.080 A 
HETATM   10 CL   LIG     1      22.450  22.061  18.881  1.00  0.00    -0.081 Cl
HETATM   11 CL   LIG     1      26.163  18.194  20.076  1.00  0.00    -0.081 Cl
ENDROOT
BRANCH   6  12
HETATM   12  C   LIG     1      25.187  22.172  23.361  1.00  0.00     0.025 A 
HETATM   13  C   LIG     1      24.456  21.836  24.517  1.00  0.00     0.070 A 
HETATM   14  C   LIG     1      24.733  22.480  25.736  1.00  0.00     0.080 A 
HETATM   15 CL   LIG     1      23.188  20.607  24.437  1.00  0.00    -0.081 Cl
HETATM   16  C   LIG     1      25.740  23.458  25.801  1.00  0.00     0.081 A 
HETATM   17 CL   LIG     1      23.816  22.058  27.184  1.00  0.00    -0.081 Cl
HETATM   18  C   LIG     1      26.472  23.794  24.649  1.00  0.00     0.080 A 
HETATM   19 CL   LIG     1      26.088  24.264  27.333  1.00  0.00    -0.081 Cl
HETATM   20  C   LIG     1      26.196  23.153  23.429  1.00  0.00     0.070 A 
HETATM   21 CL   LIG     1      27.736  25.023  24.733  1.00  0.00    -0.081 Cl
HETATM   22 CL   LIG     1      27.117  23.577  21.981  1.00  0.00    -0.081 Cl
ENDBRANCH   6  12
TORSDOF 1
ENDMDL
MODEL 4
REMARK VINA RESULT:      -4.6      0.166      6.276
REMARK  1 active torsions:
REMARK  status: ('A' for Active; 'I' for Inactive)
REMARK    1  A    between atoms: C_6  and  C_7 
ROOT
HETATM    1 CL   LIG     1      26.118  24.270  27.330  1.00  0.00    -0.081 Cl
HETATM    2  C   LIG     1      25.751  23.453  25.810  1.00  0.00     0.081 A 
HETATM    3  C   LIG     1      26.463  23.784  24.644  1.00  0.00     0.080 A 
HETATM    4  C   LIG     1      26.171  23.134  23.433  1.00  0.00     0.070 A 
HETATM    5 CL   LIG     1      27.069  23.552  21.969  1.00  0.00    -0.081 Cl
HETATM    6  C   LIG     1      25.164  22.150  23.387  1.00  0.00     0.025 A 
HETATM    7  C   LIG     1      24.451  21.820  24.555  1.00  0.00     0.070 A 
HETATM    8 CL   LIG     1      23.186  20.587  24.502  1.00  0.00    -0.081 Cl
HETATM    9  C   LIG     1      24.745  22.472  25.766  1.00  0.00     0.080 A 
HETATM   10 CL   LIG     1      23.851  22.057  27.230  1.00  0.00    -0.081 Cl
HETATM   11 CL   LIG     1      27.726  25.016  24.702  1.00  0.00    -0.081 Cl
ENDROOT
BRANCH   6  12
HETATM   12  C   LIG     1      24.855  21.465  22.110  1.00  0.00     0.025 A 
HETATM   13  C   LIG     1      23.911  22.017  21.223  1.00  0.00     0.070 A 
HETATM   14  C   LIG     1      23.618  21.364  20.013  1.00  0.00     0.080 A 
HETATM   15 CL   LIG     1      23.092  23.529  21.631  1.00  0.00    -0.081 Cl
HETATM   16  C   LIG     1      24.268  20.161  19.687  1.00  0.00     0.081 A 
HETATM   17 CL   LIG     1      22.435  22.057  18.902  1.00  0.00    -0.081 Cl
HETATM   18  C   LIG     1      25.211  19.609  20.570  1.00  0.00     0.080 A 
HETATM   19 CL   LIG     1      23.901  19.344  18.166  1.00  0.00    -0.081 Cl
HETATM   20  C   LIG     1      25.505  20.258  21.782  1.00  0.00     0.070 A 
HETATM   21 CL   LIG     1      26.027  18.098  20.160  1.00  0.00    -0.081 Cl
HETATM   22 CL   LIG     1      26.691  19.562  22.892  1.00  0.00    -0.081 Cl
ENDBRANCH   6  12
TORSDOF 1
ENDMDL
MODEL 5
REMARK VINA RESULT:      -4.6      0.163      6.289
REMARK  1 active torsions:
REMARK  status: ('A' for Active; 'I' for Inactive)
REMARK    1  A    between atoms: C_6  and  C_7 
ROOT
HETATM    1 CL   LIG     1      26.125  24.273  27.326  1.00  0.00    -0.081 Cl
HETATM    2  C   LIG     1      25.757  23.456  25.806  1.00  0.00     0.081 A 
HETATM    3  C   LIG     1      24.753  22.474  25.761  1.00  0.00     0.080 A 
HETATM    4  C   LIG     1      24.459  21.822  24.550  1.00  0.00     0.070 A 
HETATM    5 CL   LIG     1      23.195  20.587  24.497  1.00  0.00    -0.081 Cl
HETATM    6  C   LIG     1      25.171  22.155  23.382  1.00  0.00     0.025 A 
HETATM    7  C   LIG     1      26.177  23.138  23.428  1.00  0.00     0.070 A 
HETATM    8 CL   LIG     1      27.074  23.558  21.964  1.00  0.00    -0.081 Cl
HETATM    9  C   LIG     1      26.469  23.788  24.640  1.00  0.00     0.080 A 
HETATM   10 CL   LIG     1      27.730  25.022  24.698  1.00  0.00    -0.081 Cl
HETATM   11 CL   LIG     1      23.859  22.057  27.225  1.00  0.00    -0.081 Cl
ENDROOT
BRANCH   6  12
HETATM   12  C   LIG     1      24.863  21.468  22.105  1.00  0.00     0.025 A 
HETATM   13  C   LIG     1      25.517  20.266  21.775  1.00  0.00     0.070 A 
HETATM   14  C   LIG     1      25.223  19.617  20.562  1.00  0.00     0.080 A 
HETATM   15 CL   LIG     1      26.707  19.572  22.881  1.00  0.00    -0.081 Cl
HETATM   16  C   LIG     1      24.278  20.167  19.680  1.00  0.00     0.081 A 
HETATM   17 CL   LIG     1      26.043  18.109  20.149  1.00  0.00    -0.081 Cl
HETATM   18  C   LIG     1      23.623  21.367  20.009  1.00  0.00     0.080 A 
HETATM   19 CL   LIG     1      23.909  19.350  18.160  1.00  0.00    -0.081 Cl
HETATM   20  C   LIG     1      23.915  22.019  21.220  1.00  0.00     0.070 A 
HETATM   21 CL   LIG     1      22.436  22.058  18.900  1.00  0.00    -0.081 Cl
HETATM   22 CL   LIG     1      23.092  23.528  21.631  1.00  0.00    -0.081 Cl
ENDBRANCH   6  12
TORSDOF 1
ENDMDL
MODEL 6
REMARK VINA RESULT:      -4.6      0.167      6.272
REMARK  1 active torsions:
REMARK  status: ('A' for Active; 'I' for Inactive)
REMARK    1  A    between atoms: C_6  and  C_7 
ROOT
HETATM    1 CL   LIG     1      26.136  24.266  27.330  1.00  0.00    -0.081 Cl
HETATM    2  C   LIG     1      25.766  23.449  25.810  1.00  0.00     0.081 A 
HETATM    3  C   LIG     1      26.477  23.777  24.644  1.00  0.00     0.080 A 
HETATM    4  C   LIG     1      26.183  23.127  23.433  1.00  0.00     0.070 A 
HETATM    5 CL   LIG     1      27.081  23.542  21.967  1.00  0.00    -0.081 Cl
HETATM    6  C   LIG     1      25.175  22.145  23.388  1.00  0.00     0.025 A 
HETATM    7  C   LIG     1      24.461  21.817  24.557  1.00  0.00     0.070 A 
HETATM    8 CL   LIG     1      23.194  20.586  24.506  1.00  0.00    -0.081 Cl
HETATM    9  C   LIG     1      24.758  22.470  25.767  1.00  0.00     0.080 A 
HETATM   10 CL   LIG     1      23.864  22.057  27.233  1.00  0.00    -0.081 Cl
HETATM   11 CL   LIG     1      27.743  25.007  24.699  1.00  0.00    -0.081 Cl
ENDROOT
BRANCH   6  12
HETATM   12  C   LIG     1      24.862  21.459  22.112  1.00  0.00     0.025 A 
HETATM   13  C   LIG     1      25.510  20.254  21.782  1.00  0.00     0.070 A 
HETATM   14  C   LIG     1      25.213  19.605  20.571  1.00  0.00     0.080 A 
HETATM   15 CL   LIG     1      26.698  19.555  22.888  1.00  0.00    -0.081 Cl
HETATM   16  C   LIG     1      24.269  20.159  19.689  1.00  0.00     0.081 A 
HETATM   17 CL   LIG     1      26.026  18.093  20.157  1.00  0.00    -0.081 Cl
HETATM   18  C   LIG     1      23.620  21.362  20.017  1.00  0.00     0.080 A 
HETATM   19 CL   LIG     1      23.895  19.343  18.169  1.00  0.00    -0.081 Cl
HETATM   20  C   LIG     1      23.916  22.014  21.227  1.00  0.00     0.070 A 
HETATM   21 CL   LIG     1      22.434  22.058  18.909  1.00  0.00    -0.081 Cl
HETATM   22 CL   LIG     1      23.100  23.527  21.638  1.00  0.00    -0.081 Cl
ENDBRANCH   6  12
TORSDOF 1
ENDMDL
MODEL 7
REMARK VINA RESULT:      -4.6      0.257      3.630
REMARK  1 active torsions:
REMARK  status: ('A' for Active; 'I' for Inactive)
REMARK    1  A    between atoms: C_6  and  C_7 
ROOT
HETATM    1 CL   LIG     1      24.550  19.487  17.975  1.00  0.00    -0.081 Cl
HETATM    2  C   LIG     1      24.772  20.251  19.551  1.00  0.00     0.081 A 
HETATM    3  C   LIG     1      25.733  19.752  20.445  1.00  0.00     0.080 A 
HETATM    4  C   LIG     1      25.910  20.360  21.700  1.00  0.00     0.070 A 
HETATM    5 CL   LIG     1      27.121  19.729  22.823  1.00  0.00    -0.081 Cl
HETATM    6  C   LIG     1      25.123  21.471  22.061  1.00  0.00     0.025 A 
HETATM    7  C   LIG     1      24.159  21.970  21.164  1.00  0.00     0.070 A 
HETATM    8 CL   LIG     1      23.169  23.363  21.613  1.00  0.00    -0.081 Cl
HETATM    9  C   LIG     1      23.985  21.359  19.909  1.00  0.00     0.080 A 
HETATM   10 CL   LIG     1      22.776  21.986  18.785  1.00  0.00    -0.081 Cl
HETATM   11 CL   LIG     1      26.721  18.360  19.993  1.00  0.00    -0.081 Cl
ENDROOT
BRANCH   6  12
HETATM   12  C   LIG     1      25.308  22.112  23.384  1.00  0.00     0.025 A 
HETATM   13  C   LIG     1      26.256  23.140  23.544  1.00  0.00     0.070 A 
HETATM   14  C   LIG     1      26.429  23.747  24.800  1.00  0.00     0.080 A 
HETATM   15 CL   LIG     1      27.230  23.669  22.167  1.00  0.00    -0.081 Cl
HETATM   16  C   LIG     1      25.656  23.328  25.897  1.00  0.00     0.081 A 
HETATM   17 CL   LIG     1      27.619  25.036  25.000  1.00  0.00    -0.081 Cl
HETATM   18  C   LIG     1      24.708  22.302  25.739  1.00  0.00     0.080 A 
HETATM   19 CL   LIG     1      25.874  24.092  27.473  1.00  0.00    -0.081 Cl
HETATM   20  C   LIG     1      24.533  21.693  24.484  1.00  0.00     0.070 A 
HETATM   21 CL   LIG     1      23.738  21.776  27.117  1.00  0.00    -0.081 Cl
HETATM   22 CL   LIG     1      23.341  20.403  24.288  1.00  0.00    -0.081 Cl
ENDBRANCH   6  12
TORSDOF 1
ENDMDL
MODEL 8
REMARK VINA RESULT:      -4.6      1.205      2.952
REMARK  1 active torsions:
REMARK  status: ('A' for Active; 'I' for Inactive)
REMARK    1  A    between atoms: C_6  and  C_7 
ROOT
HETATM    1 CL   LIG     1      24.806  19.794  17.280  1.00  0.00    -0.081 Cl
HETATM    2  C   LIG     1      24.666  20.192  18.993  1.00  0.00     0.081 A 
HETATM    3  C   LIG     1      23.731  21.152  19.417  1.00  0.00     0.080 A 
HETATM    4  C   LIG     1      23.618  21.470  20.782  1.00  0.00     0.070 A 
HETATM    5 CL   LIG     1      22.440  22.677  21.312  1.00  0.00    -0.081 Cl
HETATM    6  C   LIG     1      24.443  20.827  21.725  1.00  0.00     0.025 A 
HETATM    7  C   LIG     1      25.380  19.866  21.299  1.00  0.00     0.070 A 
HETATM    8 CL   LIG     1      26.418  19.056  22.479  1.00  0.00    -0.081 Cl
HETATM    9  C   LIG     1      25.490  19.550  19.933  1.00  0.00     0.080 A 
HETATM   10 CL   LIG     1      26.665  18.344  19.400  1.00  0.00    -0.081 Cl
HETATM   11 CL   LIG     1      22.696  21.958  18.236  1.00  0.00    -0.081 Cl
ENDROOT
BRANCH   6  12
HETATM   12  C   LIG     1      24.326  21.162  23.164  1.00  0.00     0.025 A 
HETATM   13  C   LIG     1      25.112  22.191  23.714  1.00  0.00     0.070 A 
HETATM   14  C   LIG     1      25.000  22.507  25.080  1.00  0.00     0.080 A 
HETATM   15 CL   LIG     1      26.242  23.087  22.692  1.00  0.00    -0.081 Cl
HETATM   16  C   LIG     1      24.103  21.796  25.895  1.00  0.00     0.081 A 
HETATM   17 CL   LIG     1      25.986  23.798  25.770  1.00  0.00    -0.081 Cl
HETATM   18  C   LIG     1      23.316  20.768  25.347  1.00  0.00     0.080 A 
HETATM   19 CL   LIG     1      23.962  22.194  27.609  1.00  0.00    -0.081 Cl
HETATM   20  C   LIG     1      23.427  20.449  23.982  1.00  0.00     0.070 A 
HETATM   21 CL   LIG     1      22.190  19.875  26.372  1.00  0.00    -0.081 Cl
HETATM   22 CL   LIG     1      22.437  19.156  23.294  1.00  0.00    -0.081 Cl
ENDBRANCH   6  12
TORSDOF 1
ENDMDL
MODEL 9
REMARK VINA RESULT:      -4.3      4.464      7.282
REMARK  1 active torsions:
REMARK  status: ('A' for Active; 'I' for Inactive)
REMARK    1  A    between atoms: C_6  and  C_7 
ROOT
HETATM    1 CL   LIG     1      24.309  22.521  23.372  1.00  0.00    -0.081 Cl
HETATM    2  C   LIG     1      25.265  22.801  21.915  1.00  0.00     0.081 A 
HETATM    3  C   LIG     1      24.651  22.754  20.652  1.00  0.00     0.080 A 
HETATM    4  C   LIG     1      25.412  22.976  19.491  1.00  0.00     0.070 A 
HETATM    5 CL   LIG     1      24.636  22.917  17.903  1.00  0.00    -0.081 Cl
HETATM    6  C   LIG     1      26.790  23.247  19.594  1.00  0.00     0.025 A 
HETATM    7  C   LIG     1      27.404  23.293  20.860  1.00  0.00     0.070 A 
HETATM    8 CL   LIG     1      29.134  23.632  20.994  1.00  0.00    -0.081 Cl
HETATM    9  C   LIG     1      26.641  23.070  22.020  1.00  0.00     0.080 A 
HETATM   10 CL   LIG     1      27.411  23.129  23.607  1.00  0.00    -0.081 Cl
HETATM   11 CL   LIG     1      22.923  22.416  20.523  1.00  0.00    -0.081 Cl
ENDROOT
BRANCH   6  12
HETATM   12  C   LIG     1      27.593  23.481  18.371  1.00  0.00     0.025 A 
HETATM   13  C   LIG     1      27.926  24.793  17.985  1.00  0.00     0.070 A 
HETATM   14  C   LIG     1      28.689  25.013  16.824  1.00  0.00     0.080 A 
HETATM   15 CL   LIG     1      27.387  26.166  18.959  1.00  0.00    -0.081 Cl
HETATM   16  C   LIG     1      29.118  23.922  16.048  1.00  0.00     0.081 A 
HETATM   17 CL   LIG     1      29.106  26.659  16.342  1.00  0.00    -0.081 Cl
HETATM   18  C   LIG     1      28.788  22.611  16.432  1.00  0.00     0.080 A 
HETATM   19 CL   LIG     1      30.076  24.199  14.592  1.00  0.00    -0.081 Cl
HETATM   20  C   LIG     1      28.025  22.389  17.592  1.00  0.00     0.070 A 
HETATM   21 CL   LIG     1      29.328  21.243  15.457  1.00  0.00    -0.081 Cl
HETATM   22 CL   LIG     1      27.609  20.739  18.072  1.00  0.00    -0.081 Cl
ENDBRANCH   6  12
TORSDOF 1
ENDMDL
MODEL 10
REMARK VINA RESULT:      -4.3      4.459      7.082
REMARK  1 active torsions:
REMARK  status: ('A' for Active; 'I' for Inactive)
REMARK    1  A    between atoms: C_6  and  C_7 
ROOT
HETATM    1 CL   LIG     1      24.315  22.518  23.375  1.00  0.00    -0.081 Cl
HETATM    2  C   LIG     1      25.272  22.791  21.917  1.00  0.00     0.081 A 
HETATM    3  C   LIG     1      24.659  22.742  20.654  1.00  0.00     0.080 A 
HETATM    4  C   LIG     1      25.421  22.958  19.493  1.00  0.00     0.070 A 
HETATM    5 CL   LIG     1      24.646  22.897  17.905  1.00  0.00    -0.081 Cl
HETATM    6  C   LIG     1      26.800  23.225  19.595  1.00  0.00     0.025 A 
HETATM    7  C   LIG     1      27.414  23.272  20.862  1.00  0.00     0.070 A 
HETATM    8 CL   LIG     1      29.145  23.606  20.995  1.00  0.00    -0.081 Cl
HETATM    9  C   LIG     1      26.649  23.055  22.022  1.00  0.00     0.080 A 
HETATM   10 CL   LIG     1      27.419  23.116  23.609  1.00  0.00    -0.081 Cl
HETATM   11 CL   LIG     1      22.930  22.409  20.525  1.00  0.00    -0.081 Cl
ENDROOT
BRANCH   6  12
HETATM   12  C   LIG     1      27.604  23.452  18.372  1.00  0.00     0.025 A 
HETATM   13  C   LIG     1      28.038  22.358  17.599  1.00  0.00     0.070 A 
HETATM   14  C   LIG     1      28.802  22.577  16.439  1.00  0.00     0.080 A 
HETATM   15 CL   LIG     1      27.625  20.710  18.086  1.00  0.00    -0.081 Cl
HETATM   16  C   LIG     1      29.132  23.886  16.050  1.00  0.00     0.081 A 
HETATM   17 CL   LIG     1      29.345  21.204  15.470  1.00  0.00    -0.081 Cl
HETATM   18  C   LIG     1      28.699  24.980  16.820  1.00  0.00     0.080 A 
HETATM   19 CL   LIG     1      30.090  24.158  14.593  1.00  0.00    -0.081 Cl
HETATM   20  C   LIG     1      27.936  24.765  17.981  1.00  0.00     0.070 A 
HETATM   21 CL   LIG     1      29.115  26.624  16.331  1.00  0.00    -0.081 Cl
HETATM   22 CL   LIG     1      27.393  26.141  18.948  1.00  0.00    -0.081 Cl
ENDBRANCH   6  12
TORSDOF 1
ENDMDL
MODEL 11
REMARK VINA RESULT:      -4.2      4.462      6.000
REMARK  1 active torsions:
REMARK  status: ('A' for Active; 'I' for Inactive)
REMARK    1  A    between atoms: C_6  and  C_7 
ROOT
HETATM    1 CL   LIG     1      30.129  24.225  14.658  1.00  0.00    -0.081 Cl
HETATM    2  C   LIG     1      29.163  23.942  16.108  1.00  0.00     0.081 A 
HETATM    3  C   LIG     1      28.829  22.631  16.485  1.00  0.00     0.080 A 
HETATM    4  C   LIG     1      28.060  22.404  17.640  1.00  0.00     0.070 A 
HETATM    5 CL   LIG     1      27.642  20.753  18.112  1.00  0.00    -0.081 Cl
HETATM    6  C   LIG     1      27.625  23.493  18.420  1.00  0.00     0.025 A 
HETATM    7  C   LIG     1      27.959  24.808  18.041  1.00  0.00     0.070 A 
HETATM    8 CL   LIG     1      27.414  26.177  19.016  1.00  0.00    -0.081 Cl
HETATM    9  C   LIG     1      28.729  25.031  16.885  1.00  0.00     0.080 A 
HETATM   10 CL   LIG     1      29.149  26.679  16.410  1.00  0.00    -0.081 Cl
HETATM   11 CL   LIG     1      29.376  21.266  15.508  1.00  0.00    -0.081 Cl
ENDROOT
BRANCH   6  12
HETATM   12  C   LIG     1      26.813  23.256  19.637  1.00  0.00     0.025 A 
HETATM   13  C   LIG     1      25.435  22.990  19.526  1.00  0.00     0.070 A 
HETATM   14  C   LIG     1      24.667  22.766  20.682  1.00  0.00     0.080 A 
HETATM   15 CL   LIG     1      24.669  22.939  17.934  1.00  0.00    -0.081 Cl
HETATM   16  C   LIG     1      25.275  22.808  21.949  1.00  0.00     0.081 A 
HETATM   17 CL   LIG     1      22.939  22.433  20.541  1.00  0.00    -0.081 Cl
HETATM   18  C   LIG     1      26.650  23.072  22.062  1.00  0.00     0.080 A 
HETATM   19 CL   LIG     1      24.309  22.525  23.399  1.00  0.00    -0.081 Cl
HETATM   20  C   LIG     1      27.421  23.297  20.908  1.00  0.00     0.070 A 
HETATM   21 CL   LIG     1      27.412  23.124  23.654  1.00  0.00    -0.081 Cl
HETATM   22 CL   LIG     1      29.151  23.631  21.052  1.00  0.00    -0.081 Cl
ENDBRANCH   6  12
TORSDOF 1
ENDMDL
MODEL 12
REMARK VINA RESULT:      -4.2      4.485      6.196
REMARK  1 active torsions:
REMARK  status: ('A' for Active; 'I' for Inactive)
REMARK    1  A    between atoms: C_6  and  C_7 
ROOT
HETATM    1 CL   LIG     1      30.142  24.207  14.690  1.00  0.00    -0.081 Cl
HETATM    2  C   LIG     1      29.210  23.941  16.165  1.00  0.00     0.081 A 
HETATM    3  C   LIG     1      28.925  22.633  16.591  1.00  0.00     0.080 A 
HETATM    4  C   LIG     1      28.183  22.420  17.765  1.00  0.00     0.070 A 
HETATM    5 CL   LIG     1      27.827  20.773  18.298  1.00  0.00    -0.081 Cl
HETATM    6  C   LIG     1      27.725  23.519  18.517  1.00  0.00     0.025 A 
HETATM    7  C   LIG     1      28.010  24.831  18.089  1.00  0.00     0.070 A 
HETATM    8 CL   LIG     1      27.437  26.214  19.029  1.00  0.00    -0.081 Cl
HETATM    9  C   LIG     1      28.753  25.040  16.914  1.00  0.00     0.080 A 
HETATM   10 CL   LIG     1      29.111  26.684  16.379  1.00  0.00    -0.081 Cl
HETATM   11 CL   LIG     1      29.500  21.254  15.650  1.00  0.00    -0.081 Cl
ENDROOT
BRANCH   6  12
HETATM   12  C   LIG     1      26.941  23.297  19.755  1.00  0.00     0.025 A 
HETATM   13  C   LIG     1      27.578  23.336  21.010  1.00  0.00     0.070 A 
HETATM   14  C   LIG     1      26.833  23.125  22.183  1.00  0.00     0.080 A 
HETATM   15 CL   LIG     1      29.315  23.649  21.112  1.00  0.00    -0.081 Cl
HETATM   16  C   LIG     1      25.452  22.875  22.104  1.00  0.00     0.081 A 
HETATM   17 CL   LIG     1      27.633  23.173  23.756  1.00  0.00    -0.081 Cl
HETATM   18  C   LIG     1      24.814  22.837  20.852  1.00  0.00     0.080 A 
HETATM   19 CL   LIG     1      24.518  22.611  23.578  1.00  0.00    -0.081 Cl
HETATM   20  C   LIG     1      25.557  23.047  19.677  1.00  0.00     0.070 A 
HETATM   21 CL   LIG     1      23.080  22.523  20.754  1.00  0.00    -0.081 Cl
HETATM   22 CL   LIG     1      24.753  22.998  18.104  1.00  0.00    -0.081 Cl
ENDBRANCH   6  12
TORSDOF 1
ENDMDL
MODEL 13
REMARK VINA RESULT:      -4.2      1.672      6.227
REMARK  1 active torsions:
REMARK  status: ('A' for Active; 'I' for Inactive)
REMARK    1  A    between atoms: C_6  and  C_7 
ROOT
HETATM    1 CL   LIG     1      22.886  21.005  27.625  1.00  0.00    -0.081 Cl
HETATM    2  C   LIG     1      23.338  20.881  25.924  1.00  0.00     0.081 A 
HETATM    3  C   LIG     1      24.272  21.777  25.377  1.00  0.00     0.080 A 
HETATM    4  C   LIG     1      24.632  21.680  24.022  1.00  0.00     0.070 A 
HETATM    5 CL   LIG     1      25.808  22.808  23.339  1.00  0.00    -0.081 Cl
HETATM    6  C   LIG     1      24.057  20.682  23.211  1.00  0.00     0.025 A 
HETATM    7  C   LIG     1      23.120  19.785  23.759  1.00  0.00     0.070 A 
HETATM    8 CL   LIG     1      22.395  18.532  22.745  1.00  0.00    -0.081 Cl
HETATM    9  C   LIG     1      22.761  19.885  25.115  1.00  0.00     0.080 A 
HETATM   10 CL   LIG     1      21.588  18.759  25.802  1.00  0.00    -0.081 Cl
HETATM   11 CL   LIG     1      24.994  23.027  26.394  1.00  0.00    -0.081 Cl
ENDROOT
BRANCH   6  12
HETATM   12  C   LIG     1      24.435  20.578  21.782  1.00  0.00     0.025 A 
HETATM   13  C   LIG     1      25.497  19.741  21.392  1.00  0.00     0.070 A 
HETATM   14  C   LIG     1      25.855  19.645  20.036  1.00  0.00     0.080 A 
HETATM   15 CL   LIG     1      26.385  18.812  22.606  1.00  0.00    -0.081 Cl
HETATM   16  C   LIG     1      25.151  20.383  19.069  1.00  0.00     0.081 A 
HETATM   17 CL   LIG     1      27.187  18.595  19.548  1.00  0.00    -0.081 Cl
HETATM   18  C   LIG     1      24.089  21.219  19.456  1.00  0.00     0.080 A 
HETATM   19 CL   LIG     1      25.600  20.260  17.366  1.00  0.00    -0.081 Cl
HETATM   20  C   LIG     1      23.730  21.318  20.812  1.00  0.00     0.070 A 
HETATM   21 CL   LIG     1      23.206  22.146  18.240  1.00  0.00    -0.081 Cl
HETATM   22 CL   LIG     1      22.395  22.370  21.297  1.00  0.00    -0.081 Cl
ENDBRANCH   6  12
TORSDOF 1
ENDMDL
MODEL 14
REMARK VINA RESULT:      -4.1     12.253     14.188
REMARK  1 active torsions:
REMARK  status: ('A' for Active; 'I' for Inactive)
REMARK    1  A    between atoms: C_6  and  C_7 
ROOT
HETATM    1 CL   LIG     1      17.833  20.187  36.119  1.00  0.00    -0.081 Cl
HETATM    2  C   LIG     1      19.531  20.670  36.100  1.00  0.00     0.081 A 
HETATM    3  C   LIG     1      20.475  19.951  36.851  1.00  0.00     0.080 A 
HETATM    4  C   LIG     1      21.827  20.335  36.836  1.00  0.00     0.070 A 
HETATM    5 CL   LIG     1      23.013  19.427  37.781  1.00  0.00    -0.081 Cl
HETATM    6  C   LIG     1      22.236  21.443  36.068  1.00  0.00     0.025 A 
HETATM    7  C   LIG     1      21.288  22.164  35.316  1.00  0.00     0.070 A 
HETATM    8 CL   LIG     1      21.796  23.555  34.352  1.00  0.00    -0.081 Cl
HETATM    9  C   LIG     1      19.936  21.777  35.333  1.00  0.00     0.080 A 
HETATM   10 CL   LIG     1      18.749  22.681  34.390  1.00  0.00    -0.081 Cl
HETATM   11 CL   LIG     1      19.964  18.561  37.813  1.00  0.00    -0.081 Cl
ENDROOT
BRANCH   6  12
HETATM   12  C   LIG     1      23.660  21.850  36.052  1.00  0.00     0.025 A 
HETATM   13  C   LIG     1      24.128  22.815  36.964  1.00  0.00     0.070 A 
HETATM   14  C   LIG     1      25.481  23.200  36.947  1.00  0.00     0.080 A 
HETATM   15 CL   LIG     1      23.018  23.545  38.129  1.00  0.00    -0.081 Cl
HETATM   16  C   LIG     1      26.365  22.622  36.020  1.00  0.00     0.081 A 
HETATM   17 CL   LIG     1      26.067  24.410  38.090  1.00  0.00    -0.081 Cl
HETATM   18  C   LIG     1      25.900  21.657  35.110  1.00  0.00     0.080 A 
HETATM   19 CL   LIG     1      28.063  23.105  36.001  1.00  0.00    -0.081 Cl
HETATM   20  C   LIG     1      24.548  21.271  35.124  1.00  0.00     0.070 A 
HETATM   21 CL   LIG     1      27.012  20.932  33.946  1.00  0.00    -0.081 Cl
HETATM   22 CL   LIG     1      23.965  20.058  33.978  1.00  0.00    -0.081 Cl
ENDBRANCH   6  12
TORSDOF 1
ENDMDL
MODEL 15
REMARK VINA RESULT:      -4.1      3.473      6.842
REMARK  1 active torsions:
REMARK  status: ('A' for Active; 'I' for Inactive)
REMARK    1  A    between atoms: C_6  and  C_7 
ROOT
HETATM    1 CL   LIG     1      30.544  26.443  20.530  1.00  0.00    -0.081 Cl
HETATM    2  C   LIG     1      29.265  25.258  20.258  1.00  0.00     0.081 A 
HETATM    3  C   LIG     1      29.327  24.001  20.882  1.00  0.00     0.080 A 
HETATM    4  C   LIG     1      28.309  23.056  20.666  1.00  0.00     0.070 A 
HETATM    5 CL   LIG     1      28.390  21.475  21.454  1.00  0.00    -0.081 Cl
HETATM    6  C   LIG     1      27.225  23.370  19.824  1.00  0.00     0.025 A 
HETATM    7  C   LIG     1      27.164  24.630  19.197  1.00  0.00     0.070 A 
HETATM    8 CL   LIG     1      25.806  25.029  18.138  1.00  0.00    -0.081 Cl
HETATM    9  C   LIG     1      28.184  25.573  19.416  1.00  0.00     0.080 A 
HETATM   10 CL   LIG     1      28.107  27.153  18.631  1.00  0.00    -0.081 Cl
HETATM   11 CL   LIG     1      30.684  23.606  21.940  1.00  0.00    -0.081 Cl
ENDROOT
BRANCH   6  12
HETATM   12  C   LIG     1      26.151  22.375  19.594  1.00  0.00     0.025 A 
HETATM   13  C   LIG     1      25.094  22.252  20.515  1.00  0.00     0.070 A 
HETATM   14  C   LIG     1      24.076  21.307  20.295  1.00  0.00     0.080 A 
HETATM   15 CL   LIG     1      25.045  23.284  21.950  1.00  0.00    -0.081 Cl
HETATM   16  C   LIG     1      24.114  20.486  19.156  1.00  0.00     0.081 A 
HETATM   17 CL   LIG     1      22.751  21.154  21.452  1.00  0.00    -0.081 Cl
HETATM   18  C   LIG     1      25.168  20.608  18.234  1.00  0.00     0.080 A 
HETATM   19 CL   LIG     1      22.834  19.301  18.881  1.00  0.00    -0.081 Cl
HETATM   20  C   LIG     1      26.187  21.551  18.451  1.00  0.00     0.070 A 
HETATM   21 CL   LIG     1      25.213  19.575  16.803  1.00  0.00    -0.081 Cl
HETATM   22 CL   LIG     1      27.512  21.702  17.292  1.00  0.00    -0.081 Cl
ENDBRANCH   6  12
TORSDOF 1
ENDMDL
MODEL 16
REMARK VINA RESULT:      -4.1      3.481      7.101
REMARK  1 active torsions:
REMARK  status: ('A' for Active; 'I' for Inactive)
REMARK    1  A    between atoms: C_6  and  C_7 
ROOT
HETATM    1 CL   LIG     1      30.546  26.444  20.529  1.00  0.00    -0.081 Cl
HETATM    2  C   LIG     1      29.265  25.261  20.252  1.00  0.00     0.081 A 
HETATM    3  C   LIG     1      29.326  24.002  20.872  1.00  0.00     0.080 A 
HETATM    4  C   LIG     1      28.307  23.059  20.653  1.00  0.00     0.070 A 
HETATM    5 CL   LIG     1      28.386  21.476  21.435  1.00  0.00    -0.081 Cl
HETATM    6  C   LIG     1      27.224  23.378  19.811  1.00  0.00     0.025 A 
HETATM    7  C   LIG     1      27.164  24.640  19.189  1.00  0.00     0.070 A 
HETATM    8 CL   LIG     1      25.807  25.043  18.131  1.00  0.00    -0.081 Cl
HETATM    9  C   LIG     1      28.186  25.581  19.411  1.00  0.00     0.080 A 
HETATM   10 CL   LIG     1      28.110  27.163  18.632  1.00  0.00    -0.081 Cl
HETATM   11 CL   LIG     1      30.683  23.603  21.929  1.00  0.00    -0.081 Cl
ENDROOT
BRANCH   6  12
HETATM   12  C   LIG     1      26.149  22.385  19.578  1.00  0.00     0.025 A 
HETATM   13  C   LIG     1      26.179  21.568  18.431  1.00  0.00     0.070 A 
HETATM   14  C   LIG     1      25.158  20.627  18.212  1.00  0.00     0.080 A 
HETATM   15 CL   LIG     1      27.499  21.725  17.267  1.00  0.00    -0.081 Cl
HETATM   16  C   LIG     1      24.107  20.501  19.136  1.00  0.00     0.081 A 
HETATM   17 CL   LIG     1      25.197  19.603  16.774  1.00  0.00    -0.081 Cl
HETATM   18  C   LIG     1      24.075  21.314  20.282  1.00  0.00     0.080 A 
HETATM   19 CL   LIG     1      22.826  19.317  18.860  1.00  0.00    -0.081 Cl
HETATM   20  C   LIG     1      25.094  22.257  20.504  1.00  0.00     0.070 A 
HETATM   21 CL   LIG     1      22.754  21.155  21.443  1.00  0.00    -0.081 Cl
HETATM   22 CL   LIG     1      25.053  23.280  21.945  1.00  0.00    -0.081 Cl
ENDBRANCH   6  12
TORSDOF 1
ENDMDL
MODEL 17
REMARK VINA RESULT:      -4.1      3.040      7.455
REMARK  1 active torsions:
REMARK  status: ('A' for Active; 'I' for Inactive)
REMARK    1  A    between atoms: C_6  and  C_7 
ROOT
HETATM    1 CL   LIG     1      23.196  21.170  23.763  1.00  0.00    -0.081 Cl
HETATM    2  C   LIG     1      23.720  20.824  22.114  1.00  0.00     0.081 A 
HETATM    3  C   LIG     1      23.254  21.611  21.048  1.00  0.00     0.080 A 
HETATM    4  C   LIG     1      23.671  21.336  19.734  1.00  0.00     0.070 A 
HETATM    5 CL   LIG     1      23.082  22.329  18.395  1.00  0.00    -0.081 Cl
HETATM    6  C   LIG     1      24.558  20.271  19.486  1.00  0.00     0.025 A 
HETATM    7  C   LIG     1      25.025  19.482  20.555  1.00  0.00     0.070 A 
HETATM    8 CL   LIG     1      26.138  18.143  20.248  1.00  0.00    -0.081 Cl
HETATM    9  C   LIG     1      24.605  19.760  21.868  1.00  0.00     0.080 A 
HETATM   10 CL   LIG     1      25.192  18.771  23.208  1.00  0.00    -0.081 Cl
HETATM   11 CL   LIG     1      22.143  22.947  21.358  1.00  0.00    -0.081 Cl
ENDROOT
BRANCH   6  12
HETATM   12  C   LIG     1      24.998  19.979  18.101  1.00  0.00     0.025 A 
HETATM   13  C   LIG     1      26.227  20.480  17.631  1.00  0.00     0.070 A 
HETATM   14  C   LIG     1      26.642  20.202  16.317  1.00  0.00     0.080 A 
HETATM   15 CL   LIG     1      27.247  21.461  18.689  1.00  0.00    -0.081 Cl
HETATM   16  C   LIG     1      25.832  19.424  15.473  1.00  0.00     0.081 A 
HETATM   17 CL   LIG     1      28.182  20.832  15.727  1.00  0.00    -0.081 Cl
HETATM   18  C   LIG     1      24.605  18.921  15.941  1.00  0.00     0.080 A 
HETATM   19 CL   LIG     1      26.355  19.074  13.823  1.00  0.00    -0.081 Cl
HETATM   20  C   LIG     1      24.187  19.198  17.254  1.00  0.00     0.070 A 
HETATM   21 CL   LIG     1      23.588  17.943  14.880  1.00  0.00    -0.081 Cl
HETATM   22 CL   LIG     1      22.644  18.566  17.841  1.00  0.00    -0.081 Cl
ENDBRANCH   6  12
TORSDOF 1
ENDMDL
MODEL 18
REMARK VINA RESULT:      -4.1      3.037      7.079
REMARK  1 active torsions:
REMARK  status: ('A' for Active; 'I' for Inactive)
REMARK    1  A    between atoms: C_6  and  C_7 
ROOT
HETATM    1 CL   LIG     1      23.184  21.202  23.748  1.00  0.00    -0.081 Cl
HETATM    2  C   LIG     1      23.714  20.851  22.101  1.00  0.00     0.081 A 
HETATM    3  C   LIG     1      23.233  21.621  21.029  1.00  0.00     0.080 A 
HETATM    4  C   LIG     1      23.653  21.342  19.717  1.00  0.00     0.070 A 
HETATM    5 CL   LIG     1      23.047  22.313  18.371  1.00  0.00    -0.081 Cl
HETATM    6  C   LIG     1      24.559  20.290  19.477  1.00  0.00     0.025 A 
HETATM    7  C   LIG     1      25.040  19.518  20.552  1.00  0.00     0.070 A 
HETATM    8 CL   LIG     1      26.175  18.196  20.256  1.00  0.00    -0.081 Cl
HETATM    9  C   LIG     1      24.617  19.800  21.863  1.00  0.00     0.080 A 
HETATM   10 CL   LIG     1      25.221  18.832  23.211  1.00  0.00    -0.081 Cl
HETATM   11 CL   LIG     1      22.099  22.940  21.329  1.00  0.00    -0.081 Cl
ENDROOT
BRANCH   6  12
HETATM   12  C   LIG     1      25.003  19.994  18.095  1.00  0.00     0.025 A 
HETATM   13  C   LIG     1      24.201  19.204  17.250  1.00  0.00     0.070 A 
HETATM   14  C   LIG     1      24.624  18.925  15.938  1.00  0.00     0.080 A 
HETATM   15 CL   LIG     1      22.662  18.562  17.835  1.00  0.00    -0.081 Cl
HETATM   16  C   LIG     1      25.848  19.434  15.471  1.00  0.00     0.081 A 
HETATM   17 CL   LIG     1      23.618  17.934  14.880  1.00  0.00    -0.081 Cl
HETATM   18  C   LIG     1      26.650  20.224  16.313  1.00  0.00     0.080 A 
HETATM   19 CL   LIG     1      26.378  19.083  13.824  1.00  0.00    -0.081 Cl
HETATM   20  C   LIG     1      26.230  20.504  17.624  1.00  0.00     0.070 A 
HETATM   21 CL   LIG     1      28.187  20.862  15.724  1.00  0.00    -0.081 Cl
HETATM   22 CL   LIG     1      27.239  21.497  18.682  1.00  0.00    -0.081 Cl
ENDBRANCH   6  12
TORSDOF 1
ENDMDL
MODEL 19
REMARK VINA RESULT:      -3.9      3.018      4.604
REMARK  1 active torsions:
REMARK  status: ('A' for Active; 'I' for Inactive)
REMARK    1  A    between atoms: C_6  and  C_7 
ROOT
HETATM    1 CL   LIG     1      24.226  18.534  15.478  1.00  0.00    -0.081 Cl
HETATM    2  C   LIG     1      24.861  19.612  16.722  1.00  0.00     0.081 A 
HETATM    3  C   LIG     1      23.988  20.216  17.642  1.00  0.00     0.080 A 
HETATM    4  C   LIG     1      24.493  21.075  18.633  1.00  0.00     0.070 A 
HETATM    5 CL   LIG     1      23.391  21.832  19.790  1.00  0.00    -0.081 Cl
HETATM    6  C   LIG     1      25.876  21.331  18.705  1.00  0.00     0.025 A 
HETATM    7  C   LIG     1      26.751  20.726  17.782  1.00  0.00     0.070 A 
HETATM    8 CL   LIG     1      28.487  21.045  17.867  1.00  0.00    -0.081 Cl
HETATM    9  C   LIG     1      26.242  19.867  16.791  1.00  0.00     0.080 A 
HETATM   10 CL   LIG     1      27.340  19.109  15.634  1.00  0.00    -0.081 Cl
HETATM   11 CL   LIG     1      22.254  19.894  17.554  1.00  0.00    -0.081 Cl
ENDROOT
BRANCH   6  12
HETATM   12  C   LIG     1      26.410  22.237  19.749  1.00  0.00     0.025 A 
HETATM   13  C   LIG     1      26.584  23.606  19.472  1.00  0.00     0.070 A 
HETATM   14  C   LIG     1      27.091  24.464  20.464  1.00  0.00     0.080 A 
HETATM   15 CL   LIG     1      26.167  24.249  17.880  1.00  0.00    -0.081 Cl
HETATM   16  C   LIG     1      27.424  23.955  21.731  1.00  0.00     0.081 A 
HETATM   17 CL   LIG     1      27.309  26.181  20.117  1.00  0.00    -0.081 Cl
HETATM   18  C   LIG     1      27.250  22.589  22.010  1.00  0.00     0.080 A 
HETATM   19 CL   LIG     1      28.059  25.034  22.976  1.00  0.00    -0.081 Cl
HETATM   20  C   LIG     1      26.744  21.728  21.020  1.00  0.00     0.070 A 
HETATM   21 CL   LIG     1      27.669  21.951  23.602  1.00  0.00    -0.081 Cl
HETATM   22 CL   LIG     1      26.526  20.010  21.371  1.00  0.00    -0.081 Cl
ENDBRANCH   6  12
TORSDOF 1
ENDMDL
MODEL 20
REMARK VINA RESULT:      -1.7     12.260     14.209
REMARK  1 active torsions:
REMARK  status: ('A' for Active; 'I' for Inactive)
REMARK    1  A    between atoms: C_6  and  C_7 
ROOT
HETATM    1 CL   LIG     1      18.069  20.137  36.225  1.00  0.00    -0.081 Cl
HETATM    2  C   LIG     1      19.760  20.643  36.178  1.00  0.00     0.081 A 
HETATM    3  C   LIG     1      20.726  19.937  36.914  1.00  0.00     0.080 A 
HETATM    4  C   LIG     1      22.072  20.339  36.878  1.00  0.00     0.070 A 
HETATM    5 CL   LIG     1      23.285  19.447  37.805  1.00  0.00    -0.081 Cl
HETATM    6  C   LIG     1      22.453  21.451  36.103  1.00  0.00     0.025 A 
HETATM    7  C   LIG     1      21.484  22.159  35.366  1.00  0.00     0.070 A 
HETATM    8 CL   LIG     1      21.958  23.557  34.392  1.00  0.00    -0.081 Cl
HETATM    9  C   LIG     1      20.138  21.754  35.404  1.00  0.00     0.080 A 
HETATM   10 CL   LIG     1      18.924  22.642  34.480  1.00  0.00    -0.081 Cl
HETATM   11 CL   LIG     1      20.249  18.542  37.885  1.00  0.00    -0.081 Cl
ENDROOT
BRANCH   6  12
HETATM   12  C   LIG     1      23.872  21.877  36.064  1.00  0.00     0.025 A 
HETATM   13  C   LIG     1      24.757  21.301  35.133  1.00  0.00     0.070 A 
HETATM   14  C   LIG     1      26.103  21.707  35.099  1.00  0.00     0.080 A 
HETATM   15 CL   LIG     1      24.179  20.066  34.008  1.00  0.00    -0.081 Cl
HETATM   16  C   LIG     1      26.565  22.688  35.993  1.00  0.00     0.081 A 
HETATM   17 CL   LIG     1      27.212  20.983  33.931  1.00  0.00    -0.081 Cl
HETATM   18  C   LIG     1      25.683  23.265  36.922  1.00  0.00     0.080 A 
HETATM   19 CL   LIG     1      28.254  23.197  35.947  1.00  0.00    -0.081 Cl
HETATM   20  C   LIG     1      24.337  22.861  36.960  1.00  0.00     0.070 A 
HETATM   21 CL   LIG     1      26.264  24.498  38.045  1.00  0.00    -0.081 Cl
HETATM   22 CL   LIG     1      23.229  23.588  38.130  1.00  0.00    -0.081 Cl
ENDBRANCH   6  12
TORSDOF 1
ENDMDL
