REMARK  1 active torsions:
REMARK  status: ('A' for Active; 'I' for Inactive)
REMARK    1  A    between atoms: C_7  and  C_8 
ROOT
HETATM    1 CL   LIG     1       0.804  -2.678  -0.684  1.00  0.00    -0.083 Cl
HETATM    2  C   LIG     1       1.529  -1.104  -0.373  1.00  0.00     0.045 A 
HETATM    3  C   LIG     1       2.925  -0.996  -0.427  1.00  0.00     0.024 A 
HETATM    4  C   LIG     1       3.551   0.217  -0.133  1.00  0.00     0.002 A 
HETATM    5  C   LIG     1       2.788   1.329   0.224  1.00  0.00     0.001 A 
HETATM    6  C   LIG     1       1.396   1.234   0.281  1.00  0.00     0.014 A 
HETATM    7  C   LIG     1       0.750   0.023  -0.024  1.00  0.00    -0.004 A 
ENDROOT
BRANCH   7   8
HETATM    8  C   LIG     1      -0.728  -0.040   0.033  1.00  0.00    -0.024 A 
HETATM    9  C   LIG     1      -1.471  -0.427  -1.096  1.00  0.00     0.012 A 
HETATM   10  C   LIG     1      -2.867  -0.467  -1.042  1.00  0.00     0.001 A 
HETATM   11  C   LIG     1      -3.533  -0.113   0.136  1.00  0.00     0.000 A 
HETATM   12  C   LIG     1      -2.803   0.285   1.259  1.00  0.00     0.001 A 
HETATM   13  C   LIG     1      -1.406   0.326   1.208  1.00  0.00     0.012 A 
ENDBRANCH   7   8
TORSDOF 1
