MODEL 1
REMARK VINA RESULT:      -8.8      0.000      0.000
REMARK  0 active torsions:
REMARK  status: ('A' for Active; 'I' for Inactive)
ROOT
HETATM    1  C   LIG     1      17.962  36.898  24.667  1.00  0.00    -0.014 A 
HETATM    2  C   LIG     1      17.375  35.674  24.358  1.00  0.00    -0.014 A 
HETATM    3  C   LIG     1      17.143  34.711  25.336  1.00  0.00     0.013 A 
HETATM    4  C   LIG     1      17.518  35.012  26.659  1.00  0.00     0.001 A 
HETATM    5  C   LIG     1      18.113  36.254  26.973  1.00  0.00     0.001 A 
HETATM    6  C   LIG     1      18.340  37.213  25.969  1.00  0.00     0.013 A 
HETATM    7  C   LIG     1      17.103  35.664  22.919  1.00  0.00    -0.013 A 
HETATM    8  C   LIG     1      16.537  34.726  22.055  1.00  0.00     0.013 A 
HETATM    9  C   LIG     1      16.429  35.068  20.686  1.00  0.00     0.002 A 
HETATM   10  C   LIG     1      16.884  36.327  20.212  1.00  0.00     0.012 A 
HETATM   11  C   LIG     1      17.450  37.249  21.113  1.00  0.00    -0.024 A 
HETATM   12  C   LIG     1      17.536  36.873  22.442  1.00  0.00    -0.004 A 
HETATM   13  C   LIG     1      18.062  37.667  23.426  1.00  0.00    -0.013 A 
HETATM   14  C   LIG     1      18.553  38.937  23.120  1.00  0.00     0.013 A 
HETATM   15  C   LIG     1      18.487  39.365  21.772  1.00  0.00     0.002 A 
HETATM   16  C   LIG     1      17.937  38.526  20.768  1.00  0.00     0.012 A 
ENDROOT
TORSDOF 0
ENDMDL
MODEL 2
REMARK VINA RESULT:      -8.8      0.002      2.964
REMARK  0 active torsions:
REMARK  status: ('A' for Active; 'I' for Inactive)
ROOT
HETATM    1  C   LIG     1      17.376  35.674  24.358  1.00  0.00    -0.014 A 
HETATM    2  C   LIG     1      17.963  36.898  24.668  1.00  0.00    -0.014 A 
HETATM    3  C   LIG     1      18.342  37.213  25.969  1.00  0.00     0.013 A 
HETATM    4  C   LIG     1      18.116  36.253  26.973  1.00  0.00     0.001 A 
HETATM    5  C   LIG     1      17.521  35.011  26.659  1.00  0.00     0.001 A 
HETATM    6  C   LIG     1      17.144  34.712  25.337  1.00  0.00     0.013 A 
HETATM    7  C   LIG     1      18.062  37.668  23.426  1.00  0.00    -0.013 A 
HETATM    8  C   LIG     1      18.553  38.937  23.120  1.00  0.00     0.013 A 
HETATM    9  C   LIG     1      18.487  39.366  21.773  1.00  0.00     0.002 A 
HETATM   10  C   LIG     1      17.937  38.526  20.768  1.00  0.00     0.012 A 
HETATM   11  C   LIG     1      17.450  37.250  21.113  1.00  0.00    -0.024 A 
HETATM   12  C   LIG     1      17.535  36.873  22.443  1.00  0.00    -0.004 A 
HETATM   13  C   LIG     1      17.103  35.665  22.920  1.00  0.00    -0.013 A 
HETATM   14  C   LIG     1      16.537  34.727  22.056  1.00  0.00     0.013 A 
HETATM   15  C   LIG     1      16.429  35.069  20.687  1.00  0.00     0.002 A 
HETATM   16  C   LIG     1      16.883  36.327  20.212  1.00  0.00     0.012 A 
ENDROOT
TORSDOF 0
ENDMDL
MODEL 3
REMARK VINA RESULT:      -7.9      1.456      4.608
REMARK  0 active torsions:
REMARK  status: ('A' for Active; 'I' for Inactive)
ROOT
HETATM    1  C   LIG     1      18.569  38.439  20.989  1.00  0.00    -0.014 A 
HETATM    2  C   LIG     1      18.170  37.380  20.178  1.00  0.00    -0.014 A 
HETATM    3  C   LIG     1      18.464  37.355  18.818  1.00  0.00     0.013 A 
HETATM    4  C   LIG     1      19.185  38.437  18.279  1.00  0.00     0.001 A 
HETATM    5  C   LIG     1      19.591  39.511  19.102  1.00  0.00     0.001 A 
HETATM    6  C   LIG     1      19.283  39.518  20.474  1.00  0.00     0.013 A 
HETATM    7  C   LIG     1      17.450  36.424  21.022  1.00  0.00    -0.013 A 
HETATM    8  C   LIG     1      16.831  35.199  20.772  1.00  0.00     0.013 A 
HETATM    9  C   LIG     1      16.216  34.533  21.860  1.00  0.00     0.002 A 
HETATM   10  C   LIG     1      16.233  35.099  23.162  1.00  0.00     0.012 A 
HETATM   11  C   LIG     1      16.867  36.338  23.378  1.00  0.00    -0.024 A 
HETATM   12  C   LIG     1      17.455  36.953  22.285  1.00  0.00    -0.004 A 
HETATM   13  C   LIG     1      18.105  38.156  22.348  1.00  0.00    -0.013 A 
HETATM   14  C   LIG     1      18.207  38.841  23.559  1.00  0.00     0.013 A 
HETATM   15  C   LIG     1      17.621  38.250  24.704  1.00  0.00     0.002 A 
HETATM   16  C   LIG     1      16.952  37.001  24.618  1.00  0.00     0.012 A 
ENDROOT
TORSDOF 0
ENDMDL
MODEL 4
REMARK VINA RESULT:      -7.9      1.454      5.412
REMARK  0 active torsions:
REMARK  status: ('A' for Active; 'I' for Inactive)
ROOT
HETATM    1  C   LIG     1      18.186  37.385  20.188  1.00  0.00    -0.014 A 
HETATM    2  C   LIG     1      18.585  38.445  20.997  1.00  0.00    -0.014 A 
HETATM    3  C   LIG     1      19.299  39.524  20.483  1.00  0.00     0.013 A 
HETATM    4  C   LIG     1      19.608  39.516  19.110  1.00  0.00     0.001 A 
HETATM    5  C   LIG     1      19.202  38.441  18.288  1.00  0.00     0.001 A 
HETATM    6  C   LIG     1      18.482  37.360  18.827  1.00  0.00     0.013 A 
HETATM    7  C   LIG     1      18.119  38.164  22.357  1.00  0.00    -0.013 A 
HETATM    8  C   LIG     1      18.220  38.849  23.568  1.00  0.00     0.013 A 
HETATM    9  C   LIG     1      17.633  38.260  24.713  1.00  0.00     0.002 A 
HETATM   10  C   LIG     1      16.962  37.011  24.626  1.00  0.00     0.012 A 
HETATM   11  C   LIG     1      16.880  36.347  23.387  1.00  0.00    -0.024 A 
HETATM   12  C   LIG     1      17.469  36.960  22.293  1.00  0.00    -0.004 A 
HETATM   13  C   LIG     1      17.466  36.431  21.031  1.00  0.00    -0.013 A 
HETATM   14  C   LIG     1      16.846  35.205  20.781  1.00  0.00     0.013 A 
HETATM   15  C   LIG     1      16.231  34.542  21.869  1.00  0.00     0.002 A 
HETATM   16  C   LIG     1      16.245  35.108  23.171  1.00  0.00     0.012 A 
ENDROOT
TORSDOF 0
ENDMDL
MODEL 5
REMARK VINA RESULT:      -7.9      2.005      4.337
REMARK  0 active torsions:
REMARK  status: ('A' for Active; 'I' for Inactive)
ROOT
HETATM    1  C   LIG     1      16.778  35.777  20.280  1.00  0.00    -0.014 A 
HETATM    2  C   LIG     1      16.317  35.841  21.592  1.00  0.00    -0.014 A 
HETATM    3  C   LIG     1      15.373  34.940  22.076  1.00  0.00     0.013 A 
HETATM    4  C   LIG     1      14.894  33.951  21.197  1.00  0.00     0.001 A 
HETATM    5  C   LIG     1      15.362  33.886  19.865  1.00  0.00     0.001 A 
HETATM    6  C   LIG     1      16.315  34.807  19.396  1.00  0.00     0.013 A 
HETATM    7  C   LIG     1      16.995  36.963  22.246  1.00  0.00    -0.013 A 
HETATM    8  C   LIG     1      16.941  37.501  23.532  1.00  0.00     0.013 A 
HETATM    9  C   LIG     1      17.761  38.618  23.817  1.00  0.00     0.002 A 
HETATM   10  C   LIG     1      18.612  39.169  22.823  1.00  0.00     0.012 A 
HETATM   11  C   LIG     1      18.642  38.600  21.535  1.00  0.00    -0.024 A 
HETATM   12  C   LIG     1      17.822  37.509  21.300  1.00  0.00    -0.004 A 
HETATM   13  C   LIG     1      17.749  36.856  20.099  1.00  0.00    -0.013 A 
HETATM   14  C   LIG     1      18.526  37.278  19.019  1.00  0.00     0.013 A 
HETATM   15  C   LIG     1      19.379  38.391  19.212  1.00  0.00     0.002 A 
HETATM   16  C   LIG     1      19.440  39.053  20.466  1.00  0.00     0.012 A 
ENDROOT
TORSDOF 0
ENDMDL
MODEL 6
REMARK VINA RESULT:      -7.9      1.993      4.230
REMARK  0 active torsions:
REMARK  status: ('A' for Active; 'I' for Inactive)
ROOT
HETATM    1  C   LIG     1      16.335  35.841  21.584  1.00  0.00    -0.014 A 
HETATM    2  C   LIG     1      16.782  35.787  20.267  1.00  0.00    -0.014 A 
HETATM    3  C   LIG     1      16.312  34.824  19.378  1.00  0.00     0.013 A 
HETATM    4  C   LIG     1      15.362  33.900  19.850  1.00  0.00     0.001 A 
HETATM    5  C   LIG     1      14.908  33.954  21.186  1.00  0.00     0.001 A 
HETATM    6  C   LIG     1      15.396  34.935  22.069  1.00  0.00     0.013 A 
HETATM    7  C   LIG     1      17.754  36.868  20.085  1.00  0.00    -0.013 A 
HETATM    8  C   LIG     1      18.519  37.299  19.001  1.00  0.00     0.013 A 
HETATM    9  C   LIG     1      19.374  38.409  19.195  1.00  0.00     0.002 A 
HETATM   10  C   LIG     1      19.447  39.062  20.454  1.00  0.00     0.012 A 
HETATM   11  C   LIG     1      18.659  38.600  21.526  1.00  0.00    -0.024 A 
HETATM   12  C   LIG     1      17.838  37.510  21.292  1.00  0.00    -0.004 A 
HETATM   13  C   LIG     1      17.020  36.956  22.239  1.00  0.00    -0.013 A 
HETATM   14  C   LIG     1      16.977  37.484  23.530  1.00  0.00     0.013 A 
HETATM   15  C   LIG     1      17.801  38.598  23.817  1.00  0.00     0.002 A 
HETATM   16  C   LIG     1      18.641  39.159  22.820  1.00  0.00     0.012 A 
ENDROOT
TORSDOF 0
ENDMDL
MODEL 7
REMARK VINA RESULT:      -7.7      0.937      4.744
REMARK  0 active torsions:
REMARK  status: ('A' for Active; 'I' for Inactive)
ROOT
HETATM    1  C   LIG     1      16.470  35.009  22.107  1.00  0.00    -0.014 A 
HETATM    2  C   LIG     1      16.681  36.030  21.184  1.00  0.00    -0.014 A 
HETATM    3  C   LIG     1      16.315  35.890  19.848  1.00  0.00     0.013 A 
HETATM    4  C   LIG     1      15.720  34.678  19.452  1.00  0.00     0.001 A 
HETATM    5  C   LIG     1      15.506  33.642  20.388  1.00  0.00     0.001 A 
HETATM    6  C   LIG     1      15.883  33.804  21.733  1.00  0.00     0.013 A 
HETATM    7  C   LIG     1      17.308  37.147  21.895  1.00  0.00    -0.013 A 
HETATM    8  C   LIG     1      17.742  38.413  21.501  1.00  0.00     0.013 A 
HETATM    9  C   LIG     1      18.317  39.251  22.486  1.00  0.00     0.002 A 
HETATM   10  C   LIG     1      18.445  38.813  23.831  1.00  0.00     0.012 A 
HETATM   11  C   LIG     1      17.995  37.528  24.192  1.00  0.00    -0.024 A 
HETATM   12  C   LIG     1      17.440  36.742  23.196  1.00  0.00    -0.004 A 
HETATM   13  C   LIG     1      16.963  35.476  23.404  1.00  0.00    -0.013 A 
HETATM   14  C   LIG     1      17.017  34.901  24.674  1.00  0.00     0.013 A 
HETATM   15  C   LIG     1      17.577  35.667  25.724  1.00  0.00     0.002 A 
HETATM   16  C   LIG     1      18.066  36.979  25.488  1.00  0.00     0.012 A 
ENDROOT
TORSDOF 0
ENDMDL
MODEL 8
REMARK VINA RESULT:      -7.6      0.937      4.194
REMARK  0 active torsions:
REMARK  status: ('A' for Active; 'I' for Inactive)
ROOT
HETATM    1  C   LIG     1      16.674  36.023  21.170  1.00  0.00    -0.014 A 
HETATM    2  C   LIG     1      16.458  35.007  22.097  1.00  0.00    -0.014 A 
HETATM    3  C   LIG     1      15.867  33.801  21.730  1.00  0.00     0.013 A 
HETATM    4  C   LIG     1      15.491  33.634  20.385  1.00  0.00     0.001 A 
HETATM    5  C   LIG     1      15.711  34.664  19.443  1.00  0.00     0.001 A 
HETATM    6  C   LIG     1      16.309  35.875  19.834  1.00  0.00     0.013 A 
HETATM    7  C   LIG     1      16.951  35.479  23.393  1.00  0.00    -0.013 A 
HETATM    8  C   LIG     1      17.001  34.910  24.666  1.00  0.00     0.013 A 
HETATM    9  C   LIG     1      17.563  35.679  25.713  1.00  0.00     0.002 A 
HETATM   10  C   LIG     1      18.059  36.987  25.470  1.00  0.00     0.012 A 
HETATM   11  C   LIG     1      17.992  37.530  24.172  1.00  0.00    -0.024 A 
HETATM   12  C   LIG     1      17.434  36.742  23.179  1.00  0.00    -0.004 A 
HETATM   13  C   LIG     1      17.305  37.139  21.875  1.00  0.00    -0.013 A 
HETATM   14  C   LIG     1      17.745  38.402  21.475  1.00  0.00     0.013 A 
HETATM   15  C   LIG     1      18.322  39.242  22.457  1.00  0.00     0.002 A 
HETATM   16  C   LIG     1      18.448  38.811  23.803  1.00  0.00     0.012 A 
ENDROOT
TORSDOF 0
ENDMDL
MODEL 9
REMARK VINA RESULT:      -7.3      7.805     10.762
REMARK  0 active torsions:
REMARK  status: ('A' for Active; 'I' for Inactive)
ROOT
HETATM    1  C   LIG     1      16.573  32.343  13.812  1.00  0.00    -0.014 A 
HETATM    2  C   LIG     1      16.628  33.219  14.893  1.00  0.00    -0.014 A 
HETATM    3  C   LIG     1      17.497  34.306  14.904  1.00  0.00     0.013 A 
HETATM    4  C   LIG     1      18.325  34.500  13.783  1.00  0.00     0.001 A 
HETATM    5  C   LIG     1      18.269  33.612  12.685  1.00  0.00     0.001 A 
HETATM    6  C   LIG     1      17.384  32.519  12.694  1.00  0.00     0.013 A 
HETATM    7  C   LIG     1      15.659  32.756  15.888  1.00  0.00    -0.013 A 
HETATM    8  C   LIG     1      15.277  33.221  17.146  1.00  0.00     0.013 A 
HETATM    9  C   LIG     1      14.279  32.501  17.844  1.00  0.00     0.002 A 
HETATM   10  C   LIG     1      13.686  31.342  17.275  1.00  0.00     0.012 A 
HETATM   11  C   LIG     1      14.096  30.901  16.002  1.00  0.00    -0.024 A 
HETATM   12  C   LIG     1      15.076  31.636  15.357  1.00  0.00    -0.004 A 
HETATM   13  C   LIG     1      15.569  31.324  14.118  1.00  0.00    -0.013 A 
HETATM   14  C   LIG     1      15.088  30.211  13.427  1.00  0.00     0.013 A 
HETATM   15  C   LIG     1      14.085  29.429  14.048  1.00  0.00     0.002 A 
HETATM   16  C   LIG     1      13.587  29.770  15.333  1.00  0.00     0.012 A 
ENDROOT
TORSDOF 0
ENDMDL
MODEL 10
REMARK VINA RESULT:      -7.2      7.787     10.453
REMARK  0 active torsions:
REMARK  status: ('A' for Active; 'I' for Inactive)
ROOT
HETATM    1  C   LIG     1      16.648  33.196  14.890  1.00  0.00    -0.014 A 
HETATM    2  C   LIG     1      16.579  32.315  13.813  1.00  0.00    -0.014 A 
HETATM    3  C   LIG     1      17.386  32.475  12.690  1.00  0.00     0.013 A 
HETATM    4  C   LIG     1      18.283  33.559  12.672  1.00  0.00     0.001 A 
HETATM    5  C   LIG     1      18.354  34.452  13.764  1.00  0.00     0.001 A 
HETATM    6  C   LIG     1      17.529  34.274  14.889  1.00  0.00     0.013 A 
HETATM    7  C   LIG     1      15.564  31.308  14.130  1.00  0.00    -0.013 A 
HETATM    8  C   LIG     1      15.069  30.196  13.448  1.00  0.00     0.013 A 
HETATM    9  C   LIG     1      14.061  29.428  14.078  1.00  0.00     0.002 A 
HETATM   10  C   LIG     1      13.574  29.781  15.364  1.00  0.00     0.012 A 
HETATM   11  C   LIG     1      14.098  30.910  16.024  1.00  0.00    -0.024 A 
HETATM   12  C   LIG     1      15.082  31.632  15.370  1.00  0.00    -0.004 A 
HETATM   13  C   LIG     1      15.679  32.748  15.891  1.00  0.00    -0.013 A 
HETATM   14  C   LIG     1      15.309  33.225  17.149  1.00  0.00     0.013 A 
HETATM   15  C   LIG     1      14.306  32.518  17.855  1.00  0.00     0.002 A 
HETATM   16  C   LIG     1      13.700  31.362  17.298  1.00  0.00     0.012 A 
ENDROOT
TORSDOF 0
ENDMDL
MODEL 11
REMARK VINA RESULT:      -6.5      8.617     11.562
REMARK  0 active torsions:
REMARK  status: ('A' for Active; 'I' for Inactive)
ROOT
HETATM    1  C   LIG     1      13.967  29.336  14.542  1.00  0.00    -0.014 A 
HETATM    2  C   LIG     1      15.218  29.564  13.976  1.00  0.00    -0.014 A 
HETATM    3  C   LIG     1      15.788  28.659  13.085  1.00  0.00     0.013 A 
HETATM    4  C   LIG     1      15.059  27.498  12.767  1.00  0.00     0.001 A 
HETATM    5  C   LIG     1      13.790  27.267  13.341  1.00  0.00     0.001 A 
HETATM    6  C   LIG     1      13.231  28.193  14.240  1.00  0.00     0.013 A 
HETATM    7  C   LIG     1      15.715  30.839  14.497  1.00  0.00    -0.013 A 
HETATM    8  C   LIG     1      16.885  31.570  14.292  1.00  0.00     0.013 A 
HETATM    9  C   LIG     1      17.029  32.797  14.983  1.00  0.00     0.002 A 
HETATM   10  C   LIG     1      16.010  33.265  15.854  1.00  0.00     0.012 A 
HETATM   11  C   LIG     1      14.841  32.501  16.036  1.00  0.00    -0.024 A 
HETATM   12  C   LIG     1      14.744  31.307  15.342  1.00  0.00    -0.004 A 
HETATM   13  C   LIG     1      13.667  30.466  15.422  1.00  0.00    -0.013 A 
HETATM   14  C   LIG     1      12.581  30.785  16.239  1.00  0.00     0.013 A 
HETATM   15  C   LIG     1      12.636  31.996  16.969  1.00  0.00     0.002 A 
HETATM   16  C   LIG     1      13.762  32.856  16.871  1.00  0.00     0.012 A 
ENDROOT
TORSDOF 0
ENDMDL
MODEL 12
REMARK VINA RESULT:      -5.8      7.239     10.342
REMARK  0 active torsions:
REMARK  status: ('A' for Active; 'I' for Inactive)
ROOT
HETATM    1  C   LIG     1      14.508  30.967  15.314  1.00  0.00    -0.014 A 
HETATM    2  C   LIG     1      15.355  30.870  14.213  1.00  0.00    -0.014 A 
HETATM    3  C   LIG     1      15.287  29.791  13.336  1.00  0.00     0.013 A 
HETATM    4  C   LIG     1      14.330  28.792  13.593  1.00  0.00     0.001 A 
HETATM    5  C   LIG     1      13.470  28.890  14.709  1.00  0.00     0.001 A 
HETATM    6  C   LIG     1      13.555  29.988  15.584  1.00  0.00     0.013 A 
HETATM    7  C   LIG     1      16.225  32.048  14.219  1.00  0.00    -0.013 A 
HETATM    8  C   LIG     1      17.250  32.489  13.382  1.00  0.00     0.013 A 
HETATM    9  C   LIG     1      17.888  33.710  13.704  1.00  0.00     0.002 A 
HETATM   10  C   LIG     1      17.492  34.460  14.843  1.00  0.00     0.012 A 
HETATM   11  C   LIG     1      16.453  33.985  15.666  1.00  0.00    -0.024 A 
HETATM   12  C   LIG     1      15.858  32.785  15.313  1.00  0.00    -0.004 A 
HETATM   13  C   LIG     1      14.838  32.206  16.019  1.00  0.00    -0.013 A 
HETATM   14  C   LIG     1      14.335  32.820  17.166  1.00  0.00     0.013 A 
HETATM   15  C   LIG     1      14.913  34.049  17.566  1.00  0.00     0.002 A 
HETATM   16  C   LIG     1      15.970  34.634  16.819  1.00  0.00     0.012 A 
ENDROOT
TORSDOF 0
ENDMDL
