REMARK  0 active torsions:
REMARK  status: ('A' for Active; 'I' for Inactive)
ROOT
HETATM    1  C   LIG     1       1.306  -0.596  -0.076  1.00  0.00    -0.014 A 
HETATM    2  C   LIG     1       1.203   0.782   0.094  1.00  0.00    -0.014 A 
HETATM    3  C   LIG     1       2.333   1.589   0.192  1.00  0.00     0.013 A 
HETATM    4  C   LIG     1       3.594   0.970   0.112  1.00  0.00     0.001 A 
HETATM    5  C   LIG     1       3.699  -0.428  -0.061  1.00  0.00     0.001 A 
HETATM    6  C   LIG     1       2.545  -1.226  -0.157  1.00  0.00     0.013 A 
HETATM    7  C   LIG     1      -0.222   1.117   0.139  1.00  0.00    -0.013 A 
HETATM    8  C   LIG     1      -0.923   2.314   0.288  1.00  0.00     0.013 A 
HETATM    9  C   LIG     1      -2.337   2.258   0.284  1.00  0.00     0.002 A 
HETATM   10  C   LIG     1      -3.016   1.020   0.132  1.00  0.00     0.012 A 
HETATM   11  C   LIG     1      -2.276  -0.169  -0.016  1.00  0.00    -0.024 A 
HETATM   12  C   LIG     1      -0.895  -0.067  -0.006  1.00  0.00    -0.004 A 
HETATM   13  C   LIG     1      -0.052  -1.137  -0.140  1.00  0.00    -0.013 A 
HETATM   14  C   LIG     1      -0.566  -2.425  -0.298  1.00  0.00     0.013 A 
HETATM   15  C   LIG     1      -1.973  -2.578  -0.314  1.00  0.00     0.002 A 
HETATM   16  C   LIG     1      -2.830  -1.455  -0.174  1.00  0.00     0.012 A 
ENDROOT
TORSDOF 0
