REMARK  0 active torsions:
REMARK  status: ('A' for Active; 'I' for Inactive)
ROOT
HETATM    1  C   LIG     1      -2.038   0.003   0.107  1.00  0.00    -0.004 A 
HETATM    2  C   LIG     1      -1.300   1.053  -0.369  1.00  0.00    -0.013 A 
HETATM    3  C   LIG     1       0.102   0.642  -0.272  1.00  0.00    -0.013 A 
HETATM    4  C   LIG     1       0.128  -0.642   0.260  1.00  0.00    -0.013 A 
HETATM    5  C   LIG     1       1.325  -1.319   0.478  1.00  0.00     0.025 A 
HETATM    6  C   LIG     1       2.528  -0.664   0.142  1.00  0.00    -0.025 A 
HETATM    7  C   LIG     1       3.761  -1.303   0.342  1.00  0.00     0.012 A 
HETATM    8  C   LIG     1       4.952  -0.652   0.009  1.00  0.00     0.001 A 
HETATM    9  C   LIG     1       4.926   0.638  -0.526  1.00  0.00     0.001 A 
HETATM   10  C   LIG     1       3.709   1.292  -0.734  1.00  0.00     0.012 A 
HETATM   11  C   LIG     1       2.502   0.657  -0.406  1.00  0.00    -0.025 A 
HETATM   12  C   LIG     1       1.271   1.315  -0.614  1.00  0.00     0.025 A 
HETATM   13  C   LIG     1      -1.258  -1.050   0.503  1.00  0.00    -0.013 A 
HETATM   14  C   LIG     1      -1.842  -2.208   1.015  1.00  0.00     0.013 A 
HETATM   15  C   LIG     1      -3.253  -2.252   1.108  1.00  0.00     0.002 A 
HETATM   16  C   LIG     1      -4.045  -1.149   0.692  1.00  0.00     0.012 A 
HETATM   17  C   LIG     1      -3.421   0.005   0.179  1.00  0.00    -0.024 A 
HETATM   18  C   LIG     1      -4.092   1.161  -0.265  1.00  0.00     0.012 A 
HETATM   19  C   LIG     1      -3.345   2.261  -0.762  1.00  0.00     0.002 A 
HETATM   20  C   LIG     1      -1.932   2.214  -0.817  1.00  0.00     0.013 A 
ENDROOT
TORSDOF 0
