MODEL 1
REMARK VINA RESULT:      -9.6      0.000      0.000
REMARK  0 active torsions:
REMARK  status: ('A' for Active; 'I' for Inactive)
ROOT
HETATM    1  C   LIG     1      17.353  36.717  23.141  1.00  0.00    -0.004 A 
HETATM    2  C   LIG     1      17.216  37.117  21.839  1.00  0.00    -0.013 A 
HETATM    3  C   LIG     1      16.657  35.971  21.118  1.00  0.00    -0.013 A 
HETATM    4  C   LIG     1      16.488  34.940  22.034  1.00  0.00    -0.013 A 
HETATM    5  C   LIG     1      15.970  33.704  21.657  1.00  0.00     0.025 A 
HETATM    6  C   LIG     1      15.616  33.519  20.304  1.00  0.00    -0.025 A 
HETATM    7  C   LIG     1      15.089  32.292  19.872  1.00  0.00     0.012 A 
HETATM    8  C   LIG     1      14.739  32.110  18.532  1.00  0.00     0.001 A 
HETATM    9  C   LIG     1      14.909  33.147  17.611  1.00  0.00     0.001 A 
HETATM   10  C   LIG     1      15.431  34.376  18.020  1.00  0.00     0.012 A 
HETATM   11  C   LIG     1      15.789  34.580  19.361  1.00  0.00    -0.025 A 
HETATM   12  C   LIG     1      16.317  35.820  19.777  1.00  0.00     0.025 A 
HETATM   13  C   LIG     1      16.939  35.427  23.340  1.00  0.00    -0.013 A 
HETATM   14  C   LIG     1      17.006  34.853  24.609  1.00  0.00     0.013 A 
HETATM   15  C   LIG     1      17.512  35.643  25.667  1.00  0.00     0.002 A 
HETATM   16  C   LIG     1      17.937  36.979  25.440  1.00  0.00     0.012 A 
HETATM   17  C   LIG     1      17.854  37.528  24.146  1.00  0.00    -0.024 A 
HETATM   18  C   LIG     1      18.242  38.835  23.792  1.00  0.00     0.012 A 
HETATM   19  C   LIG     1      18.108  39.269  22.447  1.00  0.00     0.002 A 
HETATM   20  C   LIG     1      17.590  38.405  21.453  1.00  0.00     0.013 A 
ENDROOT
TORSDOF 0
ENDMDL
MODEL 2
REMARK VINA RESULT:      -9.6      0.008      2.832
REMARK  0 active torsions:
REMARK  status: ('A' for Active; 'I' for Inactive)
ROOT
HETATM    1  C   LIG     1      17.359  36.720  23.136  1.00  0.00    -0.004 A 
HETATM    2  C   LIG     1      16.942  35.432  23.336  1.00  0.00    -0.013 A 
HETATM    3  C   LIG     1      16.490  34.944  22.031  1.00  0.00    -0.013 A 
HETATM    4  C   LIG     1      16.662  35.973  21.114  1.00  0.00    -0.013 A 
HETATM    5  C   LIG     1      16.322  35.822  19.772  1.00  0.00     0.025 A 
HETATM    6  C   LIG     1      15.792  34.582  19.358  1.00  0.00    -0.025 A 
HETATM    7  C   LIG     1      15.434  34.379  18.017  1.00  0.00     0.012 A 
HETATM    8  C   LIG     1      14.907  33.150  17.609  1.00  0.00     0.001 A 
HETATM    9  C   LIG     1      14.735  32.115  18.531  1.00  0.00     0.001 A 
HETATM   10  C   LIG     1      15.086  32.296  19.871  1.00  0.00     0.012 A 
HETATM   11  C   LIG     1      15.614  33.522  20.302  1.00  0.00    -0.025 A 
HETATM   12  C   LIG     1      15.969  33.709  21.655  1.00  0.00     0.025 A 
HETATM   13  C   LIG     1      17.224  37.119  21.833  1.00  0.00    -0.013 A 
HETATM   14  C   LIG     1      17.601  38.405  21.446  1.00  0.00     0.013 A 
HETATM   15  C   LIG     1      18.120  39.269  22.438  1.00  0.00     0.002 A 
HETATM   16  C   LIG     1      18.252  38.836  23.785  1.00  0.00     0.012 A 
HETATM   17  C   LIG     1      17.862  37.530  24.140  1.00  0.00    -0.024 A 
HETATM   18  C   LIG     1      17.942  36.983  25.435  1.00  0.00     0.012 A 
HETATM   19  C   LIG     1      17.515  35.649  25.664  1.00  0.00     0.002 A 
HETATM   20  C   LIG     1      17.007  34.858  24.606  1.00  0.00     0.013 A 
ENDROOT
TORSDOF 0
ENDMDL
MODEL 3
REMARK VINA RESULT:      -7.8      1.224      2.019
REMARK  0 active torsions:
REMARK  status: ('A' for Active; 'I' for Inactive)
ROOT
HETATM    1  C   LIG     1      17.770  37.559  21.386  1.00  0.00    -0.004 A 
HETATM    2  C   LIG     1      17.737  37.128  20.087  1.00  0.00    -0.013 A 
HETATM    3  C   LIG     1      16.937  35.902  20.085  1.00  0.00    -0.013 A 
HETATM    4  C   LIG     1      16.531  35.663  21.393  1.00  0.00    -0.013 A 
HETATM    5  C   LIG     1      15.748  34.561  21.726  1.00  0.00     0.025 A 
HETATM    6  C   LIG     1      15.370  33.679  20.692  1.00  0.00    -0.025 A 
HETATM    7  C   LIG     1      14.581  32.554  20.975  1.00  0.00     0.012 A 
HETATM    8  C   LIG     1      14.209  31.681  19.949  1.00  0.00     0.001 A 
HETATM    9  C   LIG     1      14.617  31.921  18.635  1.00  0.00     0.001 A 
HETATM   10  C   LIG     1      15.402  33.036  18.331  1.00  0.00     0.012 A 
HETATM   11  C   LIG     1      15.788  33.924  19.346  1.00  0.00    -0.025 A 
HETATM   12  C   LIG     1      16.581  35.051  19.043  1.00  0.00     0.025 A 
HETATM   13  C   LIG     1      17.072  36.738  22.229  1.00  0.00    -0.013 A 
HETATM   14  C   LIG     1      16.997  37.024  23.592  1.00  0.00     0.013 A 
HETATM   15  C   LIG     1      17.662  38.181  24.062  1.00  0.00     0.002 A 
HETATM   16  C   LIG     1      18.381  39.020  23.171  1.00  0.00     0.012 A 
HETATM   17  C   LIG     1      18.435  38.701  21.800  1.00  0.00    -0.024 A 
HETATM   18  C   LIG     1      19.113  39.450  20.819  1.00  0.00     0.012 A 
HETATM   19  C   LIG     1      19.091  39.019  19.466  1.00  0.00     0.002 A 
HETATM   20  C   LIG     1      18.398  37.845  19.088  1.00  0.00     0.013 A 
ENDROOT
TORSDOF 0
ENDMDL
MODEL 4
REMARK VINA RESULT:      -6.9     14.475     16.472
REMARK  0 active torsions:
REMARK  status: ('A' for Active; 'I' for Inactive)
ROOT
HETATM    1  C   LIG     1      24.634  22.005  19.469  1.00  0.00    -0.004 A 
HETATM    2  C   LIG     1      24.807  23.173  20.163  1.00  0.00    -0.013 A 
HETATM    3  C   LIG     1      25.838  23.924  19.444  1.00  0.00    -0.013 A 
HETATM    4  C   LIG     1      26.229  23.160  18.350  1.00  0.00    -0.013 A 
HETATM    5  C   LIG     1      27.204  23.603  17.460  1.00  0.00     0.025 A 
HETATM    6  C   LIG     1      27.795  24.862  17.696  1.00  0.00    -0.025 A 
HETATM    7  C   LIG     1      28.782  25.354  16.829  1.00  0.00     0.012 A 
HETATM    8  C   LIG     1      29.366  26.602  17.064  1.00  0.00     0.001 A 
HETATM    9  C   LIG     1      28.973  27.369  18.163  1.00  0.00     0.001 A 
HETATM   10  C   LIG     1      27.991  26.898  19.039  1.00  0.00     0.012 A 
HETATM   11  C   LIG     1      27.392  25.649  18.821  1.00  0.00    -0.025 A 
HETATM   12  C   LIG     1      26.401  25.170  19.704  1.00  0.00     0.025 A 
HETATM   13  C   LIG     1      25.448  21.921  18.371  1.00  0.00    -0.013 A 
HETATM   14  C   LIG     1      25.406  20.798  17.546  1.00  0.00     0.013 A 
HETATM   15  C   LIG     1      24.502  19.763  17.882  1.00  0.00     0.002 A 
HETATM   16  C   LIG     1      23.666  19.869  19.026  1.00  0.00     0.012 A 
HETATM   17  C   LIG     1      23.735  21.018  19.837  1.00  0.00    -0.024 A 
HETATM   18  C   LIG     1      22.963  21.243  20.993  1.00  0.00     0.012 A 
HETATM   19  C   LIG     1      23.127  22.447  21.727  1.00  0.00     0.002 A 
HETATM   20  C   LIG     1      24.059  23.428  21.313  1.00  0.00     0.013 A 
ENDROOT
TORSDOF 0
ENDMDL
MODEL 5
REMARK VINA RESULT:      -6.9     14.510     16.451
REMARK  0 active torsions:
REMARK  status: ('A' for Active; 'I' for Inactive)
ROOT
HETATM    1  C   LIG     1      24.660  21.983  19.494  1.00  0.00    -0.004 A 
HETATM    2  C   LIG     1      25.464  21.909  18.389  1.00  0.00    -0.013 A 
HETATM    3  C   LIG     1      26.240  23.151  18.367  1.00  0.00    -0.013 A 
HETATM    4  C   LIG     1      25.856  23.906  19.469  1.00  0.00    -0.013 A 
HETATM    5  C   LIG     1      26.417  25.153  19.731  1.00  0.00     0.025 A 
HETATM    6  C   LIG     1      27.398  25.640  18.842  1.00  0.00    -0.025 A 
HETATM    7  C   LIG     1      27.994  26.891  19.062  1.00  0.00     0.012 A 
HETATM    8  C   LIG     1      28.965  27.372  18.179  1.00  0.00     0.001 A 
HETATM    9  C   LIG     1      29.351  26.612  17.072  1.00  0.00     0.001 A 
HETATM   10  C   LIG     1      28.770  25.364  16.835  1.00  0.00     0.012 A 
HETATM   11  C   LIG     1      27.793  24.863  17.708  1.00  0.00    -0.025 A 
HETATM   12  C   LIG     1      27.204  23.603  17.471  1.00  0.00     0.025 A 
HETATM   13  C   LIG     1      24.835  23.147  20.194  1.00  0.00    -0.013 A 
HETATM   14  C   LIG     1      24.097  23.393  21.351  1.00  0.00     0.013 A 
HETATM   15  C   LIG     1      23.173  22.406  21.769  1.00  0.00     0.002 A 
HETATM   16  C   LIG     1      23.006  21.205  21.030  1.00  0.00     0.012 A 
HETATM   17  C   LIG     1      23.769  20.990  19.865  1.00  0.00    -0.024 A 
HETATM   18  C   LIG     1      23.696  19.846  19.047  1.00  0.00     0.012 A 
HETATM   19  C   LIG     1      24.521  19.750  17.896  1.00  0.00     0.002 A 
HETATM   20  C   LIG     1      25.418  20.790  17.556  1.00  0.00     0.013 A 
ENDROOT
TORSDOF 0
ENDMDL
MODEL 6
REMARK VINA RESULT:      -6.8      5.961      9.377
REMARK  0 active torsions:
REMARK  status: ('A' for Active; 'I' for Inactive)
ROOT
HETATM    1  C   LIG     1      15.155  31.802  15.384  1.00  0.00    -0.004 A 
HETATM    2  C   LIG     1      15.472  31.255  14.170  1.00  0.00    -0.013 A 
HETATM    3  C   LIG     1      16.632  32.000  13.678  1.00  0.00    -0.013 A 
HETATM    4  C   LIG     1      16.951  32.960  14.631  1.00  0.00    -0.013 A 
HETATM    5  C   LIG     1      18.018  33.838  14.457  1.00  0.00     0.025 A 
HETATM    6  C   LIG     1      18.779  33.729  13.275  1.00  0.00    -0.025 A 
HETATM    7  C   LIG     1      19.865  34.590  13.051  1.00  0.00     0.012 A 
HETATM    8  C   LIG     1      20.617  34.481  11.879  1.00  0.00     0.001 A 
HETATM    9  C   LIG     1      20.298  33.516  10.921  1.00  0.00     0.001 A 
HETATM   10  C   LIG     1      19.221  32.649  11.124  1.00  0.00     0.012 A 
HETATM   11  C   LIG     1      18.452  32.741  12.294  1.00  0.00    -0.025 A 
HETATM   12  C   LIG     1      17.364  31.867  12.502  1.00  0.00     0.025 A 
HETATM   13  C   LIG     1      15.993  32.828  15.732  1.00  0.00    -0.013 A 
HETATM   14  C   LIG     1      15.819  33.503  16.939  1.00  0.00     0.013 A 
HETATM   15  C   LIG     1      14.757  33.093  17.780  1.00  0.00     0.002 A 
HETATM   16  C   LIG     1      13.898  32.027  17.401  1.00  0.00     0.012 A 
HETATM   17  C   LIG     1      14.104  31.367  16.174  1.00  0.00    -0.024 A 
HETATM   18  C   LIG     1      13.325  30.300  15.686  1.00  0.00     0.012 A 
HETATM   19  C   LIG     1      13.636  29.718  14.429  1.00  0.00     0.002 A 
HETATM   20  C   LIG     1      14.721  30.197  13.656  1.00  0.00     0.013 A 
ENDROOT
TORSDOF 0
ENDMDL
MODEL 7
REMARK VINA RESULT:      -6.8      5.948      9.324
REMARK  0 active torsions:
REMARK  status: ('A' for Active; 'I' for Inactive)
ROOT
HETATM    1  C   LIG     1      15.136  31.794  15.409  1.00  0.00    -0.004 A 
HETATM    2  C   LIG     1      15.977  32.817  15.755  1.00  0.00    -0.013 A 
HETATM    3  C   LIG     1      16.929  32.954  14.651  1.00  0.00    -0.013 A 
HETATM    4  C   LIG     1      16.604  31.998  13.696  1.00  0.00    -0.013 A 
HETATM    5  C   LIG     1      17.329  31.870  12.514  1.00  0.00     0.025 A 
HETATM    6  C   LIG     1      18.417  32.744  12.305  1.00  0.00    -0.025 A 
HETATM    7  C   LIG     1      19.179  32.656  11.131  1.00  0.00     0.012 A 
HETATM    8  C   LIG     1      20.257  33.522  10.926  1.00  0.00     0.001 A 
HETATM    9  C   LIG     1      20.583  34.483  11.886  1.00  0.00     0.001 A 
HETATM   10  C   LIG     1      19.836  34.588  13.062  1.00  0.00     0.012 A 
HETATM   11  C   LIG     1      18.751  33.728  13.288  1.00  0.00    -0.025 A 
HETATM   12  C   LIG     1      17.995  33.831  14.475  1.00  0.00     0.025 A 
HETATM   13  C   LIG     1      15.445  31.252  14.190  1.00  0.00    -0.013 A 
HETATM   14  C   LIG     1      14.691  30.197  13.676  1.00  0.00     0.013 A 
HETATM   15  C   LIG     1      13.611  29.716  14.452  1.00  0.00     0.002 A 
HETATM   16  C   LIG     1      13.307  30.292  15.714  1.00  0.00     0.012 A 
HETATM   17  C   LIG     1      14.089  31.357  16.202  1.00  0.00    -0.024 A 
HETATM   18  C   LIG     1      13.891  32.011  17.434  1.00  0.00     0.012 A 
HETATM   19  C   LIG     1      14.752  33.074  17.812  1.00  0.00     0.002 A 
HETATM   20  C   LIG     1      15.810  33.487  16.968  1.00  0.00     0.013 A 
ENDROOT
TORSDOF 0
ENDMDL
