MODEL 1
REMARK VINA RESULT:      -7.8      0.000      0.000
REMARK  0 active torsions:
REMARK  status: ('A' for Active; 'I' for Inactive)
ROOT
HETATM    1  C   LIG     1      17.230  35.374  24.009  1.00  0.00    -0.024 A 
HETATM    2  C   LIG     1      16.861  34.686  22.837  1.00  0.00     0.012 A 
HETATM    3  C   LIG     1      16.593  35.417  21.649  1.00  0.00     0.002 A 
HETATM    4  C   LIG     1      16.692  36.830  21.629  1.00  0.00     0.012 A 
HETATM    5  C   LIG     1      17.062  37.474  22.812  1.00  0.00    -0.024 A 
HETATM    6  C   LIG     1      17.262  38.884  23.166  1.00  0.00     0.013 A 
HETATM    7  C   LIG     1      17.618  38.934  24.462  1.00  0.00     0.013 A 
HETATM    8  C   LIG     1      17.312  36.752  23.933  1.00  0.00    -0.005 A 
HETATM    9  C   LIG     1      17.653  37.557  24.969  1.00  0.00    -0.024 A 
HETATM   10  C   LIG     1      17.952  37.008  26.218  1.00  0.00     0.012 A 
HETATM   11  C   LIG     1      17.883  35.599  26.353  1.00  0.00     0.002 A 
HETATM   12  C   LIG     1      17.523  34.779  25.252  1.00  0.00     0.012 A 
ENDROOT
TORSDOF 0
ENDMDL
MODEL 2
REMARK VINA RESULT:      -7.8      0.005      3.152
REMARK  0 active torsions:
REMARK  status: ('A' for Active; 'I' for Inactive)
ROOT
HETATM    1  C   LIG     1      17.231  35.375  24.013  1.00  0.00    -0.024 A 
HETATM    2  C   LIG     1      17.526  34.781  25.255  1.00  0.00     0.012 A 
HETATM    3  C   LIG     1      17.888  35.603  26.357  1.00  0.00     0.002 A 
HETATM    4  C   LIG     1      17.956  37.011  26.220  1.00  0.00     0.012 A 
HETATM    5  C   LIG     1      17.655  37.560  24.971  1.00  0.00    -0.024 A 
HETATM    6  C   LIG     1      17.619  38.936  24.463  1.00  0.00     0.013 A 
HETATM    7  C   LIG     1      17.261  38.884  23.167  1.00  0.00     0.013 A 
HETATM    8  C   LIG     1      17.312  36.754  23.935  1.00  0.00    -0.005 A 
HETATM    9  C   LIG     1      17.060  37.474  22.815  1.00  0.00    -0.024 A 
HETATM   10  C   LIG     1      16.689  36.829  21.633  1.00  0.00     0.012 A 
HETATM   11  C   LIG     1      16.590  35.416  21.655  1.00  0.00     0.002 A 
HETATM   12  C   LIG     1      16.860  34.685  22.842  1.00  0.00     0.012 A 
ENDROOT
TORSDOF 0
ENDMDL
MODEL 3
REMARK VINA RESULT:      -7.8      2.133      4.792
REMARK  0 active torsions:
REMARK  status: ('A' for Active; 'I' for Inactive)
ROOT
HETATM    1  C   LIG     1      18.272  38.561  21.548  1.00  0.00    -0.024 A 
HETATM    2  C   LIG     1      17.963  39.366  22.662  1.00  0.00     0.012 A 
HETATM    3  C   LIG     1      17.010  38.913  23.613  1.00  0.00     0.002 A 
HETATM    4  C   LIG     1      16.366  37.660  23.454  1.00  0.00     0.012 A 
HETATM    5  C   LIG     1      16.701  36.892  22.336  1.00  0.00    -0.024 A 
HETATM    6  C   LIG     1      16.256  35.581  21.851  1.00  0.00     0.013 A 
HETATM    7  C   LIG     1      16.917  35.322  20.708  1.00  0.00     0.013 A 
HETATM    8  C   LIG     1      17.615  37.348  21.443  1.00  0.00    -0.005 A 
HETATM    9  C   LIG     1      17.801  36.462  20.435  1.00  0.00    -0.024 A 
HETATM   10  C   LIG     1      18.705  36.743  19.409  1.00  0.00     0.012 A 
HETATM   11  C   LIG     1      19.406  37.973  19.465  1.00  0.00     0.002 A 
HETATM   12  C   LIG     1      19.193  38.884  20.533  1.00  0.00     0.012 A 
ENDROOT
TORSDOF 0
ENDMDL
MODEL 4
REMARK VINA RESULT:      -7.8      2.153      4.018
REMARK  0 active torsions:
REMARK  status: ('A' for Active; 'I' for Inactive)
ROOT
HETATM    1  C   LIG     1      18.273  38.575  21.540  1.00  0.00    -0.024 A 
HETATM    2  C   LIG     1      19.201  38.894  20.530  1.00  0.00     0.012 A 
HETATM    3  C   LIG     1      19.417  37.982  19.462  1.00  0.00     0.002 A 
HETATM    4  C   LIG     1      18.711  36.756  19.403  1.00  0.00     0.012 A 
HETATM    5  C   LIG     1      17.800  36.477  20.424  1.00  0.00    -0.024 A 
HETATM    6  C   LIG     1      16.911  35.341  20.692  1.00  0.00     0.013 A 
HETATM    7  C   LIG     1      16.245  35.603  21.832  1.00  0.00     0.013 A 
HETATM    8  C   LIG     1      17.612  37.365  21.432  1.00  0.00    -0.005 A 
HETATM    9  C   LIG     1      16.692  36.913  22.319  1.00  0.00    -0.024 A 
HETATM   10  C   LIG     1      16.354  37.682  23.434  1.00  0.00     0.012 A 
HETATM   11  C   LIG     1      17.001  38.932  23.596  1.00  0.00     0.002 A 
HETATM   12  C   LIG     1      17.961  39.382  22.652  1.00  0.00     0.012 A 
ENDROOT
TORSDOF 0
ENDMDL
MODEL 5
REMARK VINA RESULT:      -7.8      0.419      2.874
REMARK  0 active torsions:
REMARK  status: ('A' for Active; 'I' for Inactive)
ROOT
HETATM    1  C   LIG     1      17.615  37.544  24.744  1.00  0.00    -0.024 A 
HETATM    2  C   LIG     1      17.651  38.903  24.377  1.00  0.00     0.012 A 
HETATM    3  C   LIG     1      17.326  39.280  23.046  1.00  0.00     0.002 A 
HETATM    4  C   LIG     1      16.967  38.304  22.084  1.00  0.00     0.012 A 
HETATM    5  C   LIG     1      16.944  36.967  22.488  1.00  0.00    -0.024 A 
HETATM    6  C   LIG     1      16.630  35.715  21.791  1.00  0.00     0.013 A 
HETATM    7  C   LIG     1      16.770  34.709  22.674  1.00  0.00     0.013 A 
HETATM    8  C   LIG     1      17.258  36.634  23.765  1.00  0.00    -0.005 A 
HETATM    9  C   LIG     1      17.177  35.295  23.957  1.00  0.00    -0.024 A 
HETATM   10  C   LIG     1      17.462  34.746  25.208  1.00  0.00     0.012 A 
HETATM   11  C   LIG     1      17.835  35.632  26.249  1.00  0.00     0.002 A 
HETATM   12  C   LIG     1      17.912  37.031  26.021  1.00  0.00     0.012 A 
ENDROOT
TORSDOF 0
ENDMDL
MODEL 6
REMARK VINA RESULT:      -7.8      2.449      3.710
REMARK  0 active torsions:
REMARK  status: ('A' for Active; 'I' for Inactive)
ROOT
HETATM    1  C   LIG     1      17.955  36.661  20.411  1.00  0.00    -0.024 A 
HETATM    2  C   LIG     1      18.958  36.739  19.426  1.00  0.00     0.012 A 
HETATM    3  C   LIG     1      19.810  37.876  19.379  1.00  0.00     0.002 A 
HETATM    4  C   LIG     1      19.660  38.932  20.312  1.00  0.00     0.012 A 
HETATM    5  C   LIG     1      18.654  38.816  21.273  1.00  0.00    -0.024 A 
HETATM    6  C   LIG     1      18.211  39.682  22.371  1.00  0.00     0.013 A 
HETATM    7  C   LIG     1      17.184  39.070  22.988  1.00  0.00     0.013 A 
HETATM    8  C   LIG     1      17.855  37.720  21.296  1.00  0.00    -0.005 A 
HETATM    9  C   LIG     1      16.945  37.796  22.298  1.00  0.00    -0.024 A 
HETATM   10  C   LIG     1      16.026  36.764  22.493  1.00  0.00     0.012 A 
HETATM   11  C   LIG     1      16.083  35.654  21.615  1.00  0.00     0.002 A 
HETATM   12  C   LIG     1      17.046  35.598  20.573  1.00  0.00     0.012 A 
ENDROOT
TORSDOF 0
ENDMDL
MODEL 7
REMARK VINA RESULT:      -7.8      2.486      4.003
REMARK  0 active torsions:
REMARK  status: ('A' for Active; 'I' for Inactive)
ROOT
HETATM    1  C   LIG     1      17.964  36.686  20.389  1.00  0.00    -0.024 A 
HETATM    2  C   LIG     1      17.074  35.603  20.527  1.00  0.00     0.012 A 
HETATM    3  C   LIG     1      16.088  35.631  21.548  1.00  0.00     0.002 A 
HETATM    4  C   LIG     1      15.989  36.735  22.431  1.00  0.00     0.012 A 
HETATM    5  C   LIG     1      16.889  37.789  22.260  1.00  0.00    -0.024 A 
HETATM    6  C   LIG     1      17.087  39.063  22.961  1.00  0.00     0.013 A 
HETATM    7  C   LIG     1      18.113  39.701  22.369  1.00  0.00     0.013 A 
HETATM    8  C   LIG     1      17.822  37.738  21.276  1.00  0.00    -0.005 A 
HETATM    9  C   LIG     1      18.597  38.850  21.276  1.00  0.00    -0.024 A 
HETATM   10  C   LIG     1      19.620  38.994  20.337  1.00  0.00     0.012 A 
HETATM   11  C   LIG     1      19.811  37.946  19.403  1.00  0.00     0.002 A 
HETATM   12  C   LIG     1      18.985  36.791  19.425  1.00  0.00     0.012 A 
ENDROOT
TORSDOF 0
ENDMDL
MODEL 8
REMARK VINA RESULT:      -7.8      0.443      3.805
REMARK  0 active torsions:
REMARK  status: ('A' for Active; 'I' for Inactive)
ROOT
HETATM    1  C   LIG     1      17.614  37.544  24.705  1.00  0.00    -0.024 A 
HETATM    2  C   LIG     1      17.901  37.019  25.980  1.00  0.00     0.012 A 
HETATM    3  C   LIG     1      17.814  35.618  26.198  1.00  0.00     0.002 A 
HETATM    4  C   LIG     1      17.440  34.743  25.148  1.00  0.00     0.012 A 
HETATM    5  C   LIG     1      17.163  35.304  23.898  1.00  0.00    -0.024 A 
HETATM    6  C   LIG     1      16.757  34.732  22.610  1.00  0.00     0.013 A 
HETATM    7  C   LIG     1      16.628  35.745  21.735  1.00  0.00     0.013 A 
HETATM    8  C   LIG     1      17.255  36.645  23.717  1.00  0.00    -0.005 A 
HETATM    9  C   LIG     1      16.948  36.991  22.443  1.00  0.00    -0.024 A 
HETATM   10  C   LIG     1      16.983  38.330  22.049  1.00  0.00     0.012 A 
HETATM   11  C   LIG     1      17.345  39.294  23.022  1.00  0.00     0.002 A 
HETATM   12  C   LIG     1      17.661  38.906  24.350  1.00  0.00     0.012 A 
ENDROOT
TORSDOF 0
ENDMDL
MODEL 9
REMARK VINA RESULT:      -7.6      1.075      1.723
REMARK  0 active torsions:
REMARK  status: ('A' for Active; 'I' for Inactive)
ROOT
HETATM    1  C   LIG     1      17.125  36.163  23.457  1.00  0.00    -0.024 A 
HETATM    2  C   LIG     1      16.807  34.987  22.750  1.00  0.00     0.012 A 
HETATM    3  C   LIG     1      16.888  34.977  21.332  1.00  0.00     0.002 A 
HETATM    4  C   LIG     1      17.284  36.137  20.620  1.00  0.00     0.012 A 
HETATM    5  C   LIG     1      17.591  37.282  21.359  1.00  0.00    -0.024 A 
HETATM    6  C   LIG     1      18.025  38.632  20.982  1.00  0.00     0.013 A 
HETATM    7  C   LIG     1      18.176  39.344  22.113  1.00  0.00     0.013 A 
HETATM    8  C   LIG     1      17.506  37.265  22.713  1.00  0.00    -0.005 A 
HETATM    9  C   LIG     1      17.841  38.467  23.241  1.00  0.00    -0.024 A 
HETATM   10  C   LIG     1      17.819  38.658  24.624  1.00  0.00     0.012 A 
HETATM   11  C   LIG     1      17.436  37.562  25.436  1.00  0.00     0.002 A 
HETATM   12  C   LIG     1      17.088  36.313  24.857  1.00  0.00     0.012 A 
ENDROOT
TORSDOF 0
ENDMDL
MODEL 10
REMARK VINA RESULT:      -7.3      2.192      3.774
REMARK  0 active torsions:
REMARK  status: ('A' for Active; 'I' for Inactive)
ROOT
HETATM    1  C   LIG     1      17.896  36.940  20.341  1.00  0.00    -0.024 A 
HETATM    2  C   LIG     1      17.275  35.748  19.920  1.00  0.00     0.012 A 
HETATM    3  C   LIG     1      16.265  35.160  20.729  1.00  0.00     0.002 A 
HETATM    4  C   LIG     1      15.877  35.758  21.953  1.00  0.00     0.012 A 
HETATM    5  C   LIG     1      16.517  36.940  22.334  1.00  0.00    -0.024 A 
HETATM    6  C   LIG     1      16.385  37.821  23.499  1.00  0.00     0.013 A 
HETATM    7  C   LIG     1      17.261  38.832  23.349  1.00  0.00     0.013 A 
HETATM    8  C   LIG     1      17.477  37.481  21.543  1.00  0.00    -0.005 A 
HETATM    9  C   LIG     1      17.975  38.620  22.084  1.00  0.00    -0.024 A 
HETATM   10  C   LIG     1      18.976  39.333  21.423  1.00  0.00     0.012 A 
HETATM   11  C   LIG     1      19.444  38.824  20.187  1.00  0.00     0.002 A 
HETATM   12  C   LIG     1      18.906  37.628  19.642  1.00  0.00     0.012 A 
ENDROOT
TORSDOF 0
ENDMDL
MODEL 11
REMARK VINA RESULT:      -7.1      2.163      4.261
REMARK  0 active torsions:
REMARK  status: ('A' for Active; 'I' for Inactive)
ROOT
HETATM    1  C   LIG     1      17.129  37.529  22.363  1.00  0.00    -0.024 A 
HETATM    2  C   LIG     1      17.340  38.724  23.077  1.00  0.00     0.012 A 
HETATM    3  C   LIG     1      18.203  39.718  22.541  1.00  0.00     0.002 A 
HETATM    4  C   LIG     1      18.853  39.520  21.298  1.00  0.00     0.012 A 
HETATM    5  C   LIG     1      18.617  38.321  20.622  1.00  0.00    -0.024 A 
HETATM    6  C   LIG     1      19.098  37.776  19.348  1.00  0.00     0.013 A 
HETATM    7  C   LIG     1      18.541  36.562  19.185  1.00  0.00     0.013 A 
HETATM    8  C   LIG     1      17.788  37.388  21.156  1.00  0.00    -0.005 A 
HETATM    9  C   LIG     1      17.690  36.301  20.352  1.00  0.00    -0.024 A 
HETATM   10  C   LIG     1      16.882  35.224  20.722  1.00  0.00     0.012 A 
HETATM   11  C   LIG     1      16.183  35.314  21.951  1.00  0.00     0.002 A 
HETATM   12  C   LIG     1      16.304  36.464  22.775  1.00  0.00     0.012 A 
ENDROOT
TORSDOF 0
ENDMDL
MODEL 12
REMARK VINA RESULT:      -7.1      0.567      2.893
REMARK  0 active torsions:
REMARK  status: ('A' for Active; 'I' for Inactive)
ROOT
HETATM    1  C   LIG     1      17.087  37.476  22.689  1.00  0.00    -0.024 A 
HETATM    2  C   LIG     1      16.922  36.919  21.406  1.00  0.00     0.012 A 
HETATM    3  C   LIG     1      16.885  35.507  21.254  1.00  0.00     0.002 A 
HETATM    4  C   LIG     1      17.013  34.653  22.377  1.00  0.00     0.012 A 
HETATM    5  C   LIG     1      17.175  35.245  23.632  1.00  0.00    -0.024 A 
HETATM    6  C   LIG     1      17.336  34.701  24.984  1.00  0.00     0.013 A 
HETATM    7  C   LIG     1      17.453  35.739  25.832  1.00  0.00     0.013 A 
HETATM    8  C   LIG     1      17.207  36.596  23.750  1.00  0.00    -0.005 A 
HETATM    9  C   LIG     1      17.371  36.972  25.041  1.00  0.00    -0.024 A 
HETATM   10  C   LIG     1      17.429  38.326  25.378  1.00  0.00     0.012 A 
HETATM   11  C   LIG     1      17.312  39.272  24.330  1.00  0.00     0.002 A 
HETATM   12  C   LIG     1      17.141  38.852  22.985  1.00  0.00     0.012 A 
ENDROOT
TORSDOF 0
ENDMDL
MODEL 13
REMARK VINA RESULT:      -6.9      8.247     10.767
REMARK  0 active torsions:
REMARK  status: ('A' for Active; 'I' for Inactive)
ROOT
HETATM    1  C   LIG     1      15.653  32.793  16.001  1.00  0.00    -0.024 A 
HETATM    2  C   LIG     1      15.020  32.917  17.253  1.00  0.00     0.012 A 
HETATM    3  C   LIG     1      14.028  31.974  17.635  1.00  0.00     0.002 A 
HETATM    4  C   LIG     1      13.667  30.911  16.770  1.00  0.00     0.012 A 
HETATM    5  C   LIG     1      14.318  30.823  15.538  1.00  0.00    -0.024 A 
HETATM    6  C   LIG     1      14.214  29.887  14.413  1.00  0.00     0.013 A 
HETATM    7  C   LIG     1      15.088  30.282  13.469  1.00  0.00     0.013 A 
HETATM    8  C   LIG     1      15.262  31.736  15.198  1.00  0.00    -0.005 A 
HETATM    9  C   LIG     1      15.773  31.480  13.968  1.00  0.00    -0.024 A 
HETATM   10  C   LIG     1      16.762  32.306  13.431  1.00  0.00     0.012 A 
HETATM   11  C   LIG     1      17.200  33.405  14.211  1.00  0.00     0.002 A 
HETATM   12  C   LIG     1      16.648  33.652  15.496  1.00  0.00     0.012 A 
ENDROOT
TORSDOF 0
ENDMDL
MODEL 14
REMARK VINA RESULT:      -6.9      8.250     10.539
REMARK  0 active torsions:
REMARK  status: ('A' for Active; 'I' for Inactive)
ROOT
HETATM    1  C   LIG     1      15.652  32.791  16.001  1.00  0.00    -0.024 A 
HETATM    2  C   LIG     1      16.648  33.651  15.500  1.00  0.00     0.012 A 
HETATM    3  C   LIG     1      17.205  33.407  14.216  1.00  0.00     0.002 A 
HETATM    4  C   LIG     1      16.769  32.308  13.434  1.00  0.00     0.012 A 
HETATM    5  C   LIG     1      15.779  31.479  13.967  1.00  0.00    -0.024 A 
HETATM    6  C   LIG     1      15.097  30.281  13.466  1.00  0.00     0.013 A 
HETATM    7  C   LIG     1      14.220  29.886  14.407  1.00  0.00     0.013 A 
HETATM    8  C   LIG     1      15.264  31.735  15.196  1.00  0.00    -0.005 A 
HETATM    9  C   LIG     1      14.321  30.822  15.533  1.00  0.00    -0.024 A 
HETATM   10  C   LIG     1      13.666  30.907  16.763  1.00  0.00     0.012 A 
HETATM   11  C   LIG     1      14.024  31.970  17.629  1.00  0.00     0.002 A 
HETATM   12  C   LIG     1      15.016  32.914  17.252  1.00  0.00     0.012 A 
ENDROOT
TORSDOF 0
ENDMDL
MODEL 15
REMARK VINA RESULT:      -6.9      0.790      3.827
REMARK  0 active torsions:
REMARK  status: ('A' for Active; 'I' for Inactive)
ROOT
HETATM    1  C   LIG     1      17.102  37.329  22.121  1.00  0.00    -0.024 A 
HETATM    2  C   LIG     1      17.253  38.725  22.235  1.00  0.00     0.012 A 
HETATM    3  C   LIG     1      17.480  39.305  23.512  1.00  0.00     0.002 A 
HETATM    4  C   LIG     1      17.554  38.495  24.672  1.00  0.00     0.012 A 
HETATM    5  C   LIG     1      17.400  37.116  24.517  1.00  0.00    -0.024 A 
HETATM    6  C   LIG     1      17.416  35.992  25.460  1.00  0.00     0.013 A 
HETATM    7  C   LIG     1      17.212  34.864  24.756  1.00  0.00     0.013 A 
HETATM    8  C   LIG     1      17.185  36.587  23.286  1.00  0.00    -0.005 A 
HETATM    9  C   LIG     1      17.061  35.239  23.345  1.00  0.00    -0.024 A 
HETATM   10  C   LIG     1      16.835  34.502  22.181  1.00  0.00     0.012 A 
HETATM   11  C   LIG     1      16.741  35.211  20.958  1.00  0.00     0.002 A 
HETATM   12  C   LIG     1      16.874  36.624  20.924  1.00  0.00     0.012 A 
ENDROOT
TORSDOF 0
ENDMDL
MODEL 16
REMARK VINA RESULT:      -6.8      8.123     10.463
REMARK  0 active torsions:
REMARK  status: ('A' for Active; 'I' for Inactive)
ROOT
HETATM    1  C   LIG     1      15.466  31.310  14.222  1.00  0.00    -0.024 A 
HETATM    2  C   LIG     1      14.758  30.192  13.739  1.00  0.00     0.012 A 
HETATM    3  C   LIG     1      13.710  29.635  14.519  1.00  0.00     0.002 A 
HETATM    4  C   LIG     1      13.369  30.190  15.778  1.00  0.00     0.012 A 
HETATM    5  C   LIG     1      14.095  31.298  16.221  1.00  0.00    -0.024 A 
HETATM    6  C   LIG     1      14.031  32.119  17.435  1.00  0.00     0.013 A 
HETATM    7  C   LIG     1      14.979  33.069  17.337  1.00  0.00     0.013 A 
HETATM    8  C   LIG     1      15.091  31.811  15.456  1.00  0.00    -0.005 A 
HETATM    9  C   LIG     1      15.672  32.878  16.057  1.00  0.00    -0.024 A 
HETATM   10  C   LIG     1      16.723  33.552  15.432  1.00  0.00     0.012 A 
HETATM   11  C   LIG     1      17.149  33.081  14.165  1.00  0.00     0.002 A 
HETATM   12  C   LIG     1      16.523  31.961  13.557  1.00  0.00     0.012 A 
ENDROOT
TORSDOF 0
ENDMDL
MODEL 17
REMARK VINA RESULT:      -6.8      8.123     10.530
REMARK  0 active torsions:
REMARK  status: ('A' for Active; 'I' for Inactive)
ROOT
HETATM    1  C   LIG     1      15.468  31.310  14.223  1.00  0.00    -0.024 A 
HETATM    2  C   LIG     1      16.525  31.962  13.558  1.00  0.00     0.012 A 
HETATM    3  C   LIG     1      17.151  33.082  14.166  1.00  0.00     0.002 A 
HETATM    4  C   LIG     1      16.724  33.553  15.432  1.00  0.00     0.012 A 
HETATM    5  C   LIG     1      15.672  32.879  16.058  1.00  0.00    -0.024 A 
HETATM    6  C   LIG     1      14.978  33.070  17.336  1.00  0.00     0.013 A 
HETATM    7  C   LIG     1      14.031  32.120  17.434  1.00  0.00     0.013 A 
HETATM    8  C   LIG     1      15.092  31.811  15.456  1.00  0.00    -0.005 A 
HETATM    9  C   LIG     1      14.096  31.299  16.219  1.00  0.00    -0.024 A 
HETATM   10  C   LIG     1      13.370  30.191  15.777  1.00  0.00     0.012 A 
HETATM   11  C   LIG     1      13.712  29.636  14.519  1.00  0.00     0.002 A 
HETATM   12  C   LIG     1      14.760  30.193  13.739  1.00  0.00     0.012 A 
ENDROOT
TORSDOF 0
ENDMDL
MODEL 18
REMARK VINA RESULT:      -6.7      8.017     10.186
REMARK  0 active torsions:
REMARK  status: ('A' for Active; 'I' for Inactive)
ROOT
HETATM    1  C   LIG     1      14.250  30.982  15.898  1.00  0.00    -0.024 A 
HETATM    2  C   LIG     1      13.795  29.906  15.112  1.00  0.00     0.012 A 
HETATM    3  C   LIG     1      14.367  29.682  13.831  1.00  0.00     0.002 A 
HETATM    4  C   LIG     1      15.388  30.529  13.334  1.00  0.00     0.012 A 
HETATM    5  C   LIG     1      15.811  31.585  14.145  1.00  0.00    -0.024 A 
HETATM    6  C   LIG     1      16.817  32.640  13.975  1.00  0.00     0.013 A 
HETATM    7  C   LIG     1      16.806  33.398  15.086  1.00  0.00     0.013 A 
HETATM    8  C   LIG     1      15.249  31.776  15.365  1.00  0.00    -0.005 A 
HETATM    9  C   LIG     1      15.793  32.847  15.994  1.00  0.00    -0.024 A 
HETATM   10  C   LIG     1      15.351  33.215  17.266  1.00  0.00     0.012 A 
HETATM   11  C   LIG     1      14.328  32.436  17.860  1.00  0.00     0.002 A 
HETATM   12  C   LIG     1      13.775  31.319  17.180  1.00  0.00     0.012 A 
ENDROOT
TORSDOF 0
ENDMDL
MODEL 19
REMARK VINA RESULT:      -6.7      8.044     10.582
REMARK  0 active torsions:
REMARK  status: ('A' for Active; 'I' for Inactive)
ROOT
HETATM    1  C   LIG     1      14.307  30.895  15.868  1.00  0.00    -0.024 A 
HETATM    2  C   LIG     1      13.798  31.185  17.149  1.00  0.00     0.012 A 
HETATM    3  C   LIG     1      14.283  32.316  17.858  1.00  0.00     0.002 A 
HETATM    4  C   LIG     1      15.274  33.156  17.291  1.00  0.00     0.012 A 
HETATM    5  C   LIG     1      15.753  32.834  16.019  1.00  0.00    -0.024 A 
HETATM    6  C   LIG     1      16.750  33.450  15.136  1.00  0.00     0.013 A 
HETATM    7  C   LIG     1      16.814  32.713  14.013  1.00  0.00     0.013 A 
HETATM    8  C   LIG     1      15.272  31.747  15.364  1.00  0.00    -0.005 A 
HETATM    9  C   LIG     1      15.860  31.606  14.151  1.00  0.00    -0.024 A 
HETATM   10  C   LIG     1      15.503  30.545  13.316  1.00  0.00     0.012 A 
HETATM   11  C   LIG     1      14.519  29.640  13.783  1.00  0.00     0.002 A 
HETATM   12  C   LIG     1      13.918  29.810  15.058  1.00  0.00     0.012 A 
ENDROOT
TORSDOF 0
ENDMDL
MODEL 20
REMARK VINA RESULT:      -6.4      7.855     10.502
REMARK  0 active torsions:
REMARK  status: ('A' for Active; 'I' for Inactive)
ROOT
HETATM    1  C   LIG     1      15.768  32.509  15.583  1.00  0.00    -0.024 A 
HETATM    2  C   LIG     1      16.622  32.736  14.486  1.00  0.00     0.012 A 
HETATM    3  C   LIG     1      16.491  31.938  13.318  1.00  0.00     0.002 A 
HETATM    4  C   LIG     1      15.513  30.916  13.245  1.00  0.00     0.012 A 
HETATM    5  C   LIG     1      14.686  30.723  14.354  1.00  0.00    -0.024 A 
HETATM    6  C   LIG     1      13.592  29.788  14.639  1.00  0.00     0.013 A 
HETATM    7  C   LIG     1      13.143  30.049  15.881  1.00  0.00     0.013 A 
HETATM    8  C   LIG     1      14.832  31.499  15.457  1.00  0.00    -0.005 A 
HETATM    9  C   LIG     1      13.941  31.157  16.420  1.00  0.00    -0.024 A 
HETATM   10  C   LIG     1      13.926  31.838  17.638  1.00  0.00     0.012 A 
HETATM   11  C   LIG     1      14.865  32.883  17.822  1.00  0.00     0.002 A 
HETATM   12  C   LIG     1      15.788  33.222  16.798  1.00  0.00     0.012 A 
ENDROOT
TORSDOF 0
ENDMDL
