REMARK  0 active torsions:
REMARK  status: ('A' for Active; 'I' for Inactive)
ROOT
HETATM    1  C   LIG     1       1.087   0.489   0.009  1.00  0.00    -0.024 A 
HETATM    2  C   LIG     1       1.160   1.893   0.093  1.00  0.00     0.012 A 
HETATM    3  C   LIG     1      -0.037   2.655   0.163  1.00  0.00     0.002 A 
HETATM    4  C   LIG     1      -1.303   2.019   0.148  1.00  0.00     0.012 A 
HETATM    5  C   LIG     1      -1.332   0.625   0.064  1.00  0.00    -0.024 A 
HETATM    6  C   LIG     1      -2.423  -0.355   0.025  1.00  0.00     0.013 A 
HETATM    7  C   LIG     1      -1.871  -1.579  -0.060  1.00  0.00     0.013 A 
HETATM    8  C   LIG     1      -0.174  -0.079  -0.001  1.00  0.00    -0.005 A 
HETATM    9  C   LIG     1      -0.413  -1.411  -0.078  1.00  0.00    -0.024 A 
HETATM   10  C   LIG     1       0.650  -2.313  -0.153  1.00  0.00     0.012 A 
HETATM   11  C   LIG     1       1.965  -1.786  -0.147  1.00  0.00     0.002 A 
HETATM   12  C   LIG     1       2.188  -0.386  -0.066  1.00  0.00     0.012 A 
ENDROOT
TORSDOF 0
