REMARK  3 active torsions:
REMARK  status: ('A' for Active; 'I' for Inactive)
REMARK       I    between atoms: N_1  and  C_2 
REMARK    1  A    between atoms: C_2  and  O_3 
REMARK    2  A    between atoms: O_3  and  C_4 
REMARK    3  A    between atoms: C_4  and  C_5 
ROOT
HETATM    1  N   LIG     1       3.490   0.083   0.233  1.00  0.00    -0.346 N 
HETATM    2  C   LIG     1       2.201  -0.481   0.014  1.00  0.00     0.358 C 
HETATM    3  O   LIG     1       1.965  -1.103  -1.057  1.00  0.00    -0.239 OA
HETATM    4  H   LIG     1       4.240  -0.013  -0.487  1.00  0.00     0.161 HD
HETATM    5  H   LIG     1       3.694   0.598   1.118  1.00  0.00     0.161 HD
ENDROOT
BRANCH   2   6
HETATM    6  O   LIG     1       1.213  -0.344   0.995  1.00  0.00    -0.304 OA
BRANCH   6   7
HETATM    7  C   LIG     1      -0.121  -0.829   0.842  1.00  0.00     0.184 C 
BRANCH   7   8
HETATM    8  C   LIG     1      -0.938   0.074  -0.101  1.00  0.00     0.002 C 
HETATM    9  C   LIG     1      -2.339  -0.508  -0.315  1.00  0.00     0.011 C 
HETATM   10  C   LIG     1      -1.033   1.503   0.449  1.00  0.00     0.011 C 
ENDBRANCH   7   8
ENDBRANCH   6   7
ENDBRANCH   2   6
TORSDOF 3
