MODEL 1
REMARK VINA RESULT:      -5.5      0.000      0.000
REMARK  6 active torsions:
REMARK  status: ('A' for Active; 'I' for Inactive)
REMARK       I    between atoms: N_1  and  C_2 
REMARK    1  A    between atoms: C_2  and  O_3 
REMARK    2  A    between atoms: O_3  and  C_4 
REMARK    3  A    between atoms: C_4  and  C_5 
REMARK    4  A    between atoms: C_5  and  C_6 
REMARK    5  A    between atoms: C_6  and  C_7 
REMARK    6  A    between atoms: C_7  and  C_8 
ROOT
HETATM    1  O   LIG     1      16.629  36.166  22.066  1.00  0.00    -0.304 OA
ENDROOT
BRANCH   1   2
HETATM    2  C   LIG     1      15.824  35.648  21.044  1.00  0.00     0.358 C 
HETATM    3  N   LIG     1      14.407  35.658  21.198  1.00  0.00    -0.346 N 
HETATM    4  H   LIG     1      13.791  35.278  20.446  1.00  0.00     0.161 HD
HETATM    5  H   LIG     1      13.976  36.044  22.066  1.00  0.00     0.161 HD
HETATM    6  O   LIG     1      16.334  35.180  19.990  1.00  0.00    -0.239 OA
ENDBRANCH   1   2
BRANCH   1   7
HETATM    7  C   LIG     1      17.176  37.484  22.055  1.00  0.00     0.180 C 
BRANCH   7   8
HETATM    8  C   LIG     1      17.248  38.066  23.471  1.00  0.00     0.027 C 
BRANCH   8   9
HETATM    9  C   LIG     1      17.176  36.978  24.555  1.00  0.00     0.002 C 
BRANCH   9  10
HETATM   10  C   LIG     1      17.987  37.339  25.809  1.00  0.00    -0.000 C 
BRANCH  10  11
HETATM   11  C   LIG     1      18.334  36.110  26.662  1.00  0.00    -0.005 C 
HETATM   12  C   LIG     1      17.716  34.843  26.079  1.00  0.00     0.005 C 
ENDBRANCH  10  11
ENDBRANCH   9  10
ENDBRANCH   8   9
ENDBRANCH   7   8
ENDBRANCH   1   7
TORSDOF 6
ENDMDL
MODEL 2
REMARK VINA RESULT:      -5.4      2.669      2.758
REMARK  6 active torsions:
REMARK  status: ('A' for Active; 'I' for Inactive)
REMARK       I    between atoms: N_1  and  C_2 
REMARK    1  A    between atoms: C_2  and  O_3 
REMARK    2  A    between atoms: O_3  and  C_4 
REMARK    3  A    between atoms: C_4  and  C_5 
REMARK    4  A    between atoms: C_5  and  C_6 
REMARK    5  A    between atoms: C_6  and  C_7 
REMARK    6  A    between atoms: C_7  and  C_8 
ROOT
HETATM    1  O   LIG     1      17.347  38.932  21.796  1.00  0.00    -0.304 OA
ENDROOT
BRANCH   1   2
HETATM    2  C   LIG     1      18.420  38.437  21.046  1.00  0.00     0.358 C 
HETATM    3  N   LIG     1      19.570  39.254  20.846  1.00  0.00    -0.346 N 
HETATM    4  H   LIG     1      20.381  38.900  20.292  1.00  0.00     0.161 HD
HETATM    5  H   LIG     1      19.608  40.215  21.253  1.00  0.00     0.161 HD
HETATM    6  O   LIG     1      18.385  37.277  20.552  1.00  0.00    -0.239 OA
ENDBRANCH   1   2
BRANCH   1   7
HETATM    7  C   LIG     1      16.824  38.287  22.957  1.00  0.00     0.180 C 
BRANCH   7   8
HETATM    8  C   LIG     1      17.868  38.235  24.079  1.00  0.00     0.027 C 
BRANCH   8   9
HETATM    9  C   LIG     1      17.366  37.465  25.311  1.00  0.00     0.002 C 
BRANCH   9  10
HETATM   10  C   LIG     1      18.513  36.940  26.187  1.00  0.00    -0.000 C 
BRANCH  10  11
HETATM   11  C   LIG     1      18.395  35.437  26.477  1.00  0.00    -0.005 C 
HETATM   12  C   LIG     1      17.282  34.802  25.648  1.00  0.00     0.005 C 
ENDBRANCH  10  11
ENDBRANCH   9  10
ENDBRANCH   8   9
ENDBRANCH   7   8
ENDBRANCH   1   7
TORSDOF 6
ENDMDL
MODEL 3
REMARK VINA RESULT:      -5.3      3.242      5.331
REMARK  6 active torsions:
REMARK  status: ('A' for Active; 'I' for Inactive)
REMARK       I    between atoms: N_1  and  C_2 
REMARK    1  A    between atoms: C_2  and  O_3 
REMARK    2  A    between atoms: O_3  and  C_4 
REMARK    3  A    between atoms: C_4  and  C_5 
REMARK    4  A    between atoms: C_5  and  C_6 
REMARK    5  A    between atoms: C_6  and  C_7 
REMARK    6  A    between atoms: C_7  and  C_8 
ROOT
HETATM    1  O   LIG     1      17.351  36.451  24.458  1.00  0.00    -0.304 OA
ENDROOT
BRANCH   1   2
HETATM    2  C   LIG     1      17.687  37.448  25.382  1.00  0.00     0.358 C 
HETATM    3  N   LIG     1      18.732  37.210  26.320  1.00  0.00    -0.346 N 
HETATM    4  H   LIG     1      18.997  37.943  27.014  1.00  0.00     0.161 HD
HETATM    5  H   LIG     1      19.240  36.298  26.319  1.00  0.00     0.161 HD
HETATM    6  O   LIG     1      17.081  38.554  25.390  1.00  0.00    -0.239 OA
ENDBRANCH   1   2
BRANCH   1   7
HETATM    7  C   LIG     1      16.771  36.715  23.181  1.00  0.00     0.180 C 
BRANCH   7   8
HETATM    8  C   LIG     1      16.882  35.494  22.259  1.00  0.00     0.027 C 
BRANCH   8   9
HETATM    9  C   LIG     1      17.220  35.882  20.811  1.00  0.00     0.002 C 
BRANCH   9  10
HETATM   10  C   LIG     1      18.079  37.153  20.725  1.00  0.00    -0.000 C 
BRANCH  10  11
HETATM   11  C   LIG     1      19.102  37.098  19.581  1.00  0.00    -0.005 C 
HETATM   12  C   LIG     1      19.895  38.398  19.489  1.00  0.00     0.005 C 
ENDBRANCH  10  11
ENDBRANCH   9  10
ENDBRANCH   8   9
ENDBRANCH   7   8
ENDBRANCH   1   7
TORSDOF 6
ENDMDL
MODEL 4
REMARK VINA RESULT:      -5.1      2.714      3.933
REMARK  6 active torsions:
REMARK  status: ('A' for Active; 'I' for Inactive)
REMARK       I    between atoms: N_1  and  C_2 
REMARK    1  A    between atoms: C_2  and  O_3 
REMARK    2  A    between atoms: O_3  and  C_4 
REMARK    3  A    between atoms: C_4  and  C_5 
REMARK    4  A    between atoms: C_5  and  C_6 
REMARK    5  A    between atoms: C_6  and  C_7 
REMARK    6  A    between atoms: C_7  and  C_8 
ROOT
HETATM    1  O   LIG     1      16.497  36.479  21.772  1.00  0.00    -0.304 OA
ENDROOT
BRANCH   1   2
HETATM    2  C   LIG     1      15.709  35.620  20.997  1.00  0.00     0.358 C 
HETATM    3  N   LIG     1      14.397  35.284  21.440  1.00  0.00    -0.346 N 
HETATM    4  H   LIG     1      13.794  34.647  20.874  1.00  0.00     0.161 HD
HETATM    5  H   LIG     1      14.030  35.674  22.336  1.00  0.00     0.161 HD
HETATM    6  O   LIG     1      16.143  35.144  19.913  1.00  0.00    -0.239 OA
ENDBRANCH   1   2
BRANCH   1   7
HETATM    7  C   LIG     1      15.980  37.596  22.496  1.00  0.00     0.180 C 
BRANCH   7   8
HETATM    8  C   LIG     1      16.900  38.814  22.365  1.00  0.00     0.027 C 
BRANCH   8   9
HETATM    9  C   LIG     1      18.281  38.448  21.798  1.00  0.00     0.002 C 
BRANCH   9  10
HETATM   10  C   LIG     1      18.703  39.359  20.635  1.00  0.00    -0.000 C 
BRANCH  10  11
HETATM   11  C   LIG     1      19.532  38.619  19.576  1.00  0.00    -0.005 C 
HETATM   12  C   LIG     1      19.163  37.140  19.522  1.00  0.00     0.005 C 
ENDBRANCH  10  11
ENDBRANCH   9  10
ENDBRANCH   8   9
ENDBRANCH   7   8
ENDBRANCH   1   7
TORSDOF 6
ENDMDL
MODEL 5
REMARK VINA RESULT:      -5.1      3.537      4.755
REMARK  6 active torsions:
REMARK  status: ('A' for Active; 'I' for Inactive)
REMARK       I    between atoms: N_1  and  C_2 
REMARK    1  A    between atoms: C_2  and  O_3 
REMARK    2  A    between atoms: O_3  and  C_4 
REMARK    3  A    between atoms: C_4  and  C_5 
REMARK    4  A    between atoms: C_5  and  C_6 
REMARK    5  A    between atoms: C_6  and  C_7 
REMARK    6  A    between atoms: C_7  and  C_8 
ROOT
HETATM    1  O   LIG     1      16.065  33.584  20.388  1.00  0.00    -0.304 OA
ENDROOT
BRANCH   1   2
HETATM    2  C   LIG     1      15.356  32.804  19.466  1.00  0.00     0.358 C 
HETATM    3  N   LIG     1      14.407  31.853  19.939  1.00  0.00    -0.346 N 
HETATM    4  H   LIG     1      13.867  31.264  19.266  1.00  0.00     0.161 HD
HETATM    5  H   LIG     1      14.245  31.738  20.964  1.00  0.00     0.161 HD
HETATM    6  O   LIG     1      15.543  32.936  18.226  1.00  0.00    -0.239 OA
ENDBRANCH   1   2
BRANCH   1   7
HETATM    7  C   LIG     1      16.013  35.011  20.426  1.00  0.00     0.180 C 
BRANCH   7   8
HETATM    8  C   LIG     1      17.008  35.573  21.449  1.00  0.00     0.027 C 
BRANCH   8   9
HETATM    9  C   LIG     1      17.614  36.913  21.001  1.00  0.00     0.002 C 
BRANCH   9  10
HETATM   10  C   LIG     1      18.663  36.745  19.892  1.00  0.00    -0.000 C 
BRANCH  10  11
HETATM   11  C   LIG     1      19.130  38.088  19.313  1.00  0.00    -0.005 C 
HETATM   12  C   LIG     1      19.361  39.114  20.419  1.00  0.00     0.005 C 
ENDBRANCH  10  11
ENDBRANCH   9  10
ENDBRANCH   8   9
ENDBRANCH   7   8
ENDBRANCH   1   7
TORSDOF 6
ENDMDL
MODEL 6
REMARK VINA RESULT:      -5.0      2.431      3.174
REMARK  6 active torsions:
REMARK  status: ('A' for Active; 'I' for Inactive)
REMARK       I    between atoms: N_1  and  C_2 
REMARK    1  A    between atoms: C_2  and  O_3 
REMARK    2  A    between atoms: O_3  and  C_4 
REMARK    3  A    between atoms: C_4  and  C_5 
REMARK    4  A    between atoms: C_5  and  C_6 
REMARK    5  A    between atoms: C_6  and  C_7 
REMARK    6  A    between atoms: C_7  and  C_8 
ROOT
HETATM    1  O   LIG     1      17.845  37.470  21.597  1.00  0.00    -0.304 OA
ENDROOT
BRANCH   1   2
HETATM    2  C   LIG     1      17.781  38.829  21.925  1.00  0.00     0.358 C 
HETATM    3  N   LIG     1      18.770  39.719  21.415  1.00  0.00    -0.346 N 
HETATM    4  H   LIG     1      18.737  40.736  21.647  1.00  0.00     0.161 HD
HETATM    5  H   LIG     1      19.536  39.358  20.804  1.00  0.00     0.161 HD
HETATM    6  O   LIG     1      16.860  39.276  22.661  1.00  0.00    -0.239 OA
ENDBRANCH   1   2
BRANCH   1   7
HETATM    7  C   LIG     1      16.707  36.610  21.550  1.00  0.00     0.180 C 
BRANCH   7   8
HETATM    8  C   LIG     1      16.850  35.448  22.540  1.00  0.00     0.027 C 
BRANCH   8   9
HETATM    9  C   LIG     1      17.070  35.930  23.983  1.00  0.00     0.002 C 
BRANCH   9  10
HETATM   10  C   LIG     1      17.551  34.807  24.914  1.00  0.00    -0.000 C 
BRANCH  10  11
HETATM   11  C   LIG     1      17.641  35.254  26.381  1.00  0.00    -0.005 C 
HETATM   12  C   LIG     1      18.488  36.515  26.521  1.00  0.00     0.005 C 
ENDBRANCH  10  11
ENDBRANCH   9  10
ENDBRANCH   8   9
ENDBRANCH   7   8
ENDBRANCH   1   7
TORSDOF 6
ENDMDL
MODEL 7
REMARK VINA RESULT:      -4.9      1.370      1.922
REMARK  6 active torsions:
REMARK  status: ('A' for Active; 'I' for Inactive)
REMARK       I    between atoms: N_1  and  C_2 
REMARK    1  A    between atoms: C_2  and  O_3 
REMARK    2  A    between atoms: O_3  and  C_4 
REMARK    3  A    between atoms: C_4  and  C_5 
REMARK    4  A    between atoms: C_5  and  C_6 
REMARK    5  A    between atoms: C_6  and  C_7 
REMARK    6  A    between atoms: C_7  and  C_8 
ROOT
HETATM    1  O   LIG     1      16.427  35.705  20.728  1.00  0.00    -0.304 OA
ENDROOT
BRANCH   1   2
HETATM    2  C   LIG     1      15.546  34.618  20.679  1.00  0.00     0.358 C 
HETATM    3  N   LIG     1      15.470  33.833  19.492  1.00  0.00    -0.346 N 
HETATM    4  H   LIG     1      14.821  33.017  19.439  1.00  0.00     0.161 HD
HETATM    5  H   LIG     1      16.064  34.070  18.668  1.00  0.00     0.161 HD
HETATM    6  O   LIG     1      14.825  34.323  21.670  1.00  0.00    -0.239 OA
ENDBRANCH   1   2
BRANCH   1   7
HETATM    7  C   LIG     1      17.047  36.171  21.927  1.00  0.00     0.180 C 
BRANCH   7   8
HETATM    8  C   LIG     1      17.382  37.664  21.833  1.00  0.00     0.027 C 
BRANCH   8   9
HETATM    9  C   LIG     1      17.327  38.364  23.201  1.00  0.00     0.002 C 
BRANCH   9  10
HETATM   10  C   LIG     1      16.883  37.421  24.329  1.00  0.00    -0.000 C 
BRANCH  10  11
HETATM   11  C   LIG     1      17.477  37.809  25.691  1.00  0.00    -0.005 C 
HETATM   12  C   LIG     1      18.414  36.723  26.211  1.00  0.00     0.005 C 
ENDBRANCH  10  11
ENDBRANCH   9  10
ENDBRANCH   8   9
ENDBRANCH   7   8
ENDBRANCH   1   7
TORSDOF 6
ENDMDL
MODEL 8
REMARK VINA RESULT:      -4.9      2.840      3.988
REMARK  6 active torsions:
REMARK  status: ('A' for Active; 'I' for Inactive)
REMARK       I    between atoms: N_1  and  C_2 
REMARK    1  A    between atoms: C_2  and  O_3 
REMARK    2  A    between atoms: O_3  and  C_4 
REMARK    3  A    between atoms: C_4  and  C_5 
REMARK    4  A    between atoms: C_5  and  C_6 
REMARK    5  A    between atoms: C_6  and  C_7 
REMARK    6  A    between atoms: C_7  and  C_8 
ROOT
HETATM    1  O   LIG     1      16.010  33.371  20.225  1.00  0.00    -0.304 OA
ENDROOT
BRANCH   1   2
HETATM    2  C   LIG     1      15.305  32.681  19.231  1.00  0.00     0.358 C 
HETATM    3  N   LIG     1      14.249  31.800  19.606  1.00  0.00    -0.346 N 
HETATM    4  H   LIG     1      13.712  31.280  18.878  1.00  0.00     0.161 HD
HETATM    5  H   LIG     1      14.008  31.669  20.613  1.00  0.00     0.161 HD
HETATM    6  O   LIG     1      15.588  32.834  18.012  1.00  0.00    -0.239 OA
ENDBRANCH   1   2
BRANCH   1   7
HETATM    7  C   LIG     1      15.420  34.344  21.087  1.00  0.00     0.180 C 
BRANCH   7   8
HETATM    8  C   LIG     1      16.493  35.141  21.839  1.00  0.00     0.027 C 
BRANCH   8   9
HETATM    9  C   LIG     1      16.123  36.625  21.990  1.00  0.00     0.002 C 
BRANCH   9  10
HETATM   10  C   LIG     1      17.054  37.370  22.957  1.00  0.00    -0.000 C 
BRANCH  10  11
HETATM   11  C   LIG     1      17.293  38.829  22.541  1.00  0.00    -0.005 C 
HETATM   12  C   LIG     1      18.143  38.908  21.276  1.00  0.00     0.005 C 
ENDBRANCH  10  11
ENDBRANCH   9  10
ENDBRANCH   8   9
ENDBRANCH   7   8
ENDBRANCH   1   7
TORSDOF 6
ENDMDL
MODEL 9
REMARK VINA RESULT:      -4.6      4.733      8.027
REMARK  6 active torsions:
REMARK  status: ('A' for Active; 'I' for Inactive)
REMARK       I    between atoms: N_1  and  C_2 
REMARK    1  A    between atoms: C_2  and  O_3 
REMARK    2  A    between atoms: O_3  and  C_4 
REMARK    3  A    between atoms: C_4  and  C_5 
REMARK    4  A    between atoms: C_5  and  C_6 
REMARK    5  A    between atoms: C_6  and  C_7 
REMARK    6  A    between atoms: C_7  and  C_8 
ROOT
HETATM    1  O   LIG     1      15.722  33.977  19.730  1.00  0.00    -0.304 OA
ENDROOT
BRANCH   1   2
HETATM    2  C   LIG     1      15.721  35.193  20.423  1.00  0.00     0.358 C 
HETATM    3  N   LIG     1      14.514  35.654  21.024  1.00  0.00    -0.346 N 
HETATM    4  H   LIG     1      14.494  36.557  21.547  1.00  0.00     0.161 HD
HETATM    5  H   LIG     1      13.639  35.090  20.944  1.00  0.00     0.161 HD
HETATM    6  O   LIG     1      16.772  35.881  20.527  1.00  0.00    -0.239 OA
ENDBRANCH   1   2
BRANCH   1   7
HETATM    7  C   LIG     1      15.113  32.782  20.220  1.00  0.00     0.180 C 
BRANCH   7   8
HETATM    8  C   LIG     1      14.969  31.738  19.107  1.00  0.00     0.027 C 
BRANCH   8   9
HETATM    9  C   LIG     1      14.577  32.367  17.760  1.00  0.00     0.002 C 
BRANCH   9  10
HETATM   10  C   LIG     1      13.683  31.446  16.916  1.00  0.00    -0.000 C 
BRANCH  10  11
HETATM   11  C   LIG     1      14.353  31.012  15.604  1.00  0.00    -0.005 C 
HETATM   12  C   LIG     1      13.511  29.968  14.876  1.00  0.00     0.005 C 
ENDBRANCH  10  11
ENDBRANCH   9  10
ENDBRANCH   8   9
ENDBRANCH   7   8
ENDBRANCH   1   7
TORSDOF 6
ENDMDL
MODEL 10
REMARK VINA RESULT:      -4.6      5.754      9.023
REMARK  6 active torsions:
REMARK  status: ('A' for Active; 'I' for Inactive)
REMARK       I    between atoms: N_1  and  C_2 
REMARK    1  A    between atoms: C_2  and  O_3 
REMARK    2  A    between atoms: O_3  and  C_4 
REMARK    3  A    between atoms: C_4  and  C_5 
REMARK    4  A    between atoms: C_5  and  C_6 
REMARK    5  A    between atoms: C_6  and  C_7 
REMARK    6  A    between atoms: C_7  and  C_8 
ROOT
HETATM    1  O   LIG     1      15.758  32.689  19.205  1.00  0.00    -0.304 OA
ENDROOT
BRANCH   1   2
HETATM    2  C   LIG     1      15.566  33.718  20.134  1.00  0.00     0.358 C 
HETATM    3  N   LIG     1      14.524  33.604  21.100  1.00  0.00    -0.346 N 
HETATM    4  H   LIG     1      14.368  34.361  21.801  1.00  0.00     0.161 HD
HETATM    5  H   LIG     1      13.908  32.761  21.110  1.00  0.00     0.161 HD
HETATM    6  O   LIG     1      16.305  34.740  20.131  1.00  0.00    -0.239 OA
ENDBRANCH   1   2
BRANCH   1   7
HETATM    7  C   LIG     1      14.712  32.134  18.406  1.00  0.00     0.180 C 
BRANCH   7   8
HETATM    8  C   LIG     1      14.768  32.671  16.972  1.00  0.00     0.027 C 
BRANCH   8   9
HETATM    9  C   LIG     1      14.630  31.556  15.923  1.00  0.00     0.002 C 
BRANCH   9  10
HETATM   10  C   LIG     1      15.697  31.646  14.822  1.00  0.00    -0.000 C 
BRANCH  10  11
HETATM   11  C   LIG     1      15.379  30.750  13.616  1.00  0.00    -0.005 C 
HETATM   12  C   LIG     1      15.021  29.335  14.061  1.00  0.00     0.005 C 
ENDBRANCH  10  11
ENDBRANCH   9  10
ENDBRANCH   8   9
ENDBRANCH   7   8
ENDBRANCH   1   7
TORSDOF 6
ENDMDL
MODEL 11
REMARK VINA RESULT:      -4.4      7.783     10.076
REMARK  6 active torsions:
REMARK  status: ('A' for Active; 'I' for Inactive)
REMARK       I    between atoms: N_1  and  C_2 
REMARK    1  A    between atoms: C_2  and  O_3 
REMARK    2  A    between atoms: O_3  and  C_4 
REMARK    3  A    between atoms: C_4  and  C_5 
REMARK    4  A    between atoms: C_5  and  C_6 
REMARK    5  A    between atoms: C_6  and  C_7 
REMARK    6  A    between atoms: C_7  and  C_8 
ROOT
HETATM    1  O   LIG     1      16.029  32.511  16.261  1.00  0.00    -0.304 OA
ENDROOT
BRANCH   1   2
HETATM    2  C   LIG     1      15.497  33.778  16.531  1.00  0.00     0.358 C 
HETATM    3  N   LIG     1      14.191  33.884  17.090  1.00  0.00    -0.346 N 
HETATM    4  H   LIG     1      13.779  34.820  17.300  1.00  0.00     0.161 HD
HETATM    5  H   LIG     1      13.635  33.023  17.292  1.00  0.00     0.161 HD
HETATM    6  O   LIG     1      16.160  34.824  16.292  1.00  0.00    -0.239 OA
ENDBRANCH   1   2
BRANCH   1   7
HETATM    7  C   LIG     1      17.117  32.281  15.366  1.00  0.00     0.180 C 
BRANCH   7   8
HETATM    8  C   LIG     1      16.679  32.451  13.907  1.00  0.00     0.027 C 
BRANCH   8   9
HETATM    9  C   LIG     1      15.414  31.643  13.577  1.00  0.00     0.002 C 
BRANCH   9  10
HETATM   10  C   LIG     1      15.543  30.161  13.960  1.00  0.00    -0.000 C 
BRANCH  10  11
HETATM   11  C   LIG     1      14.198  29.533  14.353  1.00  0.00    -0.005 C 
HETATM   12  C   LIG     1      13.446  30.417  15.344  1.00  0.00     0.005 C 
ENDBRANCH  10  11
ENDBRANCH   9  10
ENDBRANCH   8   9
ENDBRANCH   7   8
ENDBRANCH   1   7
TORSDOF 6
ENDMDL
MODEL 12
REMARK VINA RESULT:      -4.3      7.971     11.006
REMARK  6 active torsions:
REMARK  status: ('A' for Active; 'I' for Inactive)
REMARK       I    between atoms: N_1  and  C_2 
REMARK    1  A    between atoms: C_2  and  O_3 
REMARK    2  A    between atoms: O_3  and  C_4 
REMARK    3  A    between atoms: C_4  and  C_5 
REMARK    4  A    between atoms: C_5  and  C_6 
REMARK    5  A    between atoms: C_6  and  C_7 
REMARK    6  A    between atoms: C_7  and  C_8 
ROOT
HETATM    1  O   LIG     1      14.988  31.907  16.787  1.00  0.00    -0.304 OA
ENDROOT
BRANCH   1   2
HETATM    2  C   LIG     1      15.202  33.259  17.083  1.00  0.00     0.358 C 
HETATM    3  N   LIG     1      15.195  33.687  18.442  1.00  0.00    -0.346 N 
HETATM    4  H   LIG     1      15.356  34.690  18.682  1.00  0.00     0.161 HD
HETATM    5  H   LIG     1      15.028  32.998  19.209  1.00  0.00     0.161 HD
HETATM    6  O   LIG     1      15.406  34.098  16.165  1.00  0.00    -0.239 OA
ENDBRANCH   1   2
BRANCH   1   7
HETATM    7  C   LIG     1      14.845  31.397  15.462  1.00  0.00     0.180 C 
BRANCH   7   8
HETATM    8  C   LIG     1      13.609  30.498  15.344  1.00  0.00     0.027 C 
BRANCH   8   9
HETATM    9  C   LIG     1      13.763  29.429  14.251  1.00  0.00     0.002 C 
BRANCH   9  10
HETATM   10  C   LIG     1      15.233  29.080  13.970  1.00  0.00    -0.000 C 
BRANCH  10  11
HETATM   11  C   LIG     1      15.456  27.573  13.778  1.00  0.00    -0.005 C 
HETATM   12  C   LIG     1      15.682  27.233  12.307  1.00  0.00     0.005 C 
ENDBRANCH  10  11
ENDBRANCH   9  10
ENDBRANCH   8   9
ENDBRANCH   7   8
ENDBRANCH   1   7
TORSDOF 6
ENDMDL
MODEL 13
REMARK VINA RESULT:      -4.2      7.814     10.184
REMARK  6 active torsions:
REMARK  status: ('A' for Active; 'I' for Inactive)
REMARK       I    between atoms: N_1  and  C_2 
REMARK    1  A    between atoms: C_2  and  O_3 
REMARK    2  A    between atoms: O_3  and  C_4 
REMARK    3  A    between atoms: C_4  and  C_5 
REMARK    4  A    between atoms: C_5  and  C_6 
REMARK    5  A    between atoms: C_6  and  C_7 
REMARK    6  A    between atoms: C_7  and  C_8 
ROOT
HETATM    1  O   LIG     1      16.216  32.671  16.546  1.00  0.00    -0.304 OA
ENDROOT
BRANCH   1   2
HETATM    2  C   LIG     1      15.056  33.420  16.776  1.00  0.00     0.358 C 
HETATM    3  N   LIG     1      13.857  32.754  17.162  1.00  0.00    -0.346 N 
HETATM    4  H   LIG     1      12.983  33.296  17.339  1.00  0.00     0.161 HD
HETATM    5  H   LIG     1      13.846  31.715  17.269  1.00  0.00     0.161 HD
HETATM    6  O   LIG     1      15.059  34.675  16.650  1.00  0.00    -0.239 OA
ENDBRANCH   1   2
BRANCH   1   7
HETATM    7  C   LIG     1      16.658  32.268  15.250  1.00  0.00     0.180 C 
BRANCH   7   8
HETATM    8  C   LIG     1      17.556  33.336  14.614  1.00  0.00     0.027 C 
BRANCH   8   9
HETATM    9  C   LIG     1      17.733  33.127  13.102  1.00  0.00     0.002 C 
BRANCH   9  10
HETATM   10  C   LIG     1      18.298  34.370  12.397  1.00  0.00    -0.000 C 
BRANCH  10  11
HETATM   11  C   LIG     1      19.611  34.082  11.654  1.00  0.00    -0.005 C 
HETATM   12  C   LIG     1      20.805  34.146  12.602  1.00  0.00     0.005 C 
ENDBRANCH  10  11
ENDBRANCH   9  10
ENDBRANCH   8   9
ENDBRANCH   7   8
ENDBRANCH   1   7
TORSDOF 6
ENDMDL
MODEL 14
REMARK VINA RESULT:      -4.0     10.038     10.961
REMARK  6 active torsions:
REMARK  status: ('A' for Active; 'I' for Inactive)
REMARK       I    between atoms: N_1  and  C_2 
REMARK    1  A    between atoms: C_2  and  O_3 
REMARK    2  A    between atoms: O_3  and  C_4 
REMARK    3  A    between atoms: C_4  and  C_5 
REMARK    4  A    between atoms: C_5  and  C_6 
REMARK    5  A    between atoms: C_6  and  C_7 
REMARK    6  A    between atoms: C_7  and  C_8 
ROOT
HETATM    1  O   LIG     1      16.258  33.007  13.924  1.00  0.00    -0.304 OA
ENDROOT
BRANCH   1   2
HETATM    2  C   LIG     1      15.883  31.902  14.698  1.00  0.00     0.358 C 
HETATM    3  N   LIG     1      15.189  32.110  15.925  1.00  0.00    -0.346 N 
HETATM    4  H   LIG     1      14.900  31.298  16.513  1.00  0.00     0.161 HD
HETATM    5  H   LIG     1      14.967  33.079  16.244  1.00  0.00     0.161 HD
HETATM    6  O   LIG     1      16.145  30.727  14.321  1.00  0.00    -0.239 OA
ENDBRANCH   1   2
BRANCH   1   7
HETATM    7  C   LIG     1      17.249  32.957  12.897  1.00  0.00     0.180 C 
BRANCH   7   8
HETATM    8  C   LIG     1      18.440  33.862  13.234  1.00  0.00     0.027 C 
BRANCH   8   9
HETATM    9  C   LIG     1      19.724  33.435  12.505  1.00  0.00     0.002 C 
BRANCH   9  10
HETATM   10  C   LIG     1      20.772  34.557  12.448  1.00  0.00    -0.000 C 
BRANCH  10  11
HETATM   11  C   LIG     1      22.095  34.165  13.122  1.00  0.00    -0.005 C 
HETATM   12  C   LIG     1      22.976  35.389  13.357  1.00  0.00     0.005 C 
ENDBRANCH  10  11
ENDBRANCH   9  10
ENDBRANCH   8   9
ENDBRANCH   7   8
ENDBRANCH   1   7
TORSDOF 6
ENDMDL
MODEL 15
REMARK VINA RESULT:      -3.9      8.312     10.188
REMARK  6 active torsions:
REMARK  status: ('A' for Active; 'I' for Inactive)
REMARK       I    between atoms: N_1  and  C_2 
REMARK    1  A    between atoms: C_2  and  O_3 
REMARK    2  A    between atoms: O_3  and  C_4 
REMARK    3  A    between atoms: C_4  and  C_5 
REMARK    4  A    between atoms: C_5  and  C_6 
REMARK    5  A    between atoms: C_6  and  C_7 
REMARK    6  A    between atoms: C_7  and  C_8 
ROOT
HETATM    1  O   LIG     1      14.465  32.595  16.508  1.00  0.00    -0.304 OA
ENDROOT
BRANCH   1   2
HETATM    2  C   LIG     1      13.868  31.655  17.358  1.00  0.00     0.358 C 
HETATM    3  N   LIG     1      14.078  31.752  18.764  1.00  0.00    -0.346 N 
HETATM    4  H   LIG     1      13.639  31.062  19.413  1.00  0.00     0.161 HD
HETATM    5  H   LIG     1      14.673  32.515  19.155  1.00  0.00     0.161 HD
HETATM    6  O   LIG     1      13.146  30.730  16.897  1.00  0.00    -0.239 OA
ENDBRANCH   1   2
BRANCH   1   7
HETATM    7  C   LIG     1      15.875  32.714  16.322  1.00  0.00     0.180 C 
BRANCH   7   8
HETATM    8  C   LIG     1      16.263  32.470  14.859  1.00  0.00     0.027 C 
BRANCH   8   9
HETATM    9  C   LIG     1      17.515  33.259  14.444  1.00  0.00     0.002 C 
BRANCH   9  10
HETATM   10  C   LIG     1      17.478  33.695  12.972  1.00  0.00    -0.000 C 
BRANCH  10  11
HETATM   11  C   LIG     1      18.800  33.420  12.241  1.00  0.00    -0.005 C 
HETATM   12  C   LIG     1      19.126  34.538  11.255  1.00  0.00     0.005 C 
ENDBRANCH  10  11
ENDBRANCH   9  10
ENDBRANCH   8   9
ENDBRANCH   7   8
ENDBRANCH   1   7
TORSDOF 6
ENDMDL
MODEL 16
REMARK VINA RESULT:      -3.6      8.929     10.085
REMARK  6 active torsions:
REMARK  status: ('A' for Active; 'I' for Inactive)
REMARK       I    between atoms: N_1  and  C_2 
REMARK    1  A    between atoms: C_2  and  O_3 
REMARK    2  A    between atoms: O_3  and  C_4 
REMARK    3  A    between atoms: C_4  and  C_5 
REMARK    4  A    between atoms: C_5  and  C_6 
REMARK    5  A    between atoms: C_6  and  C_7 
REMARK    6  A    between atoms: C_7  and  C_8 
ROOT
HETATM    1  O   LIG     1      13.443  29.681  14.608  1.00  0.00    -0.304 OA
ENDROOT
BRANCH   1   2
HETATM    2  C   LIG     1      14.710  29.582  14.020  1.00  0.00     0.358 C 
HETATM    3  N   LIG     1      15.193  30.653  13.214  1.00  0.00    -0.346 N 
HETATM    4  H   LIG     1      16.136  30.598  12.770  1.00  0.00     0.161 HD
HETATM    5  H   LIG     1      14.605  31.502  13.062  1.00  0.00     0.161 HD
HETATM    6  O   LIG     1      15.429  28.562  14.198  1.00  0.00    -0.239 OA
ENDBRANCH   1   2
BRANCH   1   7
HETATM    7  C   LIG     1      13.060  30.729  15.498  1.00  0.00     0.180 C 
BRANCH   7   8
HETATM    8  C   LIG     1      13.584  30.471  16.915  1.00  0.00     0.027 C 
BRANCH   8   9
HETATM    9  C   LIG     1      14.021  31.763  17.623  1.00  0.00     0.002 C 
BRANCH   9  10
HETATM   10  C   LIG     1      14.053  32.973  16.678  1.00  0.00    -0.000 C 
BRANCH  10  11
HETATM   11  C   LIG     1      15.434  33.643  16.621  1.00  0.00    -0.005 C 
HETATM   12  C   LIG     1      16.310  33.006  15.547  1.00  0.00     0.005 C 
ENDBRANCH  10  11
ENDBRANCH   9  10
ENDBRANCH   8   9
ENDBRANCH   7   8
ENDBRANCH   1   7
TORSDOF 6
ENDMDL
MODEL 17
REMARK VINA RESULT:      -3.5      6.830      9.357
REMARK  6 active torsions:
REMARK  status: ('A' for Active; 'I' for Inactive)
REMARK       I    between atoms: N_1  and  C_2 
REMARK    1  A    between atoms: C_2  and  O_3 
REMARK    2  A    between atoms: O_3  and  C_4 
REMARK    3  A    between atoms: C_4  and  C_5 
REMARK    4  A    between atoms: C_5  and  C_6 
REMARK    5  A    between atoms: C_6  and  C_7 
REMARK    6  A    between atoms: C_7  and  C_8 
ROOT
HETATM    1  O   LIG     1      14.347  32.695  17.852  1.00  0.00    -0.304 OA
ENDROOT
BRANCH   1   2
HETATM    2  C   LIG     1      14.872  32.225  19.062  1.00  0.00     0.358 C 
HETATM    3  N   LIG     1      15.768  33.048  19.803  1.00  0.00    -0.346 N 
HETATM    4  H   LIG     1      16.167  32.715  20.708  1.00  0.00     0.161 HD
HETATM    5  H   LIG     1      16.032  33.992  19.444  1.00  0.00     0.161 HD
HETATM    6  O   LIG     1      14.558  31.087  19.506  1.00  0.00    -0.239 OA
ENDBRANCH   1   2
BRANCH   1   7
HETATM    7  C   LIG     1      14.439  31.984  16.617  1.00  0.00     0.180 C 
BRANCH   7   8
HETATM    8  C   LIG     1      15.893  31.885  16.142  1.00  0.00     0.027 C 
BRANCH   8   9
HETATM    9  C   LIG     1      16.252  32.978  15.123  1.00  0.00     0.002 C 
BRANCH   9  10
HETATM   10  C   LIG     1      16.325  32.444  13.684  1.00  0.00    -0.000 C 
BRANCH  10  11
HETATM   11  C   LIG     1      17.515  33.016  12.901  1.00  0.00    -0.005 C 
HETATM   12  C   LIG     1      18.320  33.990  13.756  1.00  0.00     0.005 C 
ENDBRANCH  10  11
ENDBRANCH   9  10
ENDBRANCH   8   9
ENDBRANCH   7   8
ENDBRANCH   1   7
TORSDOF 6
ENDMDL
MODEL 18
REMARK VINA RESULT:      -3.3     18.865     20.024
REMARK  6 active torsions:
REMARK  status: ('A' for Active; 'I' for Inactive)
REMARK       I    between atoms: N_1  and  C_2 
REMARK    1  A    between atoms: C_2  and  O_3 
REMARK    2  A    between atoms: O_3  and  C_4 
REMARK    3  A    between atoms: C_4  and  C_5 
REMARK    4  A    between atoms: C_5  and  C_6 
REMARK    5  A    between atoms: C_6  and  C_7 
REMARK    6  A    between atoms: C_7  and  C_8 
ROOT
HETATM    1  O   LIG     1      14.842  19.440  12.456  1.00  0.00    -0.304 OA
ENDROOT
BRANCH   1   2
HETATM    2  C   LIG     1      16.063  19.820  11.886  1.00  0.00     0.358 C 
HETATM    3  N   LIG     1      16.186  21.106  11.286  1.00  0.00    -0.346 N 
HETATM    4  H   LIG     1      17.090  21.406  10.859  1.00  0.00     0.161 HD
HETATM    5  H   LIG     1      15.370  21.757  11.270  1.00  0.00     0.161 HD
HETATM    6  O   LIG     1      17.055  19.041  11.902  1.00  0.00    -0.239 OA
ENDBRANCH   1   2
BRANCH   1   7
HETATM    7  C   LIG     1      14.441  18.083  12.647  1.00  0.00     0.180 C 
BRANCH   7   8
HETATM    8  C   LIG     1      13.184  17.994  13.519  1.00  0.00     0.027 C 
BRANCH   8   9
HETATM    9  C   LIG     1      13.380  18.643  14.898  1.00  0.00     0.002 C 
BRANCH   9  10
HETATM   10  C   LIG     1      14.594  18.077  15.650  1.00  0.00    -0.000 C 
BRANCH  10  11
HETATM   11  C   LIG     1      15.351  19.152  16.445  1.00  0.00    -0.005 C 
HETATM   12  C   LIG     1      16.499  19.735  15.626  1.00  0.00     0.005 C 
ENDBRANCH  10  11
ENDBRANCH   9  10
ENDBRANCH   8   9
ENDBRANCH   7   8
ENDBRANCH   1   7
TORSDOF 6
ENDMDL
MODEL 19
REMARK VINA RESULT:      -3.3     16.347     17.019
REMARK  6 active torsions:
REMARK  status: ('A' for Active; 'I' for Inactive)
REMARK       I    between atoms: N_1  and  C_2 
REMARK    1  A    between atoms: C_2  and  O_3 
REMARK    2  A    between atoms: O_3  and  C_4 
REMARK    3  A    between atoms: C_4  and  C_5 
REMARK    4  A    between atoms: C_5  and  C_6 
REMARK    5  A    between atoms: C_6  and  C_7 
REMARK    6  A    between atoms: C_7  and  C_8 
ROOT
HETATM    1  O   LIG     1      27.714  27.863  33.666  1.00  0.00    -0.304 OA
ENDROOT
BRANCH   1   2
HETATM    2  C   LIG     1      26.626  27.104  33.221  1.00  0.00     0.358 C 
HETATM    3  N   LIG     1      26.094  26.084  34.062  1.00  0.00    -0.346 N 
HETATM    4  H   LIG     1      25.281  25.509  33.747  1.00  0.00     0.161 HD
HETATM    5  H   LIG     1      26.515  25.904  34.999  1.00  0.00     0.161 HD
HETATM    6  O   LIG     1      26.108  27.314  32.090  1.00  0.00    -0.239 OA
ENDBRANCH   1   2
BRANCH   1   7
HETATM    7  C   LIG     1      27.664  28.741  34.790  1.00  0.00     0.180 C 
BRANCH   7   8
HETATM    8  C   LIG     1      26.417  29.632  34.741  1.00  0.00     0.027 C 
BRANCH   8   9
HETATM    9  C   LIG     1      26.706  31.070  35.203  1.00  0.00     0.002 C 
BRANCH   9  10
HETATM   10  C   LIG     1      25.880  31.471  36.435  1.00  0.00    -0.000 C 
BRANCH  10  11
HETATM   11  C   LIG     1      26.756  31.859  37.634  1.00  0.00    -0.005 C 
HETATM   12  C   LIG     1      28.239  31.771  37.283  1.00  0.00     0.005 C 
ENDBRANCH  10  11
ENDBRANCH   9  10
ENDBRANCH   8   9
ENDBRANCH   7   8
ENDBRANCH   1   7
TORSDOF 6
ENDMDL
MODEL 20
REMARK VINA RESULT:      -3.0     15.530     16.206
REMARK  6 active torsions:
REMARK  status: ('A' for Active; 'I' for Inactive)
REMARK       I    between atoms: N_1  and  C_2 
REMARK    1  A    between atoms: C_2  and  O_3 
REMARK    2  A    between atoms: O_3  and  C_4 
REMARK    3  A    between atoms: C_4  and  C_5 
REMARK    4  A    between atoms: C_5  and  C_6 
REMARK    5  A    between atoms: C_6  and  C_7 
REMARK    6  A    between atoms: C_7  and  C_8 
ROOT
HETATM    1  O   LIG     1      25.531  23.965  19.607  1.00  0.00    -0.304 OA
ENDROOT
BRANCH   1   2
HETATM    2  C   LIG     1      26.326  24.844  18.861  1.00  0.00     0.358 C 
HETATM    3  N   LIG     1      26.520  26.177  19.325  1.00  0.00    -0.346 N 
HETATM    4  H   LIG     1      27.111  26.845  18.783  1.00  0.00     0.161 HD
HETATM    5  H   LIG     1      26.071  26.494  20.212  1.00  0.00     0.161 HD
HETATM    6  O   LIG     1      26.874  24.470  17.788  1.00  0.00    -0.239 OA
ENDBRANCH   1   2
BRANCH   1   7
HETATM    7  C   LIG     1      25.425  22.567  19.337  1.00  0.00     0.180 C 
BRANCH   7   8
HETATM    8  C   LIG     1      24.108  22.240  18.623  1.00  0.00     0.027 C 
BRANCH   8   9
HETATM    9  C   LIG     1      23.101  21.535  19.546  1.00  0.00     0.002 C 
BRANCH   9  10
HETATM   10  C   LIG     1      22.622  22.434  20.695  1.00  0.00    -0.000 C 
BRANCH  10  11
HETATM   11  C   LIG     1      22.883  21.818  22.076  1.00  0.00    -0.005 C 
HETATM   12  C   LIG     1      23.004  20.300  21.988  1.00  0.00     0.005 C 
ENDBRANCH  10  11
ENDBRANCH   9  10
ENDBRANCH   8   9
ENDBRANCH   7   8
ENDBRANCH   1   7
TORSDOF 6
ENDMDL
