MODEL 1
REMARK VINA RESULT:      -4.8      0.000      0.000
REMARK  3 active torsions:
REMARK  status: ('A' for Active; 'I' for Inactive)
REMARK       I    between atoms: N_1  and  C_2 
REMARK    1  A    between atoms: C_2  and  O_3 
REMARK    2  A    between atoms: O_3  and  C_4 
REMARK    3  A    between atoms: C_4  and  C_5 
ROOT
HETATM    1  N   LIG     1      15.336  38.175  23.087  1.00  0.00    -0.346 N 
HETATM    2  C   LIG     1      16.747  38.326  22.962  1.00  0.00     0.358 C 
HETATM    3  O   LIG     1      17.266  38.418  21.817  1.00  0.00    -0.239 OA
HETATM    4  H   LIG     1      14.730  38.137  22.238  1.00  0.00     0.161 HD
HETATM    5  H   LIG     1      14.898  38.100  24.031  1.00  0.00     0.161 HD
ENDROOT
BRANCH   2   6
HETATM    6  O   LIG     1      17.539  38.379  24.114  1.00  0.00    -0.304 OA
BRANCH   6   7
HETATM    7  C   LIG     1      17.220  37.687  25.321  1.00  0.00     0.184 C 
BRANCH   7   8
HETATM    8  C   LIG     1      18.065  36.409  25.472  1.00  0.00     0.002 C 
HETATM    9  C   LIG     1      18.484  36.216  26.933  1.00  0.00     0.011 C 
HETATM   10  C   LIG     1      17.299  35.178  24.970  1.00  0.00     0.011 C 
ENDBRANCH   7   8
ENDBRANCH   6   7
ENDBRANCH   2   6
TORSDOF 3
ENDMDL
MODEL 2
REMARK VINA RESULT:      -4.8      2.170      3.953
REMARK  3 active torsions:
REMARK  status: ('A' for Active; 'I' for Inactive)
REMARK       I    between atoms: N_1  and  C_2 
REMARK    1  A    between atoms: C_2  and  O_3 
REMARK    2  A    between atoms: O_3  and  C_4 
REMARK    3  A    between atoms: C_4  and  C_5 
ROOT
HETATM    1  N   LIG     1      17.323  38.637  25.734  1.00  0.00    -0.346 N 
HETATM    2  C   LIG     1      16.936  37.675  24.758  1.00  0.00     0.358 C 
HETATM    3  O   LIG     1      17.239  36.462  24.921  1.00  0.00    -0.239 OA
HETATM    4  H   LIG     1      17.857  38.346  26.582  1.00  0.00     0.161 HD
HETATM    5  H   LIG     1      17.074  39.643  25.607  1.00  0.00     0.161 HD
ENDROOT
BRANCH   2   6
HETATM    6  O   LIG     1      16.216  38.088  23.631  1.00  0.00    -0.304 OA
BRANCH   6   7
HETATM    7  C   LIG     1      16.755  38.942  22.622  1.00  0.00     0.184 C 
BRANCH   7   8
HETATM    8  C   LIG     1      17.925  38.265  21.884  1.00  0.00     0.002 C 
HETATM    9  C   LIG     1      17.452  36.974  21.207  1.00  0.00     0.011 C 
HETATM   10  C   LIG     1      18.547  39.212  20.850  1.00  0.00     0.011 C 
ENDBRANCH   7   8
ENDBRANCH   6   7
ENDBRANCH   2   6
TORSDOF 3
ENDMDL
MODEL 3
REMARK VINA RESULT:      -4.8      2.356      4.069
REMARK  3 active torsions:
REMARK  status: ('A' for Active; 'I' for Inactive)
REMARK       I    between atoms: N_1  and  C_2 
REMARK    1  A    between atoms: C_2  and  O_3 
REMARK    2  A    between atoms: O_3  and  C_4 
REMARK    3  A    between atoms: C_4  and  C_5 
ROOT
HETATM    1  N   LIG     1      15.165  38.113  23.027  1.00  0.00    -0.346 N 
HETATM    2  C   LIG     1      16.446  37.915  23.615  1.00  0.00     0.358 C 
HETATM    3  O   LIG     1      16.573  37.971  24.868  1.00  0.00    -0.239 OA
HETATM    4  H   LIG     1      14.331  38.306  23.625  1.00  0.00     0.161 HD
HETATM    5  H   LIG     1      15.050  38.067  21.990  1.00  0.00     0.161 HD
ENDROOT
BRANCH   2   6
HETATM    6  O   LIG     1      17.548  37.653  22.794  1.00  0.00    -0.304 OA
BRANCH   6   7
HETATM    7  C   LIG     1      17.441  37.084  21.490  1.00  0.00     0.184 C 
BRANCH   7   8
HETATM    8  C   LIG     1      18.226  37.910  20.454  1.00  0.00     0.002 C 
HETATM    9  C   LIG     1      19.017  39.023  21.149  1.00  0.00     0.011 C 
HETATM   10  C   LIG     1      19.169  37.017  19.637  1.00  0.00     0.011 C 
ENDBRANCH   7   8
ENDBRANCH   6   7
ENDBRANCH   2   6
TORSDOF 3
ENDMDL
MODEL 4
REMARK VINA RESULT:      -4.6      2.394      3.974
REMARK  3 active torsions:
REMARK  status: ('A' for Active; 'I' for Inactive)
REMARK       I    between atoms: N_1  and  C_2 
REMARK    1  A    between atoms: C_2  and  O_3 
REMARK    2  A    between atoms: O_3  and  C_4 
REMARK    3  A    between atoms: C_4  and  C_5 
ROOT
HETATM    1  N   LIG     1      15.229  38.147  23.056  1.00  0.00    -0.346 N 
HETATM    2  C   LIG     1      16.497  37.996  23.686  1.00  0.00     0.358 C 
HETATM    3  O   LIG     1      16.561  37.859  24.937  1.00  0.00    -0.239 OA
HETATM    4  H   LIG     1      14.352  38.147  23.623  1.00  0.00     0.161 HD
HETATM    5  H   LIG     1      15.167  38.259  22.020  1.00  0.00     0.161 HD
ENDROOT
BRANCH   2   6
HETATM    6  O   LIG     1      17.658  37.995  22.905  1.00  0.00    -0.304 OA
BRANCH   6   7
HETATM    7  C   LIG     1      17.648  38.046  21.478  1.00  0.00     0.184 C 
BRANCH   7   8
HETATM    8  C   LIG     1      18.084  36.701  20.868  1.00  0.00     0.002 C 
HETATM    9  C   LIG     1      16.867  35.797  20.645  1.00  0.00     0.011 C 
HETATM   10  C   LIG     1      18.840  36.913  19.550  1.00  0.00     0.011 C 
ENDBRANCH   7   8
ENDBRANCH   6   7
ENDBRANCH   2   6
TORSDOF 3
ENDMDL
MODEL 5
REMARK VINA RESULT:      -4.5      2.205      3.649
REMARK  3 active torsions:
REMARK  status: ('A' for Active; 'I' for Inactive)
REMARK       I    between atoms: N_1  and  C_2 
REMARK    1  A    between atoms: C_2  and  O_3 
REMARK    2  A    between atoms: O_3  and  C_4 
REMARK    3  A    between atoms: C_4  and  C_5 
ROOT
HETATM    1  N   LIG     1      17.262  36.253  25.672  1.00  0.00    -0.346 N 
HETATM    2  C   LIG     1      17.240  37.450  24.901  1.00  0.00     0.358 C 
HETATM    3  O   LIG     1      18.293  38.132  24.776  1.00  0.00    -0.239 OA
HETATM    4  H   LIG     1      18.143  35.937  26.136  1.00  0.00     0.161 HD
HETATM    5  H   LIG     1      16.395  35.682  25.780  1.00  0.00     0.161 HD
ENDROOT
BRANCH   2   6
HETATM    6  O   LIG     1      16.049  37.851  24.286  1.00  0.00    -0.304 OA
BRANCH   6   7
HETATM    7  C   LIG     1      15.827  37.777  22.877  1.00  0.00     0.184 C 
BRANCH   7   8
HETATM    8  C   LIG     1      16.616  36.612  22.249  1.00  0.00     0.002 C 
HETATM    9  C   LIG     1      15.657  35.608  21.601  1.00  0.00     0.011 C 
HETATM   10  C   LIG     1      17.628  37.125  21.216  1.00  0.00     0.011 C 
ENDBRANCH   7   8
ENDBRANCH   6   7
ENDBRANCH   2   6
TORSDOF 3
ENDMDL
MODEL 6
REMARK VINA RESULT:      -4.4      3.151      4.238
REMARK  3 active torsions:
REMARK  status: ('A' for Active; 'I' for Inactive)
REMARK       I    between atoms: N_1  and  C_2 
REMARK    1  A    between atoms: C_2  and  O_3 
REMARK    2  A    between atoms: O_3  and  C_4 
REMARK    3  A    between atoms: C_4  and  C_5 
ROOT
HETATM    1  N   LIG     1      14.167  34.056  21.561  1.00  0.00    -0.346 N 
HETATM    2  C   LIG     1      15.361  34.719  21.157  1.00  0.00     0.358 C 
HETATM    3  O   LIG     1      16.120  34.177  20.309  1.00  0.00    -0.239 OA
HETATM    4  H   LIG     1      13.918  33.124  21.163  1.00  0.00     0.161 HD
HETATM    5  H   LIG     1      13.532  34.499  22.261  1.00  0.00     0.161 HD
ENDROOT
BRANCH   2   6
HETATM    6  O   LIG     1      15.672  35.970  21.700  1.00  0.00    -0.304 OA
BRANCH   6   7
HETATM    7  C   LIG     1      16.944  36.601  21.547  1.00  0.00     0.184 C 
BRANCH   7   8
HETATM    8  C   LIG     1      16.980  37.964  22.263  1.00  0.00     0.002 C 
HETATM    9  C   LIG     1      17.111  37.768  23.777  1.00  0.00     0.011 C 
HETATM   10  C   LIG     1      18.129  38.833  21.736  1.00  0.00     0.011 C 
ENDBRANCH   7   8
ENDBRANCH   6   7
ENDBRANCH   2   6
TORSDOF 3
ENDMDL
MODEL 7
REMARK VINA RESULT:      -4.3      8.852      9.862
REMARK  3 active torsions:
REMARK  status: ('A' for Active; 'I' for Inactive)
REMARK       I    between atoms: N_1  and  C_2 
REMARK    1  A    between atoms: C_2  and  O_3 
REMARK    2  A    between atoms: O_3  and  C_4 
REMARK    3  A    between atoms: C_4  and  C_5 
ROOT
HETATM    1  N   LIG     1      15.266  34.574  18.461  1.00  0.00    -0.346 N 
HETATM    2  C   LIG     1      15.224  34.196  17.089  1.00  0.00     0.358 C 
HETATM    3  O   LIG     1      16.022  34.726  16.270  1.00  0.00    -0.239 OA
HETATM    4  H   LIG     1      15.952  35.288  18.794  1.00  0.00     0.161 HD
HETATM    5  H   LIG     1      14.609  34.138  19.146  1.00  0.00     0.161 HD
ENDROOT
BRANCH   2   6
HETATM    6  O   LIG     1      14.300  33.234  16.667  1.00  0.00    -0.304 OA
BRANCH   6   7
HETATM    7  C   LIG     1      14.204  31.930  17.241  1.00  0.00     0.184 C 
BRANCH   7   8
HETATM    8  C   LIG     1      14.227  30.839  16.155  1.00  0.00     0.002 C 
HETATM    9  C   LIG     1      12.803  30.530  15.680  1.00  0.00     0.011 C 
HETATM   10  C   LIG     1      15.104  31.260  14.969  1.00  0.00     0.011 C 
ENDBRANCH   7   8
ENDBRANCH   6   7
ENDBRANCH   2   6
TORSDOF 3
ENDMDL
MODEL 8
REMARK VINA RESULT:      -4.3      4.130      5.217
REMARK  3 active torsions:
REMARK  status: ('A' for Active; 'I' for Inactive)
REMARK       I    between atoms: N_1  and  C_2 
REMARK    1  A    between atoms: C_2  and  O_3 
REMARK    2  A    between atoms: O_3  and  C_4 
REMARK    3  A    between atoms: C_4  and  C_5 
ROOT
HETATM    1  N   LIG     1      16.177  34.942  20.164  1.00  0.00    -0.346 N 
HETATM    2  C   LIG     1      16.990  35.568  21.151  1.00  0.00     0.358 C 
HETATM    3  O   LIG     1      17.217  34.976  22.241  1.00  0.00    -0.239 OA
HETATM    4  H   LIG     1      15.766  33.997  20.337  1.00  0.00     0.161 HD
HETATM    5  H   LIG     1      15.986  35.424  19.259  1.00  0.00     0.161 HD
ENDROOT
BRANCH   2   6
HETATM    6  O   LIG     1      17.534  36.831  20.896  1.00  0.00    -0.304 OA
BRANCH   6   7
HETATM    7  C   LIG     1      18.617  37.054  19.993  1.00  0.00     0.184 C 
BRANCH   7   8
HETATM    8  C   LIG     1      18.950  38.553  19.880  1.00  0.00     0.002 C 
HETATM    9  C   LIG     1      18.656  39.265  21.205  1.00  0.00     0.011 C 
HETATM   10  C   LIG     1      20.415  38.764  19.475  1.00  0.00     0.011 C 
ENDBRANCH   7   8
ENDBRANCH   6   7
ENDBRANCH   2   6
TORSDOF 3
ENDMDL
MODEL 9
REMARK VINA RESULT:      -4.2      2.379      2.822
REMARK  3 active torsions:
REMARK  status: ('A' for Active; 'I' for Inactive)
REMARK       I    between atoms: N_1  and  C_2 
REMARK    1  A    between atoms: C_2  and  O_3 
REMARK    2  A    between atoms: O_3  and  C_4 
REMARK    3  A    between atoms: C_4  and  C_5 
ROOT
HETATM    1  N   LIG     1      14.408  35.727  21.019  1.00  0.00    -0.346 N 
HETATM    2  C   LIG     1      15.815  35.723  21.232  1.00  0.00     0.358 C 
HETATM    3  O   LIG     1      16.589  35.400  20.290  1.00  0.00    -0.239 OA
HETATM    4  H   LIG     1      14.011  35.462  20.090  1.00  0.00     0.161 HD
HETATM    5  H   LIG     1      13.760  35.995  21.793  1.00  0.00     0.161 HD
ENDROOT
BRANCH   2   6
HETATM    6  O   LIG     1      16.324  36.086  22.484  1.00  0.00    -0.304 OA
BRANCH   6   7
HETATM    7  C   LIG     1      16.980  35.171  23.362  1.00  0.00     0.184 C 
BRANCH   7   8
HETATM    8  C   LIG     1      17.582  35.900  24.578  1.00  0.00     0.002 C 
HETATM    9  C   LIG     1      16.950  37.287  24.735  1.00  0.00     0.011 C 
HETATM   10  C   LIG     1      17.395  35.080  25.861  1.00  0.00     0.011 C 
ENDBRANCH   7   8
ENDBRANCH   6   7
ENDBRANCH   2   6
TORSDOF 3
ENDMDL
MODEL 10
REMARK VINA RESULT:      -4.2      2.910      4.275
REMARK  3 active torsions:
REMARK  status: ('A' for Active; 'I' for Inactive)
REMARK       I    between atoms: N_1  and  C_2 
REMARK    1  A    between atoms: C_2  and  O_3 
REMARK    2  A    between atoms: O_3  and  C_4 
REMARK    3  A    between atoms: C_4  and  C_5 
ROOT
HETATM    1  N   LIG     1      17.169  34.964  26.257  1.00  0.00    -0.346 N 
HETATM    2  C   LIG     1      17.674  36.042  25.475  1.00  0.00     0.358 C 
HETATM    3  O   LIG     1      18.537  36.819  25.966  1.00  0.00    -0.239 OA
HETATM    4  H   LIG     1      17.507  34.814  27.233  1.00  0.00     0.161 HD
HETATM    5  H   LIG     1      16.456  34.314  25.857  1.00  0.00     0.161 HD
ENDROOT
BRANCH   2   6
HETATM    6  O   LIG     1      17.211  36.220  24.167  1.00  0.00    -0.304 OA
BRANCH   6   7
HETATM    7  C   LIG     1      16.951  35.140  23.270  1.00  0.00     0.184 C 
BRANCH   7   8
HETATM    8  C   LIG     1      17.210  35.554  21.809  1.00  0.00     0.002 C 
HETATM    9  C   LIG     1      16.184  34.897  20.879  1.00  0.00     0.011 C 
HETATM   10  C   LIG     1      17.170  37.079  21.652  1.00  0.00     0.011 C 
ENDBRANCH   7   8
ENDBRANCH   6   7
ENDBRANCH   2   6
TORSDOF 3
ENDMDL
MODEL 11
REMARK VINA RESULT:      -4.2      2.693      3.353
REMARK  3 active torsions:
REMARK  status: ('A' for Active; 'I' for Inactive)
REMARK       I    between atoms: N_1  and  C_2 
REMARK    1  A    between atoms: C_2  and  O_3 
REMARK    2  A    between atoms: O_3  and  C_4 
REMARK    3  A    between atoms: C_4  and  C_5 
ROOT
HETATM    1  N   LIG     1      18.630  39.683  21.747  1.00  0.00    -0.346 N 
HETATM    2  C   LIG     1      17.633  38.867  22.353  1.00  0.00     0.358 C 
HETATM    3  O   LIG     1      16.643  39.406  22.919  1.00  0.00    -0.239 OA
HETATM    4  H   LIG     1      18.548  40.724  21.769  1.00  0.00     0.161 HD
HETATM    5  H   LIG     1      19.451  39.245  21.275  1.00  0.00     0.161 HD
ENDROOT
BRANCH   2   6
HETATM    6  O   LIG     1      17.760  37.474  22.306  1.00  0.00    -0.304 OA
BRANCH   6   7
HETATM    7  C   LIG     1      17.215  36.668  21.262  1.00  0.00     0.184 C 
BRANCH   7   8
HETATM    8  C   LIG     1      16.859  35.260  21.773  1.00  0.00     0.002 C 
HETATM    9  C   LIG     1      17.036  35.183  23.292  1.00  0.00     0.011 C 
HETATM   10  C   LIG     1      15.425  34.878  21.383  1.00  0.00     0.011 C 
ENDBRANCH   7   8
ENDBRANCH   6   7
ENDBRANCH   2   6
TORSDOF 3
ENDMDL
MODEL 12
REMARK VINA RESULT:      -4.1      5.263      5.990
REMARK  3 active torsions:
REMARK  status: ('A' for Active; 'I' for Inactive)
REMARK       I    between atoms: N_1  and  C_2 
REMARK    1  A    between atoms: C_2  and  O_3 
REMARK    2  A    between atoms: O_3  and  C_4 
REMARK    3  A    between atoms: C_4  and  C_5 
ROOT
HETATM    1  N   LIG     1      14.617  32.652  18.164  1.00  0.00    -0.346 N 
HETATM    2  C   LIG     1      15.354  32.630  19.382  1.00  0.00     0.358 C 
HETATM    3  O   LIG     1      15.604  31.529  19.941  1.00  0.00    -0.239 OA
HETATM    4  H   LIG     1      14.280  31.763  17.732  1.00  0.00     0.161 HD
HETATM    5  H   LIG     1      14.407  33.560  17.693  1.00  0.00     0.161 HD
ENDROOT
BRANCH   2   6
HETATM    6  O   LIG     1      15.800  33.834  19.939  1.00  0.00    -0.304 OA
BRANCH   6   7
HETATM    7  C   LIG     1      15.338  34.340  21.191  1.00  0.00     0.184 C 
BRANCH   7   8
HETATM    8  C   LIG     1      16.210  35.515  21.674  1.00  0.00     0.002 C 
HETATM    9  C   LIG     1      16.969  35.127  22.947  1.00  0.00     0.011 C 
HETATM   10  C   LIG     1      17.192  35.957  20.582  1.00  0.00     0.011 C 
ENDBRANCH   7   8
ENDBRANCH   6   7
ENDBRANCH   2   6
TORSDOF 3
ENDMDL
MODEL 13
REMARK VINA RESULT:      -4.0     10.659     11.628
REMARK  3 active torsions:
REMARK  status: ('A' for Active; 'I' for Inactive)
REMARK       I    between atoms: N_1  and  C_2 
REMARK    1  A    between atoms: C_2  and  O_3 
REMARK    2  A    between atoms: O_3  and  C_4 
REMARK    3  A    between atoms: C_4  and  C_5 
ROOT
HETATM    1  N   LIG     1      12.472  32.168  17.147  1.00  0.00    -0.346 N 
HETATM    2  C   LIG     1      13.872  31.913  17.098  1.00  0.00     0.358 C 
HETATM    3  O   LIG     1      14.584  32.138  18.115  1.00  0.00    -0.239 OA
HETATM    4  H   LIG     1      12.031  32.542  18.017  1.00  0.00     0.161 HD
HETATM    5  H   LIG     1      11.876  31.983  16.311  1.00  0.00     0.161 HD
ENDROOT
BRANCH   2   6
HETATM    6  O   LIG     1      14.440  31.408  15.924  1.00  0.00    -0.304 OA
BRANCH   6   7
HETATM    7  C   LIG     1      13.901  30.301  15.202  1.00  0.00     0.184 C 
BRANCH   7   8
HETATM    8  C   LIG     1      14.652  30.082  13.875  1.00  0.00     0.002 C 
HETATM    9  C   LIG     1      15.665  31.208  13.644  1.00  0.00     0.011 C 
HETATM   10  C   LIG     1      15.357  28.720  13.857  1.00  0.00     0.011 C 
ENDBRANCH   7   8
ENDBRANCH   6   7
ENDBRANCH   2   6
TORSDOF 3
ENDMDL
MODEL 14
REMARK VINA RESULT:      -4.0      4.415      5.120
REMARK  3 active torsions:
REMARK  status: ('A' for Active; 'I' for Inactive)
REMARK       I    between atoms: N_1  and  C_2 
REMARK    1  A    between atoms: C_2  and  O_3 
REMARK    2  A    between atoms: O_3  and  C_4 
REMARK    3  A    between atoms: C_4  and  C_5 
ROOT
HETATM    1  N   LIG     1      14.743  33.226  20.555  1.00  0.00    -0.346 N 
HETATM    2  C   LIG     1      15.256  34.505  20.913  1.00  0.00     0.358 C 
HETATM    3  O   LIG     1      14.575  35.268  21.650  1.00  0.00    -0.239 OA
HETATM    4  H   LIG     1      13.807  32.916  20.897  1.00  0.00     0.161 HD
HETATM    5  H   LIG     1      15.302  32.587  19.946  1.00  0.00     0.161 HD
ENDROOT
BRANCH   2   6
HETATM    6  O   LIG     1      16.516  34.897  20.446  1.00  0.00    -0.304 OA
BRANCH   6   7
HETATM    7  C   LIG     1      17.430  35.680  21.213  1.00  0.00     0.184 C 
BRANCH   7   8
HETATM    8  C   LIG     1      17.776  36.997  20.494  1.00  0.00     0.002 C 
HETATM    9  C   LIG     1      17.927  38.136  21.508  1.00  0.00     0.011 C 
HETATM   10  C   LIG     1      19.058  36.852  19.663  1.00  0.00     0.011 C 
ENDBRANCH   7   8
ENDBRANCH   6   7
ENDBRANCH   2   6
TORSDOF 3
ENDMDL
MODEL 15
REMARK VINA RESULT:      -3.9     11.087     12.064
REMARK  3 active torsions:
REMARK  status: ('A' for Active; 'I' for Inactive)
REMARK       I    between atoms: N_1  and  C_2 
REMARK    1  A    between atoms: C_2  and  O_3 
REMARK    2  A    between atoms: O_3  and  C_4 
REMARK    3  A    between atoms: C_4  and  C_5 
ROOT
HETATM    1  N   LIG     1      17.554  33.472  12.915  1.00  0.00    -0.346 N 
HETATM    2  C   LIG     1      17.224  32.970  14.207  1.00  0.00     0.358 C 
HETATM    3  O   LIG     1      17.516  33.644  15.232  1.00  0.00    -0.239 OA
HETATM    4  H   LIG     1      18.036  34.392  12.811  1.00  0.00     0.161 HD
HETATM    5  H   LIG     1      17.314  32.920  12.062  1.00  0.00     0.161 HD
ENDROOT
BRANCH   2   6
HETATM    6  O   LIG     1      16.574  31.737  14.322  1.00  0.00    -0.304 OA
BRANCH   6   7
HETATM    7  C   LIG     1      15.642  31.246  13.359  1.00  0.00     0.184 C 
BRANCH   7   8
HETATM    8  C   LIG     1      14.655  30.249  13.995  1.00  0.00     0.002 C 
HETATM    9  C   LIG     1      15.250  28.837  13.996  1.00  0.00     0.011 C 
HETATM   10  C   LIG     1      14.287  30.673  15.423  1.00  0.00     0.011 C 
ENDBRANCH   7   8
ENDBRANCH   6   7
ENDBRANCH   2   6
TORSDOF 3
ENDMDL
MODEL 16
REMARK VINA RESULT:      -3.8     10.626     12.064
REMARK  3 active torsions:
REMARK  status: ('A' for Active; 'I' for Inactive)
REMARK       I    between atoms: N_1  and  C_2 
REMARK    1  A    between atoms: C_2  and  O_3 
REMARK    2  A    between atoms: O_3  and  C_4 
REMARK    3  A    between atoms: C_4  and  C_5 
ROOT
HETATM    1  N   LIG     1      17.586  32.742  15.238  1.00  0.00    -0.346 N 
HETATM    2  C   LIG     1      17.493  34.127  14.921  1.00  0.00     0.358 C 
HETATM    3  O   LIG     1      16.840  34.899  15.675  1.00  0.00    -0.239 OA
HETATM    4  H   LIG     1      17.116  32.361  16.089  1.00  0.00     0.161 HD
HETATM    5  H   LIG     1      18.126  32.097  14.620  1.00  0.00     0.161 HD
ENDROOT
BRANCH   2   6
HETATM    6  O   LIG     1      18.135  34.617  13.779  1.00  0.00    -0.304 OA
BRANCH   6   7
HETATM    7  C   LIG     1      17.885  34.124  12.462  1.00  0.00     0.184 C 
BRANCH   7   8
HETATM    8  C   LIG     1      19.196  33.948  11.674  1.00  0.00     0.002 C 
HETATM    9  C   LIG     1      19.230  34.902  10.476  1.00  0.00     0.011 C 
HETATM   10  C   LIG     1      20.416  34.179  12.574  1.00  0.00     0.011 C 
ENDBRANCH   7   8
ENDBRANCH   6   7
ENDBRANCH   2   6
TORSDOF 3
ENDMDL
MODEL 17
REMARK VINA RESULT:      -3.8      9.191     10.173
REMARK  3 active torsions:
REMARK  status: ('A' for Active; 'I' for Inactive)
REMARK       I    between atoms: N_1  and  C_2 
REMARK    1  A    between atoms: C_2  and  O_3 
REMARK    2  A    between atoms: O_3  and  C_4 
REMARK    3  A    between atoms: C_4  and  C_5 
ROOT
HETATM    1  N   LIG     1      17.706  33.408  14.003  1.00  0.00    -0.346 N 
HETATM    2  C   LIG     1      17.039  33.677  15.232  1.00  0.00     0.358 C 
HETATM    3  O   LIG     1      16.919  34.867  15.631  1.00  0.00    -0.239 OA
HETATM    4  H   LIG     1      18.098  34.189  13.431  1.00  0.00     0.161 HD
HETATM    5  H   LIG     1      17.808  32.426  13.665  1.00  0.00     0.161 HD
ENDROOT
BRANCH   2   6
HETATM    6  O   LIG     1      16.517  32.615  15.979  1.00  0.00    -0.304 OA
BRANCH   6   7
HETATM    7  C   LIG     1      15.410  31.821  15.552  1.00  0.00     0.184 C 
BRANCH   7   8
HETATM    8  C   LIG     1      14.192  32.021  16.473  1.00  0.00     0.002 C 
HETATM    9  C   LIG     1      13.187  30.881  16.282  1.00  0.00     0.011 C 
HETATM   10  C   LIG     1      14.621  32.114  17.943  1.00  0.00     0.011 C 
ENDBRANCH   7   8
ENDBRANCH   6   7
ENDBRANCH   2   6
TORSDOF 3
ENDMDL
MODEL 18
REMARK VINA RESULT:      -3.7     10.426     11.325
REMARK  3 active torsions:
REMARK  status: ('A' for Active; 'I' for Inactive)
REMARK       I    between atoms: N_1  and  C_2 
REMARK    1  A    between atoms: C_2  and  O_3 
REMARK    2  A    between atoms: O_3  and  C_4 
REMARK    3  A    between atoms: C_4  and  C_5 
ROOT
HETATM    1  N   LIG     1      14.650  29.045  13.625  1.00  0.00    -0.346 N 
HETATM    2  C   LIG     1      15.221  30.319  13.904  1.00  0.00     0.358 C 
HETATM    3  O   LIG     1      16.009  30.846  13.072  1.00  0.00    -0.239 OA
HETATM    4  H   LIG     1      14.880  28.543  12.739  1.00  0.00     0.161 HD
HETATM    5  H   LIG     1      13.996  28.602  14.308  1.00  0.00     0.161 HD
ENDROOT
BRANCH   2   6
HETATM    6  O   LIG     1      14.895  30.975  15.095  1.00  0.00    -0.304 OA
BRANCH   6   7
HETATM    7  C   LIG     1      15.589  32.127  15.575  1.00  0.00     0.184 C 
BRANCH   7   8
HETATM    8  C   LIG     1      15.011  32.605  16.921  1.00  0.00     0.002 C 
HETATM    9  C   LIG     1      14.998  34.136  16.981  1.00  0.00     0.011 C 
HETATM   10  C   LIG     1      13.598  32.051  17.142  1.00  0.00     0.011 C 
ENDBRANCH   7   8
ENDBRANCH   6   7
ENDBRANCH   2   6
TORSDOF 3
ENDMDL
MODEL 19
REMARK VINA RESULT:      -3.7      8.333      9.361
REMARK  3 active torsions:
REMARK  status: ('A' for Active; 'I' for Inactive)
REMARK       I    between atoms: N_1  and  C_2 
REMARK    1  A    between atoms: C_2  and  O_3 
REMARK    2  A    between atoms: O_3  and  C_4 
REMARK    3  A    between atoms: C_4  and  C_5 
ROOT
HETATM    1  N   LIG     1      15.506  34.600  18.945  1.00  0.00    -0.346 N 
HETATM    2  C   LIG     1      15.361  33.194  19.119  1.00  0.00     0.358 C 
HETATM    3  O   LIG     1      15.117  32.728  20.265  1.00  0.00    -0.239 OA
HETATM    4  H   LIG     1      15.414  35.247  19.759  1.00  0.00     0.161 HD
HETATM    5  H   LIG     1      15.706  34.993  17.999  1.00  0.00     0.161 HD
ENDROOT
BRANCH   2   6
HETATM    6  O   LIG     1      15.483  32.346  18.013  1.00  0.00    -0.304 OA
BRANCH   6   7
HETATM    7  C   LIG     1      15.410  32.800  16.661  1.00  0.00     0.184 C 
BRANCH   7   8
HETATM    8  C   LIG     1      14.501  31.888  15.816  1.00  0.00     0.002 C 
HETATM    9  C   LIG     1      15.336  31.080  14.818  1.00  0.00     0.011 C 
HETATM   10  C   LIG     1      13.679  30.949  16.708  1.00  0.00     0.011 C 
ENDBRANCH   7   8
ENDBRANCH   6   7
ENDBRANCH   2   6
TORSDOF 3
ENDMDL
MODEL 20
REMARK VINA RESULT:      -3.5     11.201     12.431
REMARK  3 active torsions:
REMARK  status: ('A' for Active; 'I' for Inactive)
REMARK       I    between atoms: N_1  and  C_2 
REMARK    1  A    between atoms: C_2  and  O_3 
REMARK    2  A    between atoms: O_3  and  C_4 
REMARK    3  A    between atoms: C_4  and  C_5 
ROOT
HETATM    1  N   LIG     1      16.751  32.761  13.153  1.00  0.00    -0.346 N 
HETATM    2  C   LIG     1      17.477  33.773  13.843  1.00  0.00     0.358 C 
HETATM    3  O   LIG     1      17.128  34.109  15.007  1.00  0.00    -0.239 OA
HETATM    4  H   LIG     1      15.931  32.297  13.603  1.00  0.00     0.161 HD
HETATM    5  H   LIG     1      17.035  32.475  12.190  1.00  0.00     0.161 HD
ENDROOT
BRANCH   2   6
HETATM    6  O   LIG     1      18.576  34.377  13.222  1.00  0.00    -0.304 OA
BRANCH   6   7
HETATM    7  C   LIG     1      19.674  33.644  12.678  1.00  0.00     0.184 C 
BRANCH   7   8
HETATM    8  C   LIG     1      20.766  34.591  12.144  1.00  0.00     0.002 C 
HETATM    9  C   LIG     1      22.052  34.436  12.962  1.00  0.00     0.011 C 
HETATM   10  C   LIG     1      21.045  34.328  10.658  1.00  0.00     0.011 C 
ENDBRANCH   7   8
ENDBRANCH   6   7
ENDBRANCH   2   6
TORSDOF 3
ENDMDL
