REMARK  6 active torsions:
REMARK  status: ('A' for Active; 'I' for Inactive)
REMARK       I    between atoms: N_1  and  C_2 
REMARK    1  A    between atoms: C_2  and  O_3 
REMARK    2  A    between atoms: O_3  and  C_4 
REMARK    3  A    between atoms: C_4  and  C_5 
REMARK    4  A    between atoms: C_5  and  C_6 
REMARK    5  A    between atoms: C_6  and  C_7 
REMARK    6  A    between atoms: C_7  and  C_8 
ROOT
HETATM    1  O   LIG     1      -2.614   0.786   0.301  1.00  0.00    -0.304 OA
ENDROOT
BRANCH   1   2
HETATM    2  C   LIG     1      -3.137  -0.212  -0.530  1.00  0.00     0.358 C 
HETATM    3  N   LIG     1      -4.008  -1.196   0.021  1.00  0.00    -0.346 N 
HETATM    4  H   LIG     1      -4.409  -1.946  -0.584  1.00  0.00     0.161 HD
HETATM    5  H   LIG     1      -4.250  -1.173   1.036  1.00  0.00     0.161 HD
HETATM    6  O   LIG     1      -2.852  -0.248  -1.758  1.00  0.00    -0.239 OA
ENDBRANCH   1   2
BRANCH   1   7
HETATM    7  C   LIG     1      -1.689   1.781  -0.138  1.00  0.00     0.180 C 
BRANCH   7   8
HETATM    8  C   LIG     1      -0.243   1.351   0.134  1.00  0.00     0.027 C 
BRANCH   8   9
HETATM    9  C   LIG     1       0.194   0.172  -0.750  1.00  0.00     0.002 C 
BRANCH   9  10
HETATM   10  C   LIG     1       1.700  -0.114  -0.651  1.00  0.00    -0.000 C 
BRANCH  10  11
HETATM   11  C   LIG     1       2.103  -0.695   0.712  1.00  0.00    -0.005 C 
HETATM   12  C   LIG     1       3.578  -1.086   0.729  1.00  0.00     0.005 C 
ENDBRANCH  10  11
ENDBRANCH   9  10
ENDBRANCH   8   9
ENDBRANCH   7   8
ENDBRANCH   1   7
TORSDOF 6
