MODEL 1
REMARK VINA RESULT:      -7.4      0.000      0.000
REMARK  0 active torsions:
REMARK  status: ('A' for Active; 'I' for Inactive)
ROOT
HETATM    1  C   LIG     1      16.965  34.821  25.592  1.00  0.00     0.049 C 
HETATM    2  C   LIG     1      17.331  35.986  24.705  1.00  0.00    -0.051 C 
HETATM    3  C   LIG     1      17.852  37.134  25.303  1.00  0.00     0.008 C 
HETATM    4  C   LIG     1      18.151  38.255  24.546  1.00  0.00     0.008 C 
HETATM    5  C   LIG     1      17.971  38.265  23.155  1.00  0.00    -0.050 C 
HETATM    6  C   LIG     1      17.574  37.060  22.485  1.00  0.00    -0.013 C 
HETATM    7  C   LIG     1      17.174  35.943  23.294  1.00  0.00    -0.019 C 
HETATM    8  C   LIG     1      16.623  34.800  22.678  1.00  0.00     0.013 C 
HETATM    9  C   LIG     1      16.488  34.728  21.300  1.00  0.00     0.001 C 
HETATM   10  C   LIG     1      16.957  35.756  20.498  1.00  0.00     0.007 C 
HETATM   11  C   LIG     1      17.548  36.901  21.057  1.00  0.00    -0.050 C 
HETATM   12  C   LIG     1      18.224  37.837  20.083  1.00  0.00     0.049 C 
HETATM   13  C   LIG     1      18.111  39.609  22.480  1.00  0.00     0.049 C 
ENDROOT
TORSDOF 0
ENDMDL
MODEL 2
REMARK VINA RESULT:      -5.8      7.311     10.271
REMARK  0 active torsions:
REMARK  status: ('A' for Active; 'I' for Inactive)
ROOT
HETATM    1  C   LIG     1      15.558  29.065  13.064  1.00  0.00     0.049 C 
HETATM    2  C   LIG     1      14.877  29.896  14.125  1.00  0.00    -0.051 C 
HETATM    3  C   LIG     1      13.688  29.419  14.676  1.00  0.00     0.008 C 
HETATM    4  C   LIG     1      12.988  30.166  15.609  1.00  0.00     0.008 C 
HETATM    5  C   LIG     1      13.465  31.408  16.056  1.00  0.00    -0.050 C 
HETATM    6  C   LIG     1      14.752  31.867  15.622  1.00  0.00    -0.013 C 
HETATM    7  C   LIG     1      15.413  31.129  14.581  1.00  0.00    -0.019 C 
HETATM    8  C   LIG     1      16.600  31.638  14.015  1.00  0.00     0.013 C 
HETATM    9  C   LIG     1      17.155  32.826  14.467  1.00  0.00     0.001 C 
HETATM   10  C   LIG     1      16.584  33.501  15.533  1.00  0.00     0.007 C 
HETATM   11  C   LIG     1      15.422  33.020  16.160  1.00  0.00    -0.050 C 
HETATM   12  C   LIG     1      15.032  33.708  17.446  1.00  0.00     0.049 C 
HETATM   13  C   LIG     1      12.505  32.223  16.890  1.00  0.00     0.049 C 
ENDROOT
TORSDOF 0
ENDMDL
MODEL 3
REMARK VINA RESULT:      -5.6      7.132      9.615
REMARK  0 active torsions:
REMARK  status: ('A' for Active; 'I' for Inactive)
ROOT
HETATM    1  C   LIG     1      12.937  29.149  15.221  1.00  0.00     0.049 C 
HETATM    2  C   LIG     1      13.621  30.418  15.671  1.00  0.00    -0.051 C 
HETATM    3  C   LIG     1      13.249  30.968  16.898  1.00  0.00     0.008 C 
HETATM    4  C   LIG     1      13.799  32.162  17.335  1.00  0.00     0.008 C 
HETATM    5  C   LIG     1      14.767  32.840  16.579  1.00  0.00    -0.050 C 
HETATM    6  C   LIG     1      15.279  32.236  15.383  1.00  0.00    -0.013 C 
HETATM    7  C   LIG     1      14.627  31.052  14.896  1.00  0.00    -0.019 C 
HETATM    8  C   LIG     1      14.994  30.523  13.642  1.00  0.00     0.013 C 
HETATM    9  C   LIG     1      15.994  31.112  12.883  1.00  0.00     0.001 C 
HETATM   10  C   LIG     1      16.699  32.196  13.380  1.00  0.00     0.007 C 
HETATM   11  C   LIG     1      16.401  32.742  14.640  1.00  0.00    -0.050 C 
HETATM   12  C   LIG     1      17.381  33.762  15.166  1.00  0.00     0.049 C 
HETATM   13  C   LIG     1      15.113  34.234  17.046  1.00  0.00     0.049 C 
ENDROOT
TORSDOF 0
ENDMDL
MODEL 4
REMARK VINA RESULT:      -4.9      7.686     10.295
REMARK  0 active torsions:
REMARK  status: ('A' for Active; 'I' for Inactive)
ROOT
HETATM    1  C   LIG     1      12.239  31.361  17.281  1.00  0.00     0.049 C 
HETATM    2  C   LIG     1      13.167  31.008  16.144  1.00  0.00    -0.051 C 
HETATM    3  C   LIG     1      12.835  29.923  15.333  1.00  0.00     0.008 C 
HETATM    4  C   LIG     1      13.678  29.516  14.312  1.00  0.00     0.008 C 
HETATM    5  C   LIG     1      14.874  30.196  14.039  1.00  0.00    -0.050 C 
HETATM    6  C   LIG     1      15.182  31.399  14.756  1.00  0.00    -0.013 C 
HETATM    7  C   LIG     1      14.349  31.747  15.873  1.00  0.00    -0.019 C 
HETATM    8  C   LIG     1      14.713  32.829  16.701  1.00  0.00     0.013 C 
HETATM    9  C   LIG     1      15.848  33.580  16.437  1.00  0.00     0.001 C 
HETATM   10  C   LIG     1      16.609  33.319  15.309  1.00  0.00     0.007 C 
HETATM   11  C   LIG     1      16.272  32.277  14.429  1.00  0.00    -0.050 C 
HETATM   12  C   LIG     1      17.034  32.241  13.126  1.00  0.00     0.049 C 
HETATM   13  C   LIG     1      15.810  29.521  13.063  1.00  0.00     0.049 C 
ENDROOT
TORSDOF 0
ENDMDL
MODEL 5
REMARK VINA RESULT:      -4.8      6.718      9.498
REMARK  0 active torsions:
REMARK  status: ('A' for Active; 'I' for Inactive)
ROOT
HETATM    1  C   LIG     1      12.928  29.952  16.193  1.00  0.00     0.049 C 
HETATM    2  C   LIG     1      14.017  30.714  15.476  1.00  0.00    -0.051 C 
HETATM    3  C   LIG     1      14.372  30.305  14.190  1.00  0.00     0.008 C 
HETATM    4  C   LIG     1      15.404  30.929  13.508  1.00  0.00     0.008 C 
HETATM    5  C   LIG     1      16.102  32.008  14.069  1.00  0.00    -0.050 C 
HETATM    6  C   LIG     1      15.674  32.549  15.326  1.00  0.00    -0.013 C 
HETATM    7  C   LIG     1      14.672  31.829  16.061  1.00  0.00    -0.019 C 
HETATM    8  C   LIG     1      14.343  32.237  17.370  1.00  0.00     0.013 C 
HETATM    9  C   LIG     1      14.952  33.341  17.948  1.00  0.00     0.001 C 
HETATM   10  C   LIG     1      15.849  34.103  17.219  1.00  0.00     0.007 C 
HETATM   11  C   LIG     1      16.186  33.765  15.898  1.00  0.00    -0.050 C 
HETATM   12  C   LIG     1      16.987  34.794  15.136  1.00  0.00     0.049 C 
HETATM   13  C   LIG     1      17.345  32.446  13.330  1.00  0.00     0.049 C 
ENDROOT
TORSDOF 0
ENDMDL
MODEL 6
REMARK VINA RESULT:      -4.7     19.836     21.019
REMARK  0 active torsions:
REMARK  status: ('A' for Active; 'I' for Inactive)
ROOT
HETATM    1  C   LIG     1      17.536  18.261  15.833  1.00  0.00     0.049 C 
HETATM    2  C   LIG     1      16.184  18.268  15.163  1.00  0.00    -0.051 C 
HETATM    3  C   LIG     1      15.049  18.386  15.966  1.00  0.00     0.008 C 
HETATM    4  C   LIG     1      13.780  18.339  15.412  1.00  0.00     0.008 C 
HETATM    5  C   LIG     1      13.592  18.204  14.029  1.00  0.00    -0.050 C 
HETATM    6  C   LIG     1      14.731  18.222  13.156  1.00  0.00    -0.013 C 
HETATM    7  C   LIG     1      16.036  18.170  13.754  1.00  0.00    -0.019 C 
HETATM    8  C   LIG     1      17.171  18.022  12.931  1.00  0.00     0.013 C 
HETATM    9  C   LIG     1      17.050  17.954  11.552  1.00  0.00     0.001 C 
HETATM   10  C   LIG     1      15.809  18.098  10.953  1.00  0.00     0.007 C 
HETATM   11  C   LIG     1      14.648  18.286  11.723  1.00  0.00    -0.050 C 
HETATM   12  C   LIG     1      13.402  18.661  10.957  1.00  0.00     0.049 C 
HETATM   13  C   LIG     1      12.176  17.933  13.578  1.00  0.00     0.049 C 
ENDROOT
TORSDOF 0
ENDMDL
MODEL 7
REMARK VINA RESULT:      -4.6     15.886     16.399
REMARK  0 active torsions:
REMARK  status: ('A' for Active; 'I' for Inactive)
ROOT
HETATM    1  C   LIG     1      27.093  24.300  17.902  1.00  0.00     0.049 C 
HETATM    2  C   LIG     1      26.551  23.829  19.231  1.00  0.00    -0.051 C 
HETATM    3  C   LIG     1      27.251  24.169  20.388  1.00  0.00     0.008 C 
HETATM    4  C   LIG     1      26.835  23.716  21.629  1.00  0.00     0.008 C 
HETATM    5  C   LIG     1      25.682  22.929  21.769  1.00  0.00    -0.050 C 
HETATM    6  C   LIG     1      24.856  22.676  20.623  1.00  0.00    -0.013 C 
HETATM    7  C   LIG     1      25.356  23.068  19.335  1.00  0.00    -0.019 C 
HETATM    8  C   LIG     1      24.652  22.692  18.173  1.00  0.00     0.013 C 
HETATM    9  C   LIG     1      23.469  21.974  18.255  1.00  0.00     0.001 C 
HETATM   10  C   LIG     1      22.923  21.671  19.491  1.00  0.00     0.007 C 
HETATM   11  C   LIG     1      23.562  22.053  20.682  1.00  0.00    -0.050 C 
HETATM   12  C   LIG     1      22.760  21.873  21.949  1.00  0.00     0.049 C 
HETATM   13  C   LIG     1      25.466  22.309  23.129  1.00  0.00     0.049 C 
ENDROOT
TORSDOF 0
ENDMDL
MODEL 8
REMARK VINA RESULT:      -4.5     19.283     20.800
REMARK  0 active torsions:
REMARK  status: ('A' for Active; 'I' for Inactive)
ROOT
HETATM    1  C   LIG     1      14.885  18.605  17.175  1.00  0.00     0.049 C 
HETATM    2  C   LIG     1      14.539  18.517  15.709  1.00  0.00    -0.051 C 
HETATM    3  C   LIG     1      13.203  18.667  15.336  1.00  0.00     0.008 C 
HETATM    4  C   LIG     1      12.817  18.536  14.011  1.00  0.00     0.008 C 
HETATM    5  C   LIG     1      13.756  18.282  13.000  1.00  0.00    -0.050 C 
HETATM    6  C   LIG     1      15.153  18.262  13.322  1.00  0.00    -0.013 C 
HETATM    7  C   LIG     1      15.524  18.299  14.709  1.00  0.00    -0.019 C 
HETATM    8  C   LIG     1      16.874  18.118  15.073  1.00  0.00     0.013 C 
HETATM    9  C   LIG     1      17.854  17.933  14.110  1.00  0.00     0.001 C 
HETATM   10  C   LIG     1      17.529  17.990  12.765  1.00  0.00     0.007 C 
HETATM   11  C   LIG     1      16.206  18.205  12.345  1.00  0.00    -0.050 C 
HETATM   12  C   LIG     1      16.017  18.479  10.872  1.00  0.00     0.049 C 
HETATM   13  C   LIG     1      13.188  17.933  11.645  1.00  0.00     0.049 C 
ENDROOT
TORSDOF 0
ENDMDL
MODEL 9
REMARK VINA RESULT:      -4.4     15.792     16.059
REMARK  0 active torsions:
REMARK  status: ('A' for Active; 'I' for Inactive)
ROOT
HETATM    1  C   LIG     1      26.471  23.144  23.995  1.00  0.00     0.049 C 
HETATM    2  C   LIG     1      26.299  23.262  22.499  1.00  0.00    -0.051 C 
HETATM    3  C   LIG     1      27.346  23.807  21.756  1.00  0.00     0.008 C 
HETATM    4  C   LIG     1      27.222  23.995  20.389  1.00  0.00     0.008 C 
HETATM    5  C   LIG     1      26.059  23.617  19.703  1.00  0.00    -0.050 C 
HETATM    6  C   LIG     1      25.018  22.925  20.406  1.00  0.00    -0.013 C 
HETATM    7  C   LIG     1      25.121  22.829  21.835  1.00  0.00    -0.019 C 
HETATM    8  C   LIG     1      24.044  22.302  22.576  1.00  0.00     0.013 C 
HETATM    9  C   LIG     1      22.897  21.847  21.944  1.00  0.00     0.001 C 
HETATM   10  C   LIG     1      22.819  21.843  20.561  1.00  0.00     0.007 C 
HETATM   11  C   LIG     1      23.878  22.322  19.771  1.00  0.00    -0.050 C 
HETATM   12  C   LIG     1      23.771  22.051  18.290  1.00  0.00     0.049 C 
HETATM   13  C   LIG     1      25.956  24.083  18.270  1.00  0.00     0.049 C 
ENDROOT
TORSDOF 0
ENDMDL
MODEL 10
REMARK VINA RESULT:      -4.4     15.521     16.505
REMARK  0 active torsions:
REMARK  status: ('A' for Active; 'I' for Inactive)
ROOT
HETATM    1  C   LIG     1      26.968  26.196  29.107  1.00  0.00     0.049 C 
HETATM    2  C   LIG     1      27.710  27.274  29.861  1.00  0.00    -0.051 C 
HETATM    3  C   LIG     1      28.589  28.091  29.150  1.00  0.00     0.008 C 
HETATM    4  C   LIG     1      29.341  29.057  29.799  1.00  0.00     0.008 C 
HETATM    5  C   LIG     1      29.222  29.268  31.181  1.00  0.00    -0.050 C 
HETATM    6  C   LIG     1      28.227  28.548  31.922  1.00  0.00    -0.013 C 
HETATM    7  C   LIG     1      27.531  27.484  31.254  1.00  0.00    -0.019 C 
HETATM    8  C   LIG     1      26.667  26.649  31.991  1.00  0.00     0.013 C 
HETATM    9  C   LIG     1      26.456  26.856  33.346  1.00  0.00     0.001 C 
HETATM   10  C   LIG     1      27.045  27.935  33.985  1.00  0.00     0.007 C 
HETATM   11  C   LIG     1      27.886  28.821  33.291  1.00  0.00    -0.050 C 
HETATM   12  C   LIG     1      28.275  30.078  34.032  1.00  0.00     0.049 C 
HETATM   13  C   LIG     1      30.253  30.181  31.801  1.00  0.00     0.049 C 
ENDROOT
TORSDOF 0
ENDMDL
MODEL 11
REMARK VINA RESULT:      -4.4     15.824     16.223
REMARK  0 active torsions:
REMARK  status: ('A' for Active; 'I' for Inactive)
ROOT
HETATM    1  C   LIG     1      24.320  22.043  24.132  1.00  0.00     0.049 C 
HETATM    2  C   LIG     1      24.211  22.185  22.633  1.00  0.00    -0.051 C 
HETATM    3  C   LIG     1      23.041  21.749  22.011  1.00  0.00     0.008 C 
HETATM    4  C   LIG     1      22.909  21.800  20.633  1.00  0.00     0.008 C 
HETATM    5  C   LIG     1      23.928  22.318  19.820  1.00  0.00    -0.050 C 
HETATM    6  C   LIG     1      25.086  22.907  20.430  1.00  0.00    -0.013 C 
HETATM    7  C   LIG     1      25.249  22.754  21.848  1.00  0.00    -0.019 C 
HETATM    8  C   LIG     1      26.449  23.175  22.459  1.00  0.00     0.013 C 
HETATM    9  C   LIG     1      27.463  23.759  21.715  1.00  0.00     0.001 C 
HETATM   10  C   LIG     1      27.284  24.001  20.363  1.00  0.00     0.007 C 
HETATM   11  C   LIG     1      26.094  23.637  19.710  1.00  0.00    -0.050 C 
HETATM   12  C   LIG     1      25.927  24.158  18.303  1.00  0.00     0.049 C 
HETATM   13  C   LIG     1      23.762  22.106  18.335  1.00  0.00     0.049 C 
ENDROOT
TORSDOF 0
ENDMDL
