REMARK  0 active torsions:
REMARK  status: ('A' for Active; 'I' for Inactive)
ROOT
HETATM    1  C   LIG     1       3.360   0.881  -0.045  1.00  0.00     0.049 C 
HETATM    2  C   LIG     1       2.077   0.085  -0.038  1.00  0.00    -0.051 C 
HETATM    3  C   LIG     1       2.164  -1.307  -0.012  1.00  0.00     0.008 C 
HETATM    4  C   LIG     1       1.022  -2.090  -0.064  1.00  0.00     0.008 C 
HETATM    5  C   LIG     1      -0.256  -1.514  -0.112  1.00  0.00    -0.050 C 
HETATM    6  C   LIG     1      -0.394  -0.091   0.003  1.00  0.00    -0.013 C 
HETATM    7  C   LIG     1       0.800   0.706  -0.045  1.00  0.00    -0.019 C 
HETATM    8  C   LIG     1       0.696   2.111  -0.099  1.00  0.00     0.013 C 
HETATM    9  C   LIG     1      -0.541   2.737  -0.078  1.00  0.00     0.001 C 
HETATM   10  C   LIG     1      -1.698   1.989   0.065  1.00  0.00     0.007 C 
HETATM   11  C   LIG     1      -1.651   0.588   0.161  1.00  0.00    -0.050 C 
HETATM   12  C   LIG     1      -2.944  -0.091   0.545  1.00  0.00     0.049 C 
HETATM   13  C   LIG     1      -1.397  -2.461  -0.399  1.00  0.00     0.049 C 
ENDROOT
TORSDOF 0
