REMARK  1 active torsions:
REMARK  status: ('A' for Active; 'I' for Inactive)
REMARK    1  A    between atoms: C_10  and  C_11 
ROOT
HETATM    1 CL   LIG     1       0.744  -2.456   1.161  1.00  0.00    -0.082 Cl
HETATM    2  C   LIG     1       1.507  -0.948   0.646  1.00  0.00     0.068 A 
HETATM    3  C   LIG     1       2.893  -0.777   0.797  1.00  0.00     0.058 A 
HETATM    4 CL   LIG     1       3.899  -2.040   1.496  1.00  0.00    -0.082 Cl
HETATM    5  C   LIG     1       3.498   0.414   0.391  1.00  0.00     0.051 A 
HETATM    6  C   LIG     1       2.738   1.443  -0.168  1.00  0.00     0.058 A 
HETATM    7 CL   LIG     1       3.553   2.922  -0.663  1.00  0.00    -0.082 Cl
HETATM    8  C   LIG     1       1.351   1.286  -0.326  1.00  0.00     0.068 A 
HETATM    9 CL   LIG     1       0.392   2.590  -1.034  1.00  0.00    -0.082 Cl
HETATM   10  C   LIG     1       0.731   0.086   0.082  1.00  0.00     0.025 A 
ENDROOT
BRANCH  10  11
HETATM   11  C   LIG     1      -0.731  -0.086  -0.082  1.00  0.00     0.025 A 
HETATM   12  C   LIG     1      -1.609   0.302   0.952  1.00  0.00     0.068 A 
HETATM   13  C   LIG     1      -2.994   0.135   0.790  1.00  0.00     0.058 A 
HETATM   14 CL   LIG     1      -0.975   0.997   2.447  1.00  0.00    -0.082 Cl
HETATM   15  C   LIG     1      -3.498  -0.414  -0.391  1.00  0.00     0.051 A 
HETATM   16 CL   LIG     1      -4.126   0.605   2.053  1.00  0.00    -0.082 Cl
HETATM   17  C   LIG     1      -2.636  -0.801  -1.419  1.00  0.00     0.058 A 
HETATM   18  C   LIG     1      -1.249  -0.640  -1.271  1.00  0.00     0.068 A 
HETATM   19 CL   LIG     1      -3.326  -1.487  -2.885  1.00  0.00    -0.082 Cl
HETATM   20 CL   LIG     1      -0.162  -1.131  -2.574  1.00  0.00    -0.082 Cl
ENDBRANCH  10  11
TORSDOF 1
