MODEL 1
REMARK VINA RESULT:      -4.5      0.000      0.000
REMARK  1 active torsions:
REMARK  status: ('A' for Active; 'I' for Inactive)
REMARK    1  A    between atoms: C_10  and  C_11 
ROOT
HETATM    1 CL   LIG     1      26.435  19.262  23.010  1.00  0.00    -0.082 Cl
HETATM    2  C   LIG     1      25.406  19.995  21.774  1.00  0.00     0.068 A 
HETATM    3  C   LIG     1      25.482  19.548  20.444  1.00  0.00     0.058 A 
HETATM    4 CL   LIG     1      26.589  18.264  19.973  1.00  0.00    -0.082 Cl
HETATM    5  C   LIG     1      24.671  20.126  19.466  1.00  0.00     0.051 A 
HETATM    6  C   LIG     1      23.779  21.148  19.795  1.00  0.00     0.058 A 
HETATM    7 CL   LIG     1      22.779  21.839  18.522  1.00  0.00    -0.082 Cl
HETATM    8  C   LIG     1      23.691  21.605  21.121  1.00  0.00     0.068 A 
HETATM    9 CL   LIG     1      22.561  22.898  21.534  1.00  0.00    -0.082 Cl
HETATM   10  C   LIG     1      24.508  21.027  22.116  1.00  0.00     0.025 A 
ENDROOT
BRANCH  10  11
HETATM   11  C   LIG     1      24.421  21.504  23.515  1.00  0.00     0.025 A 
HETATM   12  C   LIG     1      25.239  22.566  23.953  1.00  0.00     0.068 A 
HETATM   13  C   LIG     1      25.152  23.013  25.281  1.00  0.00     0.058 A 
HETATM   14 CL   LIG     1      26.371  23.338  22.837  1.00  0.00    -0.082 Cl
HETATM   15  C   LIG     1      24.258  22.405  26.165  1.00  0.00     0.051 A 
HETATM   16 CL   LIG     1      26.153  24.335  25.870  1.00  0.00    -0.082 Cl
HETATM   17  C   LIG     1      23.444  21.352  25.741  1.00  0.00     0.058 A 
HETATM   18  C   LIG     1      23.521  20.895  24.415  1.00  0.00     0.068 A 
HETATM   19 CL   LIG     1      22.336  20.623  26.897  1.00  0.00    -0.082 Cl
HETATM   20 CL   LIG     1      22.490  19.563  23.882  1.00  0.00    -0.082 Cl
ENDBRANCH  10  11
TORSDOF 1
ENDMDL
MODEL 2
REMARK VINA RESULT:      -4.5      0.115      2.678
REMARK  1 active torsions:
REMARK  status: ('A' for Active; 'I' for Inactive)
REMARK    1  A    between atoms: C_10  and  C_11 
ROOT
HETATM    1 CL   LIG     1      22.629  22.930  21.584  1.00  0.00    -0.082 Cl
HETATM    2  C   LIG     1      23.701  21.585  21.178  1.00  0.00     0.068 A 
HETATM    3  C   LIG     1      23.755  21.106  19.859  1.00  0.00     0.058 A 
HETATM    4 CL   LIG     1      22.769  21.818  18.587  1.00  0.00    -0.082 Cl
HETATM    5  C   LIG     1      24.601  20.044  19.536  1.00  0.00     0.051 A 
HETATM    6  C   LIG     1      25.401  19.449  20.514  1.00  0.00     0.058 A 
HETATM    7 CL   LIG     1      26.449  18.114  20.050  1.00  0.00    -0.082 Cl
HETATM    8  C   LIG     1      25.358  19.918  21.837  1.00  0.00     0.068 A 
HETATM    9 CL   LIG     1      26.371  19.163  23.072  1.00  0.00    -0.082 Cl
HETATM   10  C   LIG     1      24.505  20.991  22.173  1.00  0.00     0.025 A 
ENDROOT
BRANCH  10  11
HETATM   11  C   LIG     1      24.456  21.490  23.566  1.00  0.00     0.025 A 
HETATM   12  C   LIG     1      25.305  22.542  23.971  1.00  0.00     0.068 A 
HETATM   13  C   LIG     1      25.253  23.010  25.294  1.00  0.00     0.058 A 
HETATM   14 CL   LIG     1      26.430  23.273  22.822  1.00  0.00    -0.082 Cl
HETATM   15  C   LIG     1      24.364  22.434  26.204  1.00  0.00     0.051 A 
HETATM   16 CL   LIG     1      26.293  24.319  25.843  1.00  0.00    -0.082 Cl
HETATM   17  C   LIG     1      23.521  21.393  25.812  1.00  0.00     0.058 A 
HETATM   18  C   LIG     1      23.562  20.915  24.492  1.00  0.00     0.068 A 
HETATM   19 CL   LIG     1      22.421  20.705  27.000  1.00  0.00    -0.082 Cl
HETATM   20 CL   LIG     1      22.493  19.597  24.000  1.00  0.00    -0.082 Cl
ENDBRANCH  10  11
TORSDOF 1
ENDMDL
MODEL 3
REMARK VINA RESULT:      -4.5      0.110      3.786
REMARK  1 active torsions:
REMARK  status: ('A' for Active; 'I' for Inactive)
REMARK    1  A    between atoms: C_10  and  C_11 
ROOT
HETATM    1 CL   LIG     1      22.634  22.930  21.582  1.00  0.00    -0.082 Cl
HETATM    2  C   LIG     1      23.705  21.586  21.174  1.00  0.00     0.068 A 
HETATM    3  C   LIG     1      23.760  21.109  19.854  1.00  0.00     0.058 A 
HETATM    4 CL   LIG     1      22.777  21.824  18.582  1.00  0.00    -0.082 Cl
HETATM    5  C   LIG     1      24.606  20.047  19.530  1.00  0.00     0.051 A 
HETATM    6  C   LIG     1      25.403  19.449  20.508  1.00  0.00     0.058 A 
HETATM    7 CL   LIG     1      26.451  18.114  20.043  1.00  0.00    -0.082 Cl
HETATM    8  C   LIG     1      25.359  19.915  21.832  1.00  0.00     0.068 A 
HETATM    9 CL   LIG     1      26.370  19.157  23.067  1.00  0.00    -0.082 Cl
HETATM   10  C   LIG     1      24.507  20.988  22.169  1.00  0.00     0.025 A 
ENDROOT
BRANCH  10  11
HETATM   11  C   LIG     1      24.456  21.485  23.563  1.00  0.00     0.025 A 
HETATM   12  C   LIG     1      23.559  20.907  24.487  1.00  0.00     0.068 A 
HETATM   13  C   LIG     1      23.515  21.384  25.807  1.00  0.00     0.058 A 
HETATM   14 CL   LIG     1      22.494  19.589  23.991  1.00  0.00    -0.082 Cl
HETATM   15  C   LIG     1      24.357  22.426  26.202  1.00  0.00     0.051 A 
HETATM   16 CL   LIG     1      22.413  20.693  26.993  1.00  0.00    -0.082 Cl
HETATM   17  C   LIG     1      25.247  23.004  25.294  1.00  0.00     0.058 A 
HETATM   18  C   LIG     1      25.301  22.537  23.971  1.00  0.00     0.068 A 
HETATM   19 CL   LIG     1      26.283  24.314  25.846  1.00  0.00    -0.082 Cl
HETATM   20 CL   LIG     1      26.429  23.271  22.825  1.00  0.00    -0.082 Cl
ENDBRANCH  10  11
TORSDOF 1
ENDMDL
MODEL 4
REMARK VINA RESULT:      -4.5      0.080      5.679
REMARK  1 active torsions:
REMARK  status: ('A' for Active; 'I' for Inactive)
REMARK    1  A    between atoms: C_10  and  C_11 
ROOT
HETATM    1 CL   LIG     1      22.516  19.604  23.874  1.00  0.00    -0.082 Cl
HETATM    2  C   LIG     1      23.575  20.922  24.389  1.00  0.00     0.068 A 
HETATM    3  C   LIG     1      23.514  21.393  25.711  1.00  0.00     0.058 A 
HETATM    4 CL   LIG     1      22.397  20.697  26.879  1.00  0.00    -0.082 Cl
HETATM    5  C   LIG     1      24.350  22.434  26.121  1.00  0.00     0.051 A 
HETATM    6  C   LIG     1      25.251  23.015  25.227  1.00  0.00     0.058 A 
HETATM    7 CL   LIG     1      26.280  24.324  25.797  1.00  0.00    -0.082 Cl
HETATM    8  C   LIG     1      25.323  22.554  23.902  1.00  0.00     0.068 A 
HETATM    9 CL   LIG     1      26.465  23.292  22.774  1.00  0.00    -0.082 Cl
HETATM   10  C   LIG     1      24.482  21.503  23.480  1.00  0.00     0.025 A 
ENDROOT
BRANCH  10  11
HETATM   11  C   LIG     1      24.554  21.012  22.084  1.00  0.00     0.025 A 
HETATM   12  C   LIG     1      23.734  21.586  21.090  1.00  0.00     0.068 A 
HETATM   13  C   LIG     1      23.806  21.115  19.769  1.00  0.00     0.058 A 
HETATM   14 CL   LIG     1      22.619  22.894  21.498  1.00  0.00    -0.082 Cl
HETATM   15  C   LIG     1      24.687  20.081  19.443  1.00  0.00     0.051 A 
HETATM   16 CL   LIG     1      22.802  21.801  18.496  1.00  0.00    -0.082 Cl
HETATM   17  C   LIG     1      25.501  19.507  20.421  1.00  0.00     0.058 A 
HETATM   18  C   LIG     1      25.440  19.968  21.746  1.00  0.00     0.068 A 
HETATM   19 CL   LIG     1      26.592  18.208  19.954  1.00  0.00    -0.082 Cl
HETATM   20 CL   LIG     1      26.472  19.239  22.980  1.00  0.00    -0.082 Cl
ENDBRANCH  10  11
TORSDOF 1
ENDMDL
MODEL 5
REMARK VINA RESULT:      -4.5      0.108      5.668
REMARK  1 active torsions:
REMARK  status: ('A' for Active; 'I' for Inactive)
REMARK    1  A    between atoms: C_10  and  C_11 
ROOT
HETATM    1 CL   LIG     1      26.378  23.218  22.842  1.00  0.00    -0.082 Cl
HETATM    2  C   LIG     1      25.229  22.474  23.960  1.00  0.00     0.068 A 
HETATM    3  C   LIG     1      25.143  22.935  25.285  1.00  0.00     0.058 A 
HETATM    4 CL   LIG     1      26.163  24.246  25.865  1.00  0.00    -0.082 Cl
HETATM    5  C   LIG     1      24.236  22.349  26.170  1.00  0.00     0.051 A 
HETATM    6  C   LIG     1      23.408  21.305  25.752  1.00  0.00     0.058 A 
HETATM    7 CL   LIG     1      22.284  20.605  26.910  1.00  0.00    -0.082 Cl
HETATM    8  C   LIG     1      23.483  20.835  24.431  1.00  0.00     0.068 A 
HETATM    9 CL   LIG     1      22.434  19.514  23.906  1.00  0.00    -0.082 Cl
HETATM   10  C   LIG     1      24.397  21.421  23.530  1.00  0.00     0.025 A 
ENDROOT
BRANCH  10  11
HETATM   11  C   LIG     1      24.481  20.929  22.135  1.00  0.00     0.025 A 
HETATM   12  C   LIG     1      23.682  21.515  21.130  1.00  0.00     0.068 A 
HETATM   13  C   LIG     1      23.766  21.044  19.809  1.00  0.00     0.058 A 
HETATM   14 CL   LIG     1      22.581  22.838  21.523  1.00  0.00    -0.082 Cl
HETATM   15  C   LIG     1      24.637  19.998  19.495  1.00  0.00     0.051 A 
HETATM   16 CL   LIG     1      22.790  21.745  18.524  1.00  0.00    -0.082 Cl
HETATM   17  C   LIG     1      25.430  19.412  20.484  1.00  0.00     0.058 A 
HETATM   18  C   LIG     1      25.356  19.873  21.808  1.00  0.00     0.068 A 
HETATM   19 CL   LIG     1      26.509  18.098  20.031  1.00  0.00    -0.082 Cl
HETATM   20 CL   LIG     1      26.361  19.130  23.056  1.00  0.00    -0.082 Cl
ENDBRANCH  10  11
TORSDOF 1
ENDMDL
MODEL 6
REMARK VINA RESULT:      -4.5      0.080      5.686
REMARK  1 active torsions:
REMARK  status: ('A' for Active; 'I' for Inactive)
REMARK    1  A    between atoms: C_10  and  C_11 
ROOT
HETATM    1 CL   LIG     1      22.513  19.594  23.878  1.00  0.00    -0.082 Cl
HETATM    2  C   LIG     1      23.571  20.912  24.390  1.00  0.00     0.068 A 
HETATM    3  C   LIG     1      23.512  21.385  25.712  1.00  0.00     0.058 A 
HETATM    4 CL   LIG     1      22.397  20.690  26.882  1.00  0.00    -0.082 Cl
HETATM    5  C   LIG     1      24.347  22.427  26.119  1.00  0.00     0.051 A 
HETATM    6  C   LIG     1      25.247  23.008  25.223  1.00  0.00     0.058 A 
HETATM    7 CL   LIG     1      26.276  24.318  25.790  1.00  0.00    -0.082 Cl
HETATM    8  C   LIG     1      25.318  22.546  23.898  1.00  0.00     0.068 A 
HETATM    9 CL   LIG     1      26.457  23.283  22.768  1.00  0.00    -0.082 Cl
HETATM   10  C   LIG     1      24.477  21.493  23.478  1.00  0.00     0.025 A 
ENDROOT
BRANCH  10  11
HETATM   11  C   LIG     1      24.547  21.001  22.083  1.00  0.00     0.025 A 
HETATM   12  C   LIG     1      25.435  19.958  21.745  1.00  0.00     0.068 A 
HETATM   13  C   LIG     1      25.496  19.497  20.420  1.00  0.00     0.058 A 
HETATM   14 CL   LIG     1      26.467  19.230  22.980  1.00  0.00    -0.082 Cl
HETATM   15  C   LIG     1      24.681  20.070  19.442  1.00  0.00     0.051 A 
HETATM   16 CL   LIG     1      26.589  18.198  19.953  1.00  0.00    -0.082 Cl
HETATM   17  C   LIG     1      23.800  21.103  19.768  1.00  0.00     0.058 A 
HETATM   18  C   LIG     1      23.727  21.574  21.089  1.00  0.00     0.068 A 
HETATM   19 CL   LIG     1      22.796  21.789  18.496  1.00  0.00    -0.082 Cl
HETATM   20 CL   LIG     1      22.611  22.881  21.497  1.00  0.00    -0.082 Cl
ENDBRANCH  10  11
TORSDOF 1
ENDMDL
MODEL 7
REMARK VINA RESULT:      -4.5      0.078      5.677
REMARK  1 active torsions:
REMARK  status: ('A' for Active; 'I' for Inactive)
REMARK    1  A    between atoms: C_10  and  C_11 
ROOT
HETATM    1 CL   LIG     1      26.392  23.291  22.877  1.00  0.00    -0.082 Cl
HETATM    2  C   LIG     1      25.241  22.513  23.969  1.00  0.00     0.068 A 
HETATM    3  C   LIG     1      25.130  22.953  25.298  1.00  0.00     0.058 A 
HETATM    4 CL   LIG     1      26.120  24.272  25.910  1.00  0.00    -0.082 Cl
HETATM    5  C   LIG     1      24.222  22.339  26.163  1.00  0.00     0.051 A 
HETATM    6  C   LIG     1      23.417  21.288  25.720  1.00  0.00     0.058 A 
HETATM    7 CL   LIG     1      22.289  20.552  26.852  1.00  0.00    -0.082 Cl
HETATM    8  C   LIG     1      23.517  20.838  24.393  1.00  0.00     0.068 A 
HETATM    9 CL   LIG     1      22.496  19.508  23.835  1.00  0.00    -0.082 Cl
HETATM   10  C   LIG     1      24.432  21.452  23.512  1.00  0.00     0.025 A 
ENDROOT
BRANCH  10  11
HETATM   11  C   LIG     1      24.542  20.982  22.111  1.00  0.00     0.025 A 
HETATM   12  C   LIG     1      25.469  19.974  21.774  1.00  0.00     0.068 A 
HETATM   13  C   LIG     1      25.569  19.534  20.444  1.00  0.00     0.058 A 
HETATM   14 CL   LIG     1      26.504  19.262  23.017  1.00  0.00    -0.082 Cl
HETATM   15  C   LIG     1      24.752  20.095  19.460  1.00  0.00     0.051 A 
HETATM   16 CL   LIG     1      26.711  18.279  19.979  1.00  0.00    -0.082 Cl
HETATM   17  C   LIG     1      23.832  21.094  19.785  1.00  0.00     0.058 A 
HETATM   18  C   LIG     1      23.722  21.544  21.111  1.00  0.00     0.068 A 
HETATM   19 CL   LIG     1      22.829  21.765  18.505  1.00  0.00    -0.082 Cl
HETATM   20 CL   LIG     1      22.556  22.807  21.517  1.00  0.00    -0.082 Cl
ENDBRANCH  10  11
TORSDOF 1
ENDMDL
MODEL 8
REMARK VINA RESULT:      -4.5      0.282      2.689
REMARK  1 active torsions:
REMARK  status: ('A' for Active; 'I' for Inactive)
REMARK    1  A    between atoms: C_10  and  C_11 
ROOT
HETATM    1 CL   LIG     1      26.658  19.380  23.001  1.00  0.00    -0.082 Cl
HETATM    2  C   LIG     1      25.577  20.044  21.772  1.00  0.00     0.068 A 
HETATM    3  C   LIG     1      25.604  19.531  20.464  1.00  0.00     0.058 A 
HETATM    4 CL   LIG     1      26.702  18.232  20.014  1.00  0.00    -0.082 Cl
HETATM    5  C   LIG     1      24.750  20.054  19.491  1.00  0.00     0.051 A 
HETATM    6  C   LIG     1      23.863  21.086  19.804  1.00  0.00     0.058 A 
HETATM    7 CL   LIG     1      22.809  21.706  18.539  1.00  0.00    -0.082 Cl
HETATM    8  C   LIG     1      23.824  21.608  21.108  1.00  0.00     0.068 A 
HETATM    9 CL   LIG     1      22.700  22.913  21.500  1.00  0.00    -0.082 Cl
HETATM   10  C   LIG     1      24.683  21.086  22.097  1.00  0.00     0.025 A 
ENDROOT
BRANCH  10  11
HETATM   11  C   LIG     1      24.647  21.631  23.474  1.00  0.00     0.025 A 
HETATM   12  C   LIG     1      23.761  21.087  24.427  1.00  0.00     0.068 A 
HETATM   13  C   LIG     1      23.731  21.611  25.730  1.00  0.00     0.058 A 
HETATM   14 CL   LIG     1      22.690  19.752  23.990  1.00  0.00    -0.082 Cl
HETATM   15  C   LIG     1      24.576  22.666  26.078  1.00  0.00     0.051 A 
HETATM   16 CL   LIG     1      22.641  20.963  26.951  1.00  0.00    -0.082 Cl
HETATM   17  C   LIG     1      25.456  23.211  25.141  1.00  0.00     0.058 A 
HETATM   18  C   LIG     1      25.497  22.698  23.834  1.00  0.00     0.068 A 
HETATM   19 CL   LIG     1      26.498  24.539  25.635  1.00  0.00    -0.082 Cl
HETATM   20 CL   LIG     1      26.612  23.390  22.651  1.00  0.00    -0.082 Cl
ENDBRANCH  10  11
TORSDOF 1
ENDMDL
MODEL 9
REMARK VINA RESULT:      -4.3      3.536      6.432
REMARK  1 active torsions:
REMARK  status: ('A' for Active; 'I' for Inactive)
REMARK    1  A    between atoms: C_10  and  C_11 
ROOT
HETATM    1 CL   LIG     1      28.284  23.069  21.794  1.00  0.00    -0.082 Cl
HETATM    2  C   LIG     1      26.545  22.923  21.517  1.00  0.00     0.068 A 
HETATM    3  C   LIG     1      25.656  22.976  22.603  1.00  0.00     0.058 A 
HETATM    4 CL   LIG     1      26.237  23.183  24.251  1.00  0.00    -0.082 Cl
HETATM    5  C   LIG     1      24.282  22.860  22.386  1.00  0.00     0.051 A 
HETATM    6  C   LIG     1      23.777  22.693  21.095  1.00  0.00     0.058 A 
HETATM    7 CL   LIG     1      22.036  22.554  20.880  1.00  0.00    -0.082 Cl
HETATM    8  C   LIG     1      24.655  22.639  19.999  1.00  0.00     0.068 A 
HETATM    9 CL   LIG     1      24.013  22.428  18.367  1.00  0.00    -0.082 Cl
HETATM   10  C   LIG     1      26.045  22.755  20.209  1.00  0.00     0.025 A 
ENDROOT
BRANCH  10  11
HETATM   11  C   LIG     1      26.976  22.699  19.058  1.00  0.00     0.025 A 
HETATM   12  C   LIG     1      27.346  23.885  18.390  1.00  0.00     0.068 A 
HETATM   13  C   LIG     1      28.228  23.825  17.299  1.00  0.00     0.058 A 
HETATM   14 CL   LIG     1      26.707  25.444  18.921  1.00  0.00    -0.082 Cl
HETATM   15  C   LIG     1      28.734  22.594  16.878  1.00  0.00     0.051 A 
HETATM   16 CL   LIG     1      28.717  25.279  16.437  1.00  0.00    -0.082 Cl
HETATM   17  C   LIG     1      28.373  21.415  17.533  1.00  0.00     0.058 A 
HETATM   18  C   LIG     1      27.492  21.460  18.625  1.00  0.00     0.068 A 
HETATM   19 CL   LIG     1      29.041  19.892  16.959  1.00  0.00    -0.082 Cl
HETATM   20 CL   LIG     1      27.037  19.966  19.451  1.00  0.00    -0.082 Cl
ENDBRANCH  10  11
TORSDOF 1
ENDMDL
MODEL 10
REMARK VINA RESULT:      -4.3      3.512      6.765
REMARK  1 active torsions:
REMARK  status: ('A' for Active; 'I' for Inactive)
REMARK    1  A    between atoms: C_10  and  C_11 
ROOT
HETATM    1 CL   LIG     1      28.285  23.057  21.833  1.00  0.00    -0.082 Cl
HETATM    2  C   LIG     1      26.545  22.917  21.559  1.00  0.00     0.068 A 
HETATM    3  C   LIG     1      25.658  22.975  22.647  1.00  0.00     0.058 A 
HETATM    4 CL   LIG     1      26.243  23.183  24.293  1.00  0.00    -0.082 Cl
HETATM    5  C   LIG     1      24.283  22.865  22.433  1.00  0.00     0.051 A 
HETATM    6  C   LIG     1      23.775  22.698  21.143  1.00  0.00     0.058 A 
HETATM    7 CL   LIG     1      22.033  22.566  20.932  1.00  0.00    -0.082 Cl
HETATM    8  C   LIG     1      24.650  22.639  20.046  1.00  0.00     0.068 A 
HETATM    9 CL   LIG     1      24.005  22.429  18.415  1.00  0.00    -0.082 Cl
HETATM   10  C   LIG     1      26.042  22.749  20.253  1.00  0.00     0.025 A 
ENDROOT
BRANCH  10  11
HETATM   11  C   LIG     1      26.970  22.689  19.100  1.00  0.00     0.025 A 
HETATM   12  C   LIG     1      27.486  21.447  18.673  1.00  0.00     0.068 A 
HETATM   13  C   LIG     1      28.367  21.397  17.580  1.00  0.00     0.058 A 
HETATM   14 CL   LIG     1      27.031  19.957  19.505  1.00  0.00    -0.082 Cl
HETATM   15  C   LIG     1      28.728  22.573  16.919  1.00  0.00     0.051 A 
HETATM   16 CL   LIG     1      29.035  19.871  17.013  1.00  0.00    -0.082 Cl
HETATM   17  C   LIG     1      28.222  23.806  17.336  1.00  0.00     0.058 A 
HETATM   18  C   LIG     1      27.341  23.871  18.427  1.00  0.00     0.068 A 
HETATM   19 CL   LIG     1      28.711  25.256  16.467  1.00  0.00    -0.082 Cl
HETATM   20 CL   LIG     1      26.702  25.433  18.951  1.00  0.00    -0.082 Cl
ENDBRANCH  10  11
TORSDOF 1
ENDMDL
MODEL 11
REMARK VINA RESULT:      -4.0      3.531      6.276
REMARK  1 active torsions:
REMARK  status: ('A' for Active; 'I' for Inactive)
REMARK    1  A    between atoms: C_10  and  C_11 
ROOT
HETATM    1 CL   LIG     1      25.839  24.684  17.880  1.00  0.00    -0.082 Cl
HETATM    2  C   LIG     1      27.139  23.702  18.564  1.00  0.00     0.068 A 
HETATM    3  C   LIG     1      28.466  24.157  18.505  1.00  0.00     0.058 A 
HETATM    4 CL   LIG     1      28.872  25.697  17.756  1.00  0.00    -0.082 Cl
HETATM    5  C   LIG     1      29.495  23.383  19.044  1.00  0.00     0.051 A 
HETATM    6  C   LIG     1      29.218  22.154  19.647  1.00  0.00     0.058 A 
HETATM    7 CL   LIG     1      30.554  21.220  20.311  1.00  0.00    -0.082 Cl
HETATM    8  C   LIG     1      27.896  21.686  19.714  1.00  0.00     0.068 A 
HETATM    9 CL   LIG     1      27.549  20.131  20.478  1.00  0.00    -0.082 Cl
HETATM   10  C   LIG     1      26.850  22.462  19.171  1.00  0.00     0.025 A 
ENDROOT
BRANCH  10  11
HETATM   11  C   LIG     1      25.453  21.974  19.238  1.00  0.00     0.025 A 
HETATM   12  C   LIG     1      24.606  22.398  20.285  1.00  0.00     0.068 A 
HETATM   13  C   LIG     1      23.283  21.930  20.343  1.00  0.00     0.058 A 
HETATM   14 CL   LIG     1      25.201  23.512  21.519  1.00  0.00    -0.082 Cl
HETATM   15  C   LIG     1      22.810  21.049  19.368  1.00  0.00     0.051 A 
HETATM   16 CL   LIG     1      22.192  22.432  21.629  1.00  0.00    -0.082 Cl
HETATM   17  C   LIG     1      23.641  20.625  18.330  1.00  0.00     0.058 A 
HETATM   18  C   LIG     1      24.966  21.084  18.259  1.00  0.00     0.068 A 
HETATM   19 CL   LIG     1      22.992  19.515  17.130  1.00  0.00    -0.082 Cl
HETATM   20 CL   LIG     1      26.015  20.545  16.943  1.00  0.00    -0.082 Cl
ENDBRANCH  10  11
TORSDOF 1
ENDMDL
MODEL 12
REMARK VINA RESULT:      -4.0      3.544      6.364
REMARK  1 active torsions:
REMARK  status: ('A' for Active; 'I' for Inactive)
REMARK    1  A    between atoms: C_10  and  C_11 
ROOT
HETATM    1 CL   LIG     1      25.989  24.659  17.878  1.00  0.00    -0.082 Cl
HETATM    2  C   LIG     1      27.260  23.644  18.567  1.00  0.00     0.068 A 
HETATM    3  C   LIG     1      28.598  24.070  18.525  1.00  0.00     0.058 A 
HETATM    4 CL   LIG     1      29.044  25.606  17.792  1.00  0.00    -0.082 Cl
HETATM    5  C   LIG     1      29.604  23.269  19.068  1.00  0.00     0.051 A 
HETATM    6  C   LIG     1      29.295  22.043  19.659  1.00  0.00     0.058 A 
HETATM    7 CL   LIG     1      30.603  21.074  20.329  1.00  0.00    -0.082 Cl
HETATM    8  C   LIG     1      27.961  21.603  19.709  1.00  0.00     0.068 A 
HETATM    9 CL   LIG     1      27.574  20.050  20.457  1.00  0.00    -0.082 Cl
HETATM   10  C   LIG     1      26.938  22.406  19.162  1.00  0.00     0.025 A 
ENDROOT
BRANCH  10  11
HETATM   11  C   LIG     1      25.530  21.949  19.213  1.00  0.00     0.025 A 
HETATM   12  C   LIG     1      25.029  21.090  18.211  1.00  0.00     0.068 A 
HETATM   13  C   LIG     1      23.693  20.661  18.265  1.00  0.00     0.058 A 
HETATM   14 CL   LIG     1      26.074  20.552  16.893  1.00  0.00    -0.082 Cl
HETATM   15  C   LIG     1      22.865  21.085  19.306  1.00  0.00     0.051 A 
HETATM   16 CL   LIG     1      23.026  19.591  17.038  1.00  0.00    -0.082 Cl
HETATM   17  C   LIG     1      23.352  21.935  20.301  1.00  0.00     0.058 A 
HETATM   18  C   LIG     1      24.686  22.372  20.260  1.00  0.00     0.068 A 
HETATM   19 CL   LIG     1      22.264  22.437  21.589  1.00  0.00    -0.082 Cl
HETATM   20 CL   LIG     1      25.299  23.447  21.521  1.00  0.00    -0.082 Cl
ENDBRANCH  10  11
TORSDOF 1
ENDMDL
MODEL 13
REMARK VINA RESULT:      -4.0     11.062     14.853
REMARK  1 active torsions:
REMARK  status: ('A' for Active; 'I' for Inactive)
REMARK    1  A    between atoms: C_10  and  C_11 
ROOT
HETATM    1 CL   LIG     1      29.728  26.187  34.964  1.00  0.00    -0.082 Cl
HETATM    2  C   LIG     1      28.590  27.285  35.753  1.00  0.00     0.068 A 
HETATM    3  C   LIG     1      28.294  27.125  37.117  1.00  0.00     0.058 A 
HETATM    4 CL   LIG     1      29.035  25.844  38.069  1.00  0.00    -0.082 Cl
HETATM    5  C   LIG     1      27.395  27.991  37.743  1.00  0.00     0.051 A 
HETATM    6  C   LIG     1      26.784  29.021  37.026  1.00  0.00     0.058 A 
HETATM    7 CL   LIG     1      25.660  30.083  37.865  1.00  0.00    -0.082 Cl
HETATM    8  C   LIG     1      27.071  29.193  35.661  1.00  0.00     0.068 A 
HETATM    9 CL   LIG     1      26.295  30.497  34.756  1.00  0.00    -0.082 Cl
HETATM   10  C   LIG     1      27.977  28.322  35.021  1.00  0.00     0.025 A 
ENDROOT
BRANCH  10  11
HETATM   11  C   LIG     1      28.284  28.499  33.582  1.00  0.00     0.025 A 
HETATM   12  C   LIG     1      29.229  29.464  33.174  1.00  0.00     0.068 A 
HETATM   13  C   LIG     1      29.514  29.627  31.808  1.00  0.00     0.058 A 
HETATM   14 CL   LIG     1      30.053  30.468  34.371  1.00  0.00    -0.082 Cl
HETATM   15  C   LIG     1      28.863  28.835  30.860  1.00  0.00     0.051 A 
HETATM   16 CL   LIG     1      30.684  30.818  31.254  1.00  0.00    -0.082 Cl
HETATM   17  C   LIG     1      27.927  27.877  31.256  1.00  0.00     0.058 A 
HETATM   18  C   LIG     1      27.632  27.704  32.617  1.00  0.00     0.068 A 
HETATM   19 CL   LIG     1      27.138  26.907  30.018  1.00  0.00    -0.082 Cl
HETATM   20 CL   LIG     1      26.447  26.491  33.113  1.00  0.00    -0.082 Cl
ENDBRANCH  10  11
TORSDOF 1
ENDMDL
MODEL 14
REMARK VINA RESULT:      -3.9     10.987     15.086
REMARK  1 active torsions:
REMARK  status: ('A' for Active; 'I' for Inactive)
REMARK    1  A    between atoms: C_10  and  C_11 
ROOT
HETATM    1 CL   LIG     1      30.236  26.429  34.955  1.00  0.00    -0.082 Cl
HETATM    2  C   LIG     1      28.995  27.396  35.760  1.00  0.00     0.068 A 
HETATM    3  C   LIG     1      28.803  27.275  37.147  1.00  0.00     0.058 A 
HETATM    4 CL   LIG     1      29.776  26.171  38.112  1.00  0.00    -0.082 Cl
HETATM    5  C   LIG     1      27.824  28.038  37.785  1.00  0.00     0.051 A 
HETATM    6  C   LIG     1      27.028  28.926  37.058  1.00  0.00     0.058 A 
HETATM    7 CL   LIG     1      25.809  29.863  37.914  1.00  0.00    -0.082 Cl
HETATM    8  C   LIG     1      27.209  29.057  35.671  1.00  0.00     0.068 A 
HETATM    9 CL   LIG     1      26.201  30.182  34.754  1.00  0.00    -0.082 Cl
HETATM   10  C   LIG     1      28.197  28.290  35.018  1.00  0.00     0.025 A 
ENDROOT
BRANCH  10  11
HETATM   11  C   LIG     1      28.393  28.424  33.556  1.00  0.00     0.025 A 
HETATM   12  C   LIG     1      27.685  27.587  32.668  1.00  0.00     0.068 A 
HETATM   13  C   LIG     1      27.877  27.719  31.283  1.00  0.00     0.058 A 
HETATM   14 CL   LIG     1      26.560  26.376  33.289  1.00  0.00    -0.082 Cl
HETATM   15  C   LIG     1      28.766  28.676  30.789  1.00  0.00     0.051 A 
HETATM   16 CL   LIG     1      27.016  26.697  30.138  1.00  0.00    -0.082 Cl
HETATM   17  C   LIG     1      29.470  29.509  31.661  1.00  0.00     0.058 A 
HETATM   18  C   LIG     1      29.289  29.388  33.048  1.00  0.00     0.068 A 
HETATM   19 CL   LIG     1      30.577  30.697  30.983  1.00  0.00    -0.082 Cl
HETATM   20 CL   LIG     1      30.182  30.442  34.148  1.00  0.00    -0.082 Cl
ENDBRANCH  10  11
TORSDOF 1
ENDMDL
MODEL 15
REMARK VINA RESULT:      -3.8      9.310     12.720
REMARK  1 active torsions:
REMARK  status: ('A' for Active; 'I' for Inactive)
REMARK    1  A    between atoms: C_10  and  C_11 
ROOT
HETATM    1 CL   LIG     1      27.184  27.681  30.032  1.00  0.00    -0.082 Cl
HETATM    2  C   LIG     1      28.002  26.477  31.034  1.00  0.00     0.068 A 
HETATM    3  C   LIG     1      28.074  25.141  30.605  1.00  0.00     0.058 A 
HETATM    4 CL   LIG     1      27.360  24.631  29.080  1.00  0.00    -0.082 Cl
HETATM    5  C   LIG     1      28.719  24.188  31.395  1.00  0.00     0.051 A 
HETATM    6  C   LIG     1      29.299  24.549  32.613  1.00  0.00     0.058 A 
HETATM    7 CL   LIG     1      30.100  23.306  33.568  1.00  0.00    -0.082 Cl
HETATM    8  C   LIG     1      29.236  25.881  33.054  1.00  0.00     0.068 A 
HETATM    9 CL   LIG     1      29.970  26.334  34.596  1.00  0.00    -0.082 Cl
HETATM   10  C   LIG     1      28.585  26.851  32.263  1.00  0.00     0.025 A 
ENDROOT
BRANCH  10  11
HETATM   11  C   LIG     1      28.515  28.257  32.722  1.00  0.00     0.025 A 
HETATM   12  C   LIG     1      29.439  29.206  32.237  1.00  0.00     0.068 A 
HETATM   13  C   LIG     1      29.367  30.538  32.678  1.00  0.00     0.058 A 
HETATM   14 CL   LIG     1      30.684  28.728  31.079  1.00  0.00    -0.082 Cl
HETATM   15  C   LIG     1      28.384  30.918  33.594  1.00  0.00     0.051 A 
HETATM   16 CL   LIG     1      30.499  31.755  32.100  1.00  0.00    -0.082 Cl
HETATM   17  C   LIG     1      27.465  29.985  34.079  1.00  0.00     0.058 A 
HETATM   18  C   LIG     1      27.525  28.651  33.647  1.00  0.00     0.068 A 
HETATM   19 CL   LIG     1      26.248  30.520  35.230  1.00  0.00    -0.082 Cl
HETATM   20 CL   LIG     1      26.361  27.473  34.263  1.00  0.00    -0.082 Cl
ENDBRANCH  10  11
TORSDOF 1
ENDMDL
MODEL 16
REMARK VINA RESULT:      -3.7      3.235      4.346
REMARK  1 active torsions:
REMARK  status: ('A' for Active; 'I' for Inactive)
REMARK    1  A    between atoms: C_10  and  C_11 
ROOT
HETATM    1 CL   LIG     1      24.036  23.027  21.511  1.00  0.00    -0.082 Cl
HETATM    2  C   LIG     1      25.052  22.416  20.200  1.00  0.00     0.068 A 
HETATM    3  C   LIG     1      24.462  21.973  19.005  1.00  0.00     0.058 A 
HETATM    4 CL   LIG     1      22.718  22.010  18.778  1.00  0.00    -0.082 Cl
HETATM    5  C   LIG     1      25.263  21.490  17.969  1.00  0.00     0.051 A 
HETATM    6  C   LIG     1      26.651  21.442  18.106  1.00  0.00     0.058 A 
HETATM    7 CL   LIG     1      27.612  20.824  16.767  1.00  0.00    -0.082 Cl
HETATM    8  C   LIG     1      27.256  21.882  19.295  1.00  0.00     0.068 A 
HETATM    9 CL   LIG     1      29.013  21.820  19.465  1.00  0.00    -0.082 Cl
HETATM   10  C   LIG     1      26.454  22.372  20.348  1.00  0.00     0.025 A 
ENDROOT
BRANCH  10  11
HETATM   11  C   LIG     1      27.085  22.838  21.605  1.00  0.00     0.025 A 
HETATM   12  C   LIG     1      27.494  24.182  21.735  1.00  0.00     0.068 A 
HETATM   13  C   LIG     1      28.092  24.616  22.929  1.00  0.00     0.058 A 
HETATM   14 CL   LIG     1      27.256  25.319  20.404  1.00  0.00    -0.082 Cl
HETATM   15  C   LIG     1      28.281  23.719  23.982  1.00  0.00     0.051 A 
HETATM   16 CL   LIG     1      28.618  26.283  23.135  1.00  0.00    -0.082 Cl
HETATM   17  C   LIG     1      27.880  22.387  23.861  1.00  0.00     0.058 A 
HETATM   18  C   LIG     1      27.280  21.939  22.674  1.00  0.00     0.068 A 
HETATM   19 CL   LIG     1      28.142  21.301  25.220  1.00  0.00    -0.082 Cl
HETATM   20 CL   LIG     1      26.774  20.253  22.525  1.00  0.00    -0.082 Cl
ENDBRANCH  10  11
TORSDOF 1
ENDMDL
MODEL 17
REMARK VINA RESULT:      -3.7      3.222      4.933
REMARK  1 active torsions:
REMARK  status: ('A' for Active; 'I' for Inactive)
REMARK    1  A    between atoms: C_10  and  C_11 
ROOT
HETATM    1 CL   LIG     1      24.034  23.012  21.470  1.00  0.00    -0.082 Cl
HETATM    2  C   LIG     1      25.060  22.397  20.170  1.00  0.00     0.068 A 
HETATM    3  C   LIG     1      24.481  21.954  18.970  1.00  0.00     0.058 A 
HETATM    4 CL   LIG     1      22.739  21.996  18.726  1.00  0.00    -0.082 Cl
HETATM    5  C   LIG     1      25.290  21.467  17.942  1.00  0.00     0.051 A 
HETATM    6  C   LIG     1      26.677  21.415  18.092  1.00  0.00     0.058 A 
HETATM    7 CL   LIG     1      27.648  20.793  16.763  1.00  0.00    -0.082 Cl
HETATM    8  C   LIG     1      27.271  21.855  19.287  1.00  0.00     0.068 A 
HETATM    9 CL   LIG     1      29.026  21.789  19.474  1.00  0.00    -0.082 Cl
HETATM   10  C   LIG     1      26.461  22.349  20.331  1.00  0.00     0.025 A 
ENDROOT
BRANCH  10  11
HETATM   11  C   LIG     1      27.081  22.814  21.593  1.00  0.00     0.025 A 
HETATM   12  C   LIG     1      27.261  21.916  22.666  1.00  0.00     0.068 A 
HETATM   13  C   LIG     1      27.849  22.365  23.860  1.00  0.00     0.058 A 
HETATM   14 CL   LIG     1      26.754  20.231  22.514  1.00  0.00    -0.082 Cl
HETATM   15  C   LIG     1      28.251  23.696  23.983  1.00  0.00     0.051 A 
HETATM   16 CL   LIG     1      28.094  21.279  25.223  1.00  0.00    -0.082 Cl
HETATM   17  C   LIG     1      28.076  24.592  22.927  1.00  0.00     0.058 A 
HETATM   18  C   LIG     1      27.490  24.157  21.727  1.00  0.00     0.068 A 
HETATM   19 CL   LIG     1      28.601  26.258  23.137  1.00  0.00    -0.082 Cl
HETATM   20 CL   LIG     1      27.269  25.294  20.393  1.00  0.00    -0.082 Cl
ENDBRANCH  10  11
TORSDOF 1
ENDMDL
MODEL 18
REMARK VINA RESULT:      -3.7      2.226      4.439
REMARK  1 active torsions:
REMARK  status: ('A' for Active; 'I' for Inactive)
REMARK    1  A    between atoms: C_10  and  C_11 
ROOT
HETATM    1 CL   LIG     1      23.491  23.368  21.629  1.00  0.00    -0.082 Cl
HETATM    2  C   LIG     1      25.184  22.866  21.702  1.00  0.00     0.068 A 
HETATM    3  C   LIG     1      26.135  23.491  20.880  1.00  0.00     0.058 A 
HETATM    4 CL   LIG     1      25.679  24.774  19.765  1.00  0.00    -0.082 Cl
HETATM    5  C   LIG     1      27.473  23.096  20.935  1.00  0.00     0.051 A 
HETATM    6  C   LIG     1      27.880  22.083  21.804  1.00  0.00     0.058 A 
HETATM    7 CL   LIG     1      29.579  21.626  21.834  1.00  0.00    -0.082 Cl
HETATM    8  C   LIG     1      26.940  21.449  22.634  1.00  0.00     0.068 A 
HETATM    9 CL   LIG     1      27.457  20.167  23.733  1.00  0.00    -0.082 Cl
HETATM   10  C   LIG     1      25.585  21.841  22.584  1.00  0.00     0.025 A 
ENDROOT
BRANCH  10  11
HETATM   11  C   LIG     1      24.589  21.177  23.456  1.00  0.00     0.025 A 
HETATM   12  C   LIG     1      23.893  20.039  22.996  1.00  0.00     0.068 A 
HETATM   13  C   LIG     1      22.949  19.415  23.827  1.00  0.00     0.058 A 
HETATM   14 CL   LIG     1      24.206  19.395  21.381  1.00  0.00    -0.082 Cl
HETATM   15  C   LIG     1      22.700  19.922  25.104  1.00  0.00     0.051 A 
HETATM   16 CL   LIG     1      22.059  17.993  23.295  1.00  0.00    -0.082 Cl
HETATM   17  C   LIG     1      23.383  21.048  25.567  1.00  0.00     0.058 A 
HETATM   18  C   LIG     1      24.330  21.682  24.747  1.00  0.00     0.068 A 
HETATM   19 CL   LIG     1      23.030  21.644  27.185  1.00  0.00    -0.082 Cl
HETATM   20 CL   LIG     1      25.192  23.107  25.336  1.00  0.00    -0.082 Cl
ENDBRANCH  10  11
TORSDOF 1
ENDMDL
MODEL 19
REMARK VINA RESULT:      -3.6      3.535      6.823
REMARK  1 active torsions:
REMARK  status: ('A' for Active; 'I' for Inactive)
REMARK    1  A    between atoms: C_10  and  C_11 
ROOT
HETATM    1 CL   LIG     1      26.041  24.268  17.884  1.00  0.00    -0.082 Cl
HETATM    2  C   LIG     1      26.560  23.609  19.440  1.00  0.00     0.068 A 
HETATM    3  C   LIG     1      27.114  24.460  20.411  1.00  0.00     0.058 A 
HETATM    4 CL   LIG     1      27.310  26.183  20.112  1.00  0.00    -0.082 Cl
HETATM    5  C   LIG     1      27.525  23.941  21.640  1.00  0.00     0.051 A 
HETATM    6  C   LIG     1      27.389  22.580  21.919  1.00  0.00     0.058 A 
HETATM    7 CL   LIG     1      27.923  21.982  23.486  1.00  0.00    -0.082 Cl
HETATM    8  C   LIG     1      26.836  21.718  20.958  1.00  0.00     0.068 A 
HETATM    9 CL   LIG     1      26.665  19.996  21.315  1.00  0.00    -0.082 Cl
HETATM   10  C   LIG     1      26.418  22.233  19.713  1.00  0.00     0.025 A 
ENDROOT
BRANCH  10  11
HETATM   11  C   LIG     1      25.833  21.329  18.695  1.00  0.00     0.025 A 
HETATM   12  C   LIG     1      26.657  20.751  17.706  1.00  0.00     0.068 A 
HETATM   13  C   LIG     1      26.095  19.895  16.744  1.00  0.00     0.058 A 
HETATM   14 CL   LIG     1      28.389  21.096  17.673  1.00  0.00    -0.082 Cl
HETATM   15  C   LIG     1      24.726  19.620  16.768  1.00  0.00     0.051 A 
HETATM   16 CL   LIG     1      27.084  19.152  15.493  1.00  0.00    -0.082 Cl
HETATM   17  C   LIG     1      23.904  20.189  17.743  1.00  0.00     0.058 A 
HETATM   18  C   LIG     1      24.452  21.046  18.711  1.00  0.00     0.068 A 
HETATM   19 CL   LIG     1      22.187  19.807  17.725  1.00  0.00    -0.082 Cl
HETATM   20 CL   LIG     1      23.408  21.763  19.943  1.00  0.00    -0.082 Cl
ENDBRANCH  10  11
TORSDOF 1
ENDMDL
MODEL 20
REMARK VINA RESULT:      -3.6      2.271      5.178
REMARK  1 active torsions:
REMARK  status: ('A' for Active; 'I' for Inactive)
REMARK    1  A    between atoms: C_10  and  C_11 
ROOT
HETATM    1 CL   LIG     1      25.427  23.284  25.323  1.00  0.00    -0.082 Cl
HETATM    2  C   LIG     1      24.499  21.882  24.780  1.00  0.00     0.068 A 
HETATM    3  C   LIG     1      23.553  21.294  25.635  1.00  0.00     0.058 A 
HETATM    4 CL   LIG     1      23.268  21.923  27.253  1.00  0.00    -0.082 Cl
HETATM    5  C   LIG     1      22.819  20.186  25.208  1.00  0.00     0.051 A 
HETATM    6  C   LIG     1      23.013  19.653  23.932  1.00  0.00     0.058 A 
HETATM    7 CL   LIG     1      22.060  18.256  23.446  1.00  0.00    -0.082 Cl
HETATM    8  C   LIG     1      23.955  20.231  23.065  1.00  0.00     0.068 A 
HETATM    9 CL   LIG     1      24.199  19.555  21.451  1.00  0.00    -0.082 Cl
HETATM   10  C   LIG     1      24.702  21.351  23.489  1.00  0.00     0.025 A 
ENDROOT
BRANCH  10  11
HETATM   11  C   LIG     1      25.697  21.966  22.580  1.00  0.00     0.025 A 
HETATM   12  C   LIG     1      27.042  21.541  22.612  1.00  0.00     0.068 A 
HETATM   13  C   LIG     1      27.980  22.129  21.748  1.00  0.00     0.058 A 
HETATM   14 CL   LIG     1      27.551  20.274  23.733  1.00  0.00    -0.082 Cl
HETATM   15  C   LIG     1      27.581  23.131  20.861  1.00  0.00     0.051 A 
HETATM   16 CL   LIG     1      29.668  21.630  21.754  1.00  0.00    -0.082 Cl
HETATM   17  C   LIG     1      26.252  23.557  20.823  1.00  0.00     0.058 A 
HETATM   18  C   LIG     1      25.303  22.978  21.681  1.00  0.00     0.068 A 
HETATM   19 CL   LIG     1      25.804  24.823  19.686  1.00  0.00    -0.082 Cl
HETATM   20 CL   LIG     1      23.623  23.521  21.630  1.00  0.00    -0.082 Cl
ENDBRANCH  10  11
TORSDOF 1
ENDMDL
