REMARK  9 active torsions:
REMARK  status: ('A' for Active; 'I' for Inactive)
REMARK    1  A    between atoms: C_13  and  O_14 
REMARK    2  A    between atoms: C_22  and  C_30 
REMARK    3  A    between atoms: C_22  and  O_23 
REMARK    4  A    between atoms: O_23  and  C_24 
REMARK    5  A    between atoms: C_24  and  C_25 
REMARK    6  A    between atoms: C_25  and  C_26 
REMARK    7  A    between atoms: C_26  and  C_27 
REMARK    8  A    between atoms: C_30  and  C_31 
REMARK    9  A    between atoms: C_31  and  O_32 
ROOT
HETATM    1  O   LIG     1      -7.548  -2.817   0.448  1.00  0.00    -0.289 OA
HETATM    2  C   LIG     1      -6.585  -2.007   0.392  1.00  0.00     0.172 C 
HETATM    3  C   LIG     1      -5.925  -1.562   1.620  1.00  0.00     0.052 C 
HETATM    4  C   LIG     1      -4.951  -0.647   1.572  1.00  0.00    -0.006 C 
HETATM    5  C   LIG     1      -4.608   0.113   0.294  1.00  0.00     0.036 C 
HETATM    6  C   LIG     1      -5.399   1.442   0.353  1.00  0.00     0.028 C 
HETATM    7  C   LIG     1      -5.088  -0.650  -0.964  1.00  0.00    -0.061 C 
HETATM    8  C   LIG     1      -4.311  -0.469  -2.252  1.00  0.00     0.036 C 
HETATM    9  C   LIG     1      -2.844  -0.933  -2.063  1.00  0.00     0.013 C 
HETATM   10  C   LIG     1      -2.378  -0.825  -0.591  1.00  0.00     0.035 C 
HETATM   11  C   LIG     1      -3.048   0.394   0.137  1.00  0.00     0.147 C 
HETATM   12  F   LIG     1      -2.956   1.517  -0.671  1.00  0.00    -0.238 F 
HETATM   13  C   LIG     1      -2.250   0.744   1.427  1.00  0.00     0.160 C 
HETATM   14  C   LIG     1      -0.803   1.214   1.060  1.00  0.00     0.048 C 
HETATM   15  C   LIG     1      -0.090   0.378  -0.087  1.00  0.00     0.002 C 
HETATM   16  C   LIG     1      -0.064   1.252  -1.389  1.00  0.00     0.019 C 
HETATM   17  C   LIG     1      -0.847  -0.934  -0.319  1.00  0.00     0.005 C 
HETATM   18  C   LIG     1       0.043  -1.784  -1.221  1.00  0.00     0.013 C 
HETATM   19  C   LIG     1       1.483  -1.443  -0.759  1.00  0.00     0.026 C 
HETATM   20  C   LIG     1       2.437  -1.298  -1.965  1.00  0.00     0.013 C 
HETATM   21  C   LIG     1       1.373  -0.170   0.195  1.00  0.00     0.144 C 
HETATM   22  C   LIG     1      -6.053  -1.577  -0.902  1.00  0.00     0.058 C 
ENDROOT
BRANCH  21  23
HETATM   23  C   LIG     1       1.578  -0.524   1.691  1.00  0.00     0.186 C 
HETATM   24  O   LIG     1       1.938   0.361   2.454  1.00  0.00    -0.292 OA
BRANCH  23  25
HETATM   25  C   LIG     1       1.459  -1.907   2.277  1.00  0.00     0.245 C 
BRANCH  25  26
HETATM   26  O   LIG     1       2.731  -2.485   2.361  1.00  0.00    -0.393 OA
HETATM   27  H   LIG     1       2.625  -3.331   2.861  1.00  0.00     0.209 HD
ENDBRANCH  25  26
ENDBRANCH  23  25
ENDBRANCH  21  23
BRANCH  21  28
HETATM   28  O   LIG     1       2.343   0.828  -0.173  1.00  0.00    -0.301 OA
BRANCH  28  29
HETATM   29  C   LIG     1       3.728   0.714   0.046  1.00  0.00     0.260 C 
HETATM   30  O   LIG     1       4.197  -0.287   0.651  1.00  0.00    -0.265 OA
BRANCH  29  31
HETATM   31  C   LIG     1       4.634   1.815  -0.433  1.00  0.00     0.111 C 
BRANCH  31  32
HETATM   32  C   LIG     1       6.118   1.421  -0.396  1.00  0.00     0.009 C 
BRANCH  32  33
HETATM   33  C   LIG     1       7.021   2.635  -0.630  1.00  0.00    -0.004 C 
HETATM   34  C   LIG     1       8.493   2.235  -0.552  1.00  0.00     0.005 C 
ENDBRANCH  32  33
ENDBRANCH  31  32
ENDBRANCH  29  31
ENDBRANCH  28  29
ENDBRANCH  21  28
BRANCH  13  35
HETATM   35  O   LIG     1      -2.183  -0.359   2.297  1.00  0.00    -0.392 OA
HETATM   36  H   LIG     1      -1.744  -0.054   3.135  1.00  0.00     0.210 HD
ENDBRANCH  13  35
TORSDOF 9
