MODEL 1
REMARK VINA RESULT:      -4.7      0.000      0.000
REMARK  9 active torsions:
REMARK  status: ('A' for Active; 'I' for Inactive)
REMARK    1  A    between atoms: C_13  and  O_14 
REMARK    2  A    between atoms: C_22  and  C_30 
REMARK    3  A    between atoms: C_22  and  O_23 
REMARK    4  A    between atoms: O_23  and  C_24 
REMARK    5  A    between atoms: C_24  and  C_25 
REMARK    6  A    between atoms: C_25  and  C_26 
REMARK    7  A    between atoms: C_26  and  C_27 
REMARK    8  A    between atoms: C_30  and  C_31 
REMARK    9  A    between atoms: C_31  and  O_32 
ROOT
HETATM    1  O   LIG     1      26.061  19.399  29.950  1.00  0.00    -0.289 OA
HETATM    2  C   LIG     1      25.943  20.155  28.949  1.00  0.00     0.172 C 
HETATM    3  C   LIG     1      27.132  20.603  28.221  1.00  0.00     0.052 C 
HETATM    4  C   LIG     1      27.019  21.462  27.203  1.00  0.00    -0.006 C 
HETATM    5  C   LIG     1      25.704  22.162  26.869  1.00  0.00     0.036 C 
HETATM    6  C   LIG     1      25.746  23.532  27.586  1.00  0.00     0.028 C 
HETATM    7  C   LIG     1      24.490  21.386  27.434  1.00  0.00    -0.061 C 
HETATM    8  C   LIG     1      23.171  21.484  26.696  1.00  0.00     0.036 C 
HETATM    9  C   LIG     1      23.324  20.948  25.250  1.00  0.00     0.013 C 
HETATM   10  C   LIG     1      24.774  21.078  24.725  1.00  0.00     0.035 C 
HETATM   11  C   LIG     1      25.483  22.354  25.303  1.00  0.00     0.147 C 
HETATM   12  F   LIG     1      24.635  23.444  25.182  1.00  0.00    -0.238 F 
HETATM   13  C   LIG     1      26.732  22.701  24.441  1.00  0.00     0.160 C 
HETATM   14  C   LIG     1      26.298  23.082  22.986  1.00  0.00     0.048 C 
HETATM   15  C   LIG     1      25.156  22.172  22.360  1.00  0.00     0.002 C 
HETATM   16  C   LIG     1      23.825  23.002  22.336  1.00  0.00     0.019 C 
HETATM   17  C   LIG     1      24.995  20.896  23.193  1.00  0.00     0.005 C 
HETATM   18  C   LIG     1      24.092  19.971  22.382  1.00  0.00     0.013 C 
HETATM   19  C   LIG     1      24.491  20.249  20.910  1.00  0.00     0.026 C 
HETATM   20  C   LIG     1      23.248  20.305  19.995  1.00  0.00     0.013 C 
HETATM   21  C   LIG     1      25.405  21.556  20.918  1.00  0.00     0.144 C 
HETATM   22  C   LIG     1      24.618  20.514  28.443  1.00  0.00     0.058 C 
ENDROOT
BRANCH  21  23
HETATM   23  C   LIG     1      26.904  21.240  20.677  1.00  0.00     0.186 C 
HETATM   24  O   LIG     1      27.711  22.155  20.753  1.00  0.00    -0.292 OA
BRANCH  23  25
HETATM   25  C   LIG     1      27.449  19.898  20.260  1.00  0.00     0.245 C 
BRANCH  25  26
HETATM   26  O   LIG     1      27.834  19.953  18.916  1.00  0.00    -0.393 OA
HETATM   27  H   LIG     1      27.024  20.183  18.398  1.00  0.00     0.209 HD
ENDBRANCH  25  26
ENDBRANCH  23  25
ENDBRANCH  21  23
BRANCH  21  28
HETATM   28  O   LIG     1      24.969  22.489  19.912  1.00  0.00    -0.301 OA
BRANCH  28  29
HETATM   29  C   LIG     1      25.541  22.607  18.632  1.00  0.00     0.260 C 
HETATM   30  O   LIG     1      25.559  21.619  17.849  1.00  0.00    -0.265 OA
BRANCH  29  31
HETATM   31  C   LIG     1      26.150  23.920  18.224  1.00  0.00     0.111 C 
BRANCH  31  32
HETATM   32  C   LIG     1      26.066  24.982  19.331  1.00  0.00     0.009 C 
BRANCH  32  33
HETATM   33  C   LIG     1      27.371  25.775  19.440  1.00  0.00    -0.004 C 
HETATM   34  C   LIG     1      27.890  25.763  20.876  1.00  0.00     0.005 C 
ENDBRANCH  32  33
ENDBRANCH  31  32
ENDBRANCH  29  31
ENDBRANCH  28  29
ENDBRANCH  21  28
BRANCH  13  35
HETATM   35  O   LIG     1      27.636  21.625  24.399  1.00  0.00    -0.392 OA
HETATM   36  H   LIG     1      27.630  21.263  23.473  1.00  0.00     0.210 HD
ENDBRANCH  13  35
TORSDOF 9
ENDMDL
MODEL 2
REMARK VINA RESULT:      -4.3      7.060     10.368
REMARK  9 active torsions:
REMARK  status: ('A' for Active; 'I' for Inactive)
REMARK    1  A    between atoms: C_13  and  O_14 
REMARK    2  A    between atoms: C_22  and  C_30 
REMARK    3  A    between atoms: C_22  and  O_23 
REMARK    4  A    between atoms: O_23  and  C_24 
REMARK    5  A    between atoms: C_24  and  C_25 
REMARK    6  A    between atoms: C_25  and  C_26 
REMARK    7  A    between atoms: C_26  and  C_27 
REMARK    8  A    between atoms: C_30  and  C_31 
REMARK    9  A    between atoms: C_31  and  O_32 
ROOT
HETATM    1  O   LIG     1      25.944  31.797  35.593  1.00  0.00    -0.289 OA
HETATM    2  C   LIG     1      26.580  30.824  35.108  1.00  0.00     0.172 C 
HETATM    3  C   LIG     1      25.942  29.512  34.992  1.00  0.00     0.052 C 
HETATM    4  C   LIG     1      26.635  28.459  34.546  1.00  0.00    -0.006 C 
HETATM    5  C   LIG     1      28.143  28.512  34.319  1.00  0.00     0.036 C 
HETATM    6  C   LIG     1      28.797  27.972  35.615  1.00  0.00     0.028 C 
HETATM    7  C   LIG     1      28.636  29.966  34.130  1.00  0.00    -0.061 C 
HETATM    8  C   LIG     1      29.857  30.202  33.264  1.00  0.00     0.036 C 
HETATM    9  C   LIG     1      29.598  29.698  31.822  1.00  0.00     0.013 C 
HETATM   10  C   LIG     1      28.543  28.566  31.775  1.00  0.00     0.035 C 
HETATM   11  C   LIG     1      28.613  27.662  33.057  1.00  0.00     0.147 C 
HETATM   12  F   LIG     1      29.934  27.326  33.310  1.00  0.00    -0.238 F 
HETATM   13  C   LIG     1      27.885  26.311  32.792  1.00  0.00     0.160 C 
HETATM   14  C   LIG     1      28.621  25.509  31.668  1.00  0.00     0.048 C 
HETATM   15  C   LIG     1      29.118  26.374  30.432  1.00  0.00     0.002 C 
HETATM   16  C   LIG     1      30.677  26.517  30.527  1.00  0.00     0.019 C 
HETATM   17  C   LIG     1      28.436  27.747  30.453  1.00  0.00     0.005 C 
HETATM   18  C   LIG     1      28.750  28.397  29.109  1.00  0.00     0.013 C 
HETATM   19  C   LIG     1      28.749  27.213  28.108  1.00  0.00     0.026 C 
HETATM   20  C   LIG     1      29.903  27.341  27.090  1.00  0.00     0.013 C 
HETATM   21  C   LIG     1      28.734  25.875  28.975  1.00  0.00     0.144 C 
HETATM   22  C   LIG     1      27.926  31.015  34.566  1.00  0.00     0.058 C 
ENDROOT
BRANCH  21  23
HETATM   23  C   LIG     1      27.356  25.163  28.953  1.00  0.00     0.186 C 
HETATM   24  O   LIG     1      27.026  24.506  29.930  1.00  0.00    -0.292 OA
BRANCH  23  25
HETATM   25  C   LIG     1      26.415  25.137  27.777  1.00  0.00     0.245 C 
BRANCH  25  26
HETATM   26  O   LIG     1      25.607  23.996  27.857  1.00  0.00    -0.393 OA
HETATM   27  H   LIG     1      25.495  23.664  26.933  1.00  0.00     0.209 HD
ENDBRANCH  25  26
ENDBRANCH  23  25
ENDBRANCH  21  23
BRANCH  21  28
HETATM   28  O   LIG     1      29.731  24.950  28.502  1.00  0.00    -0.301 OA
BRANCH  28  29
HETATM   29  C   LIG     1      29.452  23.781  27.771  1.00  0.00     0.260 C 
HETATM   30  O   LIG     1      29.165  22.709  28.370  1.00  0.00    -0.265 OA
BRANCH  29  31
HETATM   31  C   LIG     1      29.524  23.826  26.270  1.00  0.00     0.111 C 
BRANCH  31  32
HETATM   32  C   LIG     1      28.381  23.051  25.597  1.00  0.00     0.009 C 
BRANCH  32  33
HETATM   33  C   LIG     1      27.829  23.812  24.390  1.00  0.00    -0.004 C 
HETATM   34  C   LIG     1      27.902  25.320  24.623  1.00  0.00     0.005 C 
ENDBRANCH  32  33
ENDBRANCH  31  32
ENDBRANCH  29  31
ENDBRANCH  28  29
ENDBRANCH  21  28
BRANCH  13  35
HETATM   35  O   LIG     1      26.544  26.521  32.423  1.00  0.00    -0.392 OA
HETATM   36  H   LIG     1      26.399  27.503  32.364  1.00  0.00     0.210 HD
ENDBRANCH  13  35
TORSDOF 9
ENDMDL
MODEL 3
REMARK VINA RESULT:      -4.0      2.452      3.929
REMARK  9 active torsions:
REMARK  status: ('A' for Active; 'I' for Inactive)
REMARK    1  A    between atoms: C_13  and  O_14 
REMARK    2  A    between atoms: C_22  and  C_30 
REMARK    3  A    between atoms: C_22  and  O_23 
REMARK    4  A    between atoms: O_23  and  C_24 
REMARK    5  A    between atoms: C_24  and  C_25 
REMARK    6  A    between atoms: C_25  and  C_26 
REMARK    7  A    between atoms: C_26  and  C_27 
REMARK    8  A    between atoms: C_30  and  C_31 
REMARK    9  A    between atoms: C_31  and  O_32 
ROOT
HETATM    1  O   LIG     1      19.539  20.199  28.388  1.00  0.00    -0.289 OA
HETATM    2  C   LIG     1      20.519  19.966  27.631  1.00  0.00     0.172 C 
HETATM    3  C   LIG     1      20.374  19.048  26.501  1.00  0.00     0.052 C 
HETATM    4  C   LIG     1      21.429  18.740  25.739  1.00  0.00    -0.006 C 
HETATM    5  C   LIG     1      22.849  19.161  26.104  1.00  0.00     0.036 C 
HETATM    6  C   LIG     1      23.474  17.969  26.867  1.00  0.00     0.028 C 
HETATM    7  C   LIG     1      22.851  20.373  27.067  1.00  0.00    -0.061 C 
HETATM    8  C   LIG     1      24.024  21.330  27.013  1.00  0.00     0.036 C 
HETATM    9  C   LIG     1      24.134  21.965  25.604  1.00  0.00     0.013 C 
HETATM   10  C   LIG     1      23.531  21.060  24.502  1.00  0.00     0.035 C 
HETATM   11  C   LIG     1      23.732  19.539  24.833  1.00  0.00     0.147 C 
HETATM   12  F   LIG     1      25.046  19.325  25.221  1.00  0.00    -0.238 F 
HETATM   13  C   LIG     1      23.535  18.687  23.545  1.00  0.00     0.160 C 
HETATM   14  C   LIG     1      24.634  19.038  22.487  1.00  0.00     0.048 C 
HETATM   15  C   LIG     1      24.968  20.585  22.347  1.00  0.00     0.002 C 
HETATM   16  C   LIG     1      26.365  20.848  23.010  1.00  0.00     0.019 C 
HETATM   17  C   LIG     1      23.872  21.415  23.023  1.00  0.00     0.005 C 
HETATM   18  C   LIG     1      24.121  22.863  22.610  1.00  0.00     0.013 C 
HETATM   19  C   LIG     1      24.642  22.755  21.154  1.00  0.00     0.026 C 
HETATM   20  C   LIG     1      25.808  23.736  20.903  1.00  0.00     0.013 C 
HETATM   21  C   LIG     1      24.962  21.215  20.890  1.00  0.00     0.144 C 
HETATM   22  C   LIG     1      21.782  20.682  27.814  1.00  0.00     0.058 C 
ENDROOT
BRANCH  21  23
HETATM   23  C   LIG     1      23.914  20.535  19.971  1.00  0.00     0.186 C 
HETATM   24  O   LIG     1      23.962  19.321  19.834  1.00  0.00    -0.292 OA
BRANCH  23  25
HETATM   25  C   LIG     1      22.883  21.263  19.148  1.00  0.00     0.245 C 
BRANCH  25  26
HETATM   26  O   LIG     1      22.809  20.680  17.878  1.00  0.00    -0.393 OA
HETATM   27  H   LIG     1      22.798  19.701  18.016  1.00  0.00     0.209 HD
ENDBRANCH  25  26
ENDBRANCH  23  25
ENDBRANCH  21  23
BRANCH  21  28
HETATM   28  O   LIG     1      26.261  21.061  20.290  1.00  0.00    -0.301 OA
BRANCH  28  29
HETATM   29  C   LIG     1      26.487  20.860  18.916  1.00  0.00     0.260 C 
HETATM   30  O   LIG     1      26.806  19.721  18.482  1.00  0.00    -0.265 OA
BRANCH  29  31
HETATM   31  C   LIG     1      26.364  22.031  17.980  1.00  0.00     0.111 C 
BRANCH  31  32
HETATM   32  C   LIG     1      27.656  22.855  17.886  1.00  0.00     0.009 C 
BRANCH  32  33
HETATM   33  C   LIG     1      27.362  24.309  17.505  1.00  0.00    -0.004 C 
HETATM   34  C   LIG     1      28.114  25.270  18.423  1.00  0.00     0.005 C 
ENDBRANCH  32  33
ENDBRANCH  31  32
ENDBRANCH  29  31
ENDBRANCH  28  29
ENDBRANCH  21  28
BRANCH  13  35
HETATM   35  O   LIG     1      22.260  18.894  22.990  1.00  0.00    -0.392 OA
HETATM   36  H   LIG     1      21.595  18.798  23.722  1.00  0.00     0.210 HD
ENDBRANCH  13  35
TORSDOF 9
ENDMDL
MODEL 4
REMARK VINA RESULT:      -3.9      2.652      4.345
REMARK  9 active torsions:
REMARK  status: ('A' for Active; 'I' for Inactive)
REMARK    1  A    between atoms: C_13  and  O_14 
REMARK    2  A    between atoms: C_22  and  C_30 
REMARK    3  A    between atoms: C_22  and  O_23 
REMARK    4  A    between atoms: O_23  and  C_24 
REMARK    5  A    between atoms: C_24  and  C_25 
REMARK    6  A    between atoms: C_25  and  C_26 
REMARK    7  A    between atoms: C_26  and  C_27 
REMARK    8  A    between atoms: C_30  and  C_31 
REMARK    9  A    between atoms: C_31  and  O_32 
ROOT
HETATM    1  O   LIG     1      20.808  21.165  28.282  1.00  0.00    -0.289 OA
HETATM    2  C   LIG     1      21.668  20.851  27.417  1.00  0.00     0.172 C 
HETATM    3  C   LIG     1      21.415  19.742  26.495  1.00  0.00     0.052 C 
HETATM    4  C   LIG     1      22.355  19.358  25.625  1.00  0.00    -0.006 C 
HETATM    5  C   LIG     1      23.778  19.905  25.666  1.00  0.00     0.036 C 
HETATM    6  C   LIG     1      24.608  18.897  26.497  1.00  0.00     0.028 C 
HETATM    7  C   LIG     1      23.840  21.265  26.401  1.00  0.00    -0.061 C 
HETATM    8  C   LIG     1      24.912  22.254  25.990  1.00  0.00     0.036 C 
HETATM    9  C   LIG     1      24.744  22.637  24.497  1.00  0.00     0.013 C 
HETATM   10  C   LIG     1      24.044  21.524  23.680  1.00  0.00     0.035 C 
HETATM   11  C   LIG     1      24.413  20.096  24.217  1.00  0.00     0.147 C 
HETATM   12  F   LIG     1      25.785  20.018  24.404  1.00  0.00    -0.238 F 
HETATM   13  C   LIG     1      24.078  19.022  23.141  1.00  0.00     0.160 C 
HETATM   14  C   LIG     1      24.962  19.236  21.867  1.00  0.00     0.048 C 
HETATM   15  C   LIG     1      25.148  20.748  21.418  1.00  0.00     0.002 C 
HETATM   16  C   LIG     1      26.609  21.192  21.778  1.00  0.00     0.019 C 
HETATM   17  C   LIG     1      24.114  21.630  22.126  1.00  0.00     0.005 C 
HETATM   18  C   LIG     1      24.180  22.993  21.443  1.00  0.00     0.013 C 
HETATM   19  C   LIG     1      24.467  22.657  19.957  1.00  0.00     0.026 C 
HETATM   20  C   LIG     1      25.498  23.634  19.352  1.00  0.00     0.013 C 
HETATM   21  C   LIG     1      24.859  21.112  19.900  1.00  0.00     0.144 C 
HETATM   22  C   LIG     1      22.885  21.648  27.259  1.00  0.00     0.058 C 
ENDROOT
BRANCH  21  23
HETATM   23  C   LIG     1      23.733  20.231  19.300  1.00  0.00     0.186 C 
HETATM   24  O   LIG     1      23.600  19.090  19.721  1.00  0.00    -0.292 OA
BRANCH  23  25
HETATM   25  C   LIG     1      22.833  20.634  18.161  1.00  0.00     0.245 C 
BRANCH  25  26
HETATM   26  O   LIG     1      22.660  19.544  17.300  1.00  0.00    -0.393 OA
HETATM   27  H   LIG     1      21.772  19.160  17.505  1.00  0.00     0.209 HD
ENDBRANCH  25  26
ENDBRANCH  23  25
ENDBRANCH  21  23
BRANCH  21  28
HETATM   28  O   LIG     1      26.053  20.918  19.120  1.00  0.00    -0.301 OA
BRANCH  28  29
HETATM   29  C   LIG     1      26.344  19.756  18.383  1.00  0.00     0.260 C 
HETATM   30  O   LIG     1      26.731  18.710  18.970  1.00  0.00    -0.265 OA
BRANCH  29  31
HETATM   31  C   LIG     1      26.209  19.790  16.885  1.00  0.00     0.111 C 
BRANCH  31  32
HETATM   32  C   LIG     1      27.500  19.380  16.163  1.00  0.00     0.009 C 
BRANCH  32  33
HETATM   33  C   LIG     1      27.652  20.122  14.833  1.00  0.00    -0.004 C 
HETATM   34  C   LIG     1      26.548  19.716  13.859  1.00  0.00     0.005 C 
ENDBRANCH  32  33
ENDBRANCH  31  32
ENDBRANCH  29  31
ENDBRANCH  28  29
ENDBRANCH  21  28
BRANCH  13  35
HETATM   35  O   LIG     1      22.718  19.067  22.787  1.00  0.00    -0.392 OA
HETATM   36  H   LIG     1      22.517  19.992  22.484  1.00  0.00     0.210 HD
ENDBRANCH  13  35
TORSDOF 9
ENDMDL
MODEL 5
REMARK VINA RESULT:      -3.2      2.143      3.474
REMARK  9 active torsions:
REMARK  status: ('A' for Active; 'I' for Inactive)
REMARK    1  A    between atoms: C_13  and  O_14 
REMARK    2  A    between atoms: C_22  and  C_30 
REMARK    3  A    between atoms: C_22  and  O_23 
REMARK    4  A    between atoms: O_23  and  C_24 
REMARK    5  A    between atoms: C_24  and  C_25 
REMARK    6  A    between atoms: C_25  and  C_26 
REMARK    7  A    between atoms: C_26  and  C_27 
REMARK    8  A    between atoms: C_30  and  C_31 
REMARK    9  A    between atoms: C_31  and  O_32 
ROOT
HETATM    1  O   LIG     1      27.331  22.670  29.726  1.00  0.00    -0.289 OA
HETATM    2  C   LIG     1      26.616  22.395  28.726  1.00  0.00     0.172 C 
HETATM    3  C   LIG     1      26.250  23.443  27.772  1.00  0.00     0.052 C 
HETATM    4  C   LIG     1      25.432  23.173  26.750  1.00  0.00    -0.006 C 
HETATM    5  C   LIG     1      24.694  21.843  26.625  1.00  0.00     0.036 C 
HETATM    6  C   LIG     1      23.296  22.061  27.253  1.00  0.00     0.028 C 
HETATM    7  C   LIG     1      25.394  20.729  27.441  1.00  0.00    -0.061 C 
HETATM    8  C   LIG     1      25.273  19.300  26.952  1.00  0.00     0.036 C 
HETATM    9  C   LIG     1      25.878  19.167  25.531  1.00  0.00     0.013 C 
HETATM   10  C   LIG     1      25.831  20.499  24.744  1.00  0.00     0.035 C 
HETATM   11  C   LIG     1      24.562  21.344  25.118  1.00  0.00     0.147 C 
HETATM   12  F   LIG     1      23.444  20.524  25.099  1.00  0.00    -0.238 F 
HETATM   13  C   LIG     1      24.304  22.424  24.026  1.00  0.00     0.160 C 
HETATM   14  C   LIG     1      23.971  21.743  22.657  1.00  0.00     0.048 C 
HETATM   15  C   LIG     1      24.859  20.476  22.297  1.00  0.00     0.002 C 
HETATM   16  C   LIG     1      23.977  19.191  22.474  1.00  0.00     0.019 C 
HETATM   17  C   LIG     1      26.089  20.429  23.209  1.00  0.00     0.005 C 
HETATM   18  C   LIG     1      27.011  19.362  22.624  1.00  0.00     0.013 C 
HETATM   19  C   LIG     1      26.814  19.493  21.092  1.00  0.00     0.026 C 
HETATM   20  C   LIG     1      26.748  18.105  20.417  1.00  0.00     0.013 C 
HETATM   21  C   LIG     1      25.547  20.435  20.867  1.00  0.00     0.144 C 
HETATM   22  C   LIG     1      26.225  21.012  28.453  1.00  0.00     0.058 C 
ENDROOT
BRANCH  21  23
HETATM   23  C   LIG     1      25.936  21.852  20.373  1.00  0.00     0.186 C 
HETATM   24  O   LIG     1      25.230  22.796  20.700  1.00  0.00    -0.292 OA
BRANCH  23  25
HETATM   25  C   LIG     1      27.073  22.160  19.435  1.00  0.00     0.245 C 
BRANCH  25  26
HETATM   26  O   LIG     1      26.637  23.064  18.459  1.00  0.00    -0.393 OA
HETATM   27  H   LIG     1      26.852  22.661  17.583  1.00  0.00     0.209 HD
ENDBRANCH  25  26
ENDBRANCH  23  25
ENDBRANCH  21  23
BRANCH  21  28
HETATM   28  O   LIG     1      24.643  19.852  19.911  1.00  0.00    -0.301 OA
BRANCH  28  29
HETATM   29  C   LIG     1      23.846  20.588  19.015  1.00  0.00     0.260 C 
HETATM   30  O   LIG     1      22.822  21.198  19.426  1.00  0.00    -0.265 OA
BRANCH  29  31
HETATM   31  C   LIG     1      24.222  20.616  17.559  1.00  0.00     0.111 C 
BRANCH  31  32
HETATM   32  C   LIG     1      25.442  19.737  17.245  1.00  0.00     0.009 C 
BRANCH  32  33
HETATM   33  C   LIG     1      25.027  18.445  16.535  1.00  0.00    -0.004 C 
HETATM   34  C   LIG     1      24.847  18.686  15.038  1.00  0.00     0.005 C 
ENDBRANCH  32  33
ENDBRANCH  31  32
ENDBRANCH  29  31
ENDBRANCH  28  29
ENDBRANCH  21  28
BRANCH  13  35
HETATM   35  O   LIG     1      25.418  23.269  23.876  1.00  0.00    -0.392 OA
HETATM   36  H   LIG     1      25.247  23.853  23.090  1.00  0.00     0.210 HD
ENDBRANCH  13  35
TORSDOF 9
ENDMDL
MODEL 6
REMARK VINA RESULT:      -2.9      1.984      3.780
REMARK  9 active torsions:
REMARK  status: ('A' for Active; 'I' for Inactive)
REMARK    1  A    between atoms: C_13  and  O_14 
REMARK    2  A    between atoms: C_22  and  C_30 
REMARK    3  A    between atoms: C_22  and  O_23 
REMARK    4  A    between atoms: O_23  and  C_24 
REMARK    5  A    between atoms: C_24  and  C_25 
REMARK    6  A    between atoms: C_25  and  C_26 
REMARK    7  A    between atoms: C_26  and  C_27 
REMARK    8  A    between atoms: C_30  and  C_31 
REMARK    9  A    between atoms: C_31  and  O_32 
ROOT
HETATM    1  O   LIG     1      27.985  21.810  30.364  1.00  0.00    -0.289 OA
HETATM    2  C   LIG     1      27.418  21.586  29.262  1.00  0.00     0.172 C 
HETATM    3  C   LIG     1      26.581  22.613  28.642  1.00  0.00     0.052 C 
HETATM    4  C   LIG     1      25.919  22.355  27.509  1.00  0.00    -0.006 C 
HETATM    5  C   LIG     1      25.841  20.953  26.911  1.00  0.00     0.036 C 
HETATM    6  C   LIG     1      24.523  20.332  27.432  1.00  0.00     0.028 C 
HETATM    7  C   LIG     1      26.999  20.058  27.414  1.00  0.00    -0.061 C 
HETATM    8  C   LIG     1      27.500  18.956  26.504  1.00  0.00     0.036 C 
HETATM    9  C   LIG     1      28.033  19.556  25.178  1.00  0.00     0.013 C 
HETATM   10  C   LIG     1      27.364  20.909  24.834  1.00  0.00     0.035 C 
HETATM   11  C   LIG     1      25.871  20.953  25.319  1.00  0.00     0.147 C 
HETATM   12  F   LIG     1      25.232  19.783  24.939  1.00  0.00    -0.238 F 
HETATM   13  C   LIG     1      25.111  22.098  24.588  1.00  0.00     0.160 C 
HETATM   14  C   LIG     1      25.048  21.813  23.050  1.00  0.00     0.048 C 
HETATM   15  C   LIG     1      26.386  21.244  22.412  1.00  0.00     0.002 C 
HETATM   16  C   LIG     1      26.173  19.722  22.100  1.00  0.00     0.019 C 
HETATM   17  C   LIG     1      27.553  21.449  23.384  1.00  0.00     0.005 C 
HETATM   18  C   LIG     1      28.822  21.134  22.598  1.00  0.00     0.013 C 
HETATM   19  C   LIG     1      28.515  21.645  21.167  1.00  0.00     0.026 C 
HETATM   20  C   LIG     1      29.037  20.660  20.098  1.00  0.00     0.013 C 
HETATM   21  C   LIG     1      26.953  21.961  21.114  1.00  0.00     0.144 C 
HETATM   22  C   LIG     1      27.667  20.336  28.542  1.00  0.00     0.058 C 
ENDROOT
BRANCH  21  23
HETATM   23  C   LIG     1      26.650  23.482  21.117  1.00  0.00     0.186 C 
HETATM   24  O   LIG     1      25.488  23.844  20.999  1.00  0.00    -0.292 OA
BRANCH  23  25
HETATM   25  C   LIG     1      27.690  24.572  21.161  1.00  0.00     0.245 C 
BRANCH  25  26
HETATM   26  O   LIG     1      27.277  25.638  20.354  1.00  0.00    -0.393 OA
HETATM   27  H   LIG     1      28.019  25.822  19.727  1.00  0.00     0.209 HD
ENDBRANCH  25  26
ENDBRANCH  23  25
ENDBRANCH  21  23
BRANCH  21  28
HETATM   28  O   LIG     1      26.354  21.381  19.940  1.00  0.00    -0.301 OA
BRANCH  28  29
HETATM   29  C   LIG     1      26.118  22.074  18.739  1.00  0.00     0.260 C 
HETATM   30  O   LIG     1      27.044  22.729  18.188  1.00  0.00    -0.265 OA
BRANCH  29  31
HETATM   31  C   LIG     1      24.740  22.040  18.137  1.00  0.00     0.111 C 
BRANCH  31  32
HETATM   32  C   LIG     1      24.160  20.620  18.063  1.00  0.00     0.009 C 
BRANCH  32  33
HETATM   33  C   LIG     1      22.636  20.650  17.920  1.00  0.00    -0.004 C 
HETATM   34  C   LIG     1      22.144  19.435  17.136  1.00  0.00     0.005 C 
ENDBRANCH  32  33
ENDBRANCH  31  32
ENDBRANCH  29  31
ENDBRANCH  28  29
ENDBRANCH  21  28
BRANCH  13  35
HETATM   35  O   LIG     1      25.727  23.342  24.814  1.00  0.00    -0.392 OA
HETATM   36  H   LIG     1      25.278  24.010  24.231  1.00  0.00     0.210 HD
ENDBRANCH  13  35
TORSDOF 9
ENDMDL
MODEL 7
REMARK VINA RESULT:      -2.6     11.403     13.488
REMARK  9 active torsions:
REMARK  status: ('A' for Active; 'I' for Inactive)
REMARK    1  A    between atoms: C_13  and  O_14 
REMARK    2  A    between atoms: C_22  and  C_30 
REMARK    3  A    between atoms: C_22  and  O_23 
REMARK    4  A    between atoms: O_23  and  C_24 
REMARK    5  A    between atoms: C_24  and  C_25 
REMARK    6  A    between atoms: C_25  and  C_26 
REMARK    7  A    between atoms: C_26  and  C_27 
REMARK    8  A    between atoms: C_30  and  C_31 
REMARK    9  A    between atoms: C_31  and  O_32 
ROOT
HETATM    1  O   LIG     1      17.558  18.893  35.866  1.00  0.00    -0.289 OA
HETATM    2  C   LIG     1      18.643  19.503  35.672  1.00  0.00     0.172 C 
HETATM    3  C   LIG     1      19.310  20.189  36.780  1.00  0.00     0.052 C 
HETATM    4  C   LIG     1      20.422  20.899  36.566  1.00  0.00    -0.006 C 
HETATM    5  C   LIG     1      20.945  21.192  35.162  1.00  0.00     0.036 C 
HETATM    6  C   LIG     1      20.383  22.579  34.770  1.00  0.00     0.028 C 
HETATM    7  C   LIG     1      20.405  20.171  34.133  1.00  0.00    -0.061 C 
HETATM    8  C   LIG     1      21.261  19.851  32.924  1.00  0.00     0.036 C 
HETATM    9  C   LIG     1      22.621  19.257  33.371  1.00  0.00     0.013 C 
HETATM   10  C   LIG     1      23.029  19.724  34.789  1.00  0.00     0.035 C 
HETATM   11  C   LIG     1      22.536  21.186  35.077  1.00  0.00     0.147 C 
HETATM   12  F   LIG     1      22.850  21.997  33.997  1.00  0.00    -0.238 F 
HETATM   13  C   LIG     1      23.320  21.781  36.284  1.00  0.00     0.160 C 
HETATM   14  C   LIG     1      24.840  21.908  35.935  1.00  0.00     0.048 C 
HETATM   15  C   LIG     1      25.458  20.678  35.142  1.00  0.00     0.002 C 
HETATM   16  C   LIG     1      25.689  21.118  33.654  1.00  0.00     0.019 C 
HETATM   17  C   LIG     1      24.506  19.480  35.221  1.00  0.00     0.005 C 
HETATM   18  C   LIG     1      25.285  18.283  34.683  1.00  0.00     0.013 C 
HETATM   19  C   LIG     1      26.739  18.533  35.161  1.00  0.00     0.026 C 
HETATM   20  C   LIG     1      27.759  18.178  34.057  1.00  0.00     0.013 C 
HETATM   21  C   LIG     1      26.796  20.032  35.701  1.00  0.00     0.144 C 
HETATM   22  C   LIG     1      19.299  19.452  34.364  1.00  0.00     0.058 C 
ENDROOT
BRANCH  21  23
HETATM   23  C   LIG     1      26.869  20.108  37.249  1.00  0.00     0.186 C 
HETATM   24  O   LIG     1      26.373  21.075  37.808  1.00  0.00    -0.292 OA
BRANCH  23  25
HETATM   25  C   LIG     1      27.593  19.122  38.129  1.00  0.00     0.245 C 
BRANCH  25  26
HETATM   26  O   LIG     1      28.924  19.016  37.709  1.00  0.00    -0.393 OA
HETATM   27  H   LIG     1      29.375  19.852  37.981  1.00  0.00     0.209 HD
ENDBRANCH  25  26
ENDBRANCH  23  25
ENDBRANCH  21  23
BRANCH  21  28
HETATM   28  O   LIG     1      27.933  20.727  35.158  1.00  0.00    -0.301 OA
BRANCH  28  29
HETATM   29  C   LIG     1      28.543  21.847  35.752  1.00  0.00     0.260 C 
HETATM   30  O   LIG     1      29.442  21.696  36.622  1.00  0.00    -0.265 OA
BRANCH  29  31
HETATM   31  C   LIG     1      28.090  23.223  35.348  1.00  0.00     0.111 C 
BRANCH  31  32
HETATM   32  C   LIG     1      27.744  24.112  36.552  1.00  0.00     0.009 C 
BRANCH  32  33
HETATM   33  C   LIG     1      27.210  25.474  36.102  1.00  0.00    -0.004 C 
HETATM   34  C   LIG     1      26.536  25.364  34.736  1.00  0.00     0.005 C 
ENDBRANCH  32  33
ENDBRANCH  31  32
ENDBRANCH  29  31
ENDBRANCH  28  29
ENDBRANCH  21  28
BRANCH  13  35
HETATM   35  O   LIG     1      23.163  20.984  37.433  1.00  0.00    -0.392 OA
HETATM   36  H   LIG     1      23.277  20.036  37.158  1.00  0.00     0.210 HD
ENDBRANCH  13  35
TORSDOF 9
ENDMDL
MODEL 8
REMARK VINA RESULT:      -2.4      2.412      4.142
REMARK  9 active torsions:
REMARK  status: ('A' for Active; 'I' for Inactive)
REMARK    1  A    between atoms: C_13  and  O_14 
REMARK    2  A    between atoms: C_22  and  C_30 
REMARK    3  A    between atoms: C_22  and  O_23 
REMARK    4  A    between atoms: O_23  and  C_24 
REMARK    5  A    between atoms: C_24  and  C_25 
REMARK    6  A    between atoms: C_25  and  C_26 
REMARK    7  A    between atoms: C_26  and  C_27 
REMARK    8  A    between atoms: C_30  and  C_31 
REMARK    9  A    between atoms: C_31  and  O_32 
ROOT
HETATM    1  O   LIG     1      29.623  20.533  32.145  1.00  0.00    -0.289 OA
HETATM    2  C   LIG     1      28.654  20.483  31.342  1.00  0.00     0.172 C 
HETATM    3  C   LIG     1      27.972  21.712  30.935  1.00  0.00     0.052 C 
HETATM    4  C   LIG     1      26.898  21.659  30.141  1.00  0.00    -0.006 C 
HETATM    5  C   LIG     1      26.216  20.343  29.777  1.00  0.00     0.036 C 
HETATM    6  C   LIG     1      25.063  20.155  30.792  1.00  0.00     0.028 C 
HETATM    7  C   LIG     1      27.177  19.142  29.949  1.00  0.00    -0.061 C 
HETATM    8  C   LIG     1      26.980  17.933  29.058  1.00  0.00     0.036 C 
HETATM    9  C   LIG     1      27.135  18.333  27.568  1.00  0.00     0.013 C 
HETATM   10  C   LIG     1      26.795  19.823  27.321  1.00  0.00     0.035 C 
HETATM   11  C   LIG     1      25.660  20.321  28.285  1.00  0.00     0.147 C 
HETATM   12  F   LIG     1      24.626  19.398  28.291  1.00  0.00    -0.238 F 
HETATM   13  C   LIG     1      25.038  21.638  27.733  1.00  0.00     0.160 C 
HETATM   14  C   LIG     1      24.340  21.375  26.358  1.00  0.00     0.048 C 
HETATM   15  C   LIG     1      25.134  20.420  25.367  1.00  0.00     0.002 C 
HETATM   16  C   LIG     1      24.404  19.033  25.330  1.00  0.00     0.019 C 
HETATM   17  C   LIG     1      26.583  20.269  25.843  1.00  0.00     0.005 C 
HETATM   18  C   LIG     1      27.332  19.577  24.708  1.00  0.00     0.013 C 
HETATM   19  C   LIG     1      26.679  20.147  23.423  1.00  0.00     0.026 C 
HETATM   20  C   LIG     1      26.475  19.042  22.363  1.00  0.00     0.013 C 
HETATM   21  C   LIG     1      25.362  20.922  23.878  1.00  0.00     0.144 C 
HETATM   22  C   LIG     1      28.261  19.211  30.734  1.00  0.00     0.058 C 
ENDROOT
BRANCH  21  23
HETATM   23  C   LIG     1      25.521  22.464  23.807  1.00  0.00     0.186 C 
HETATM   24  O   LIG     1      24.514  23.155  23.854  1.00  0.00    -0.292 OA
BRANCH  23  25
HETATM   25  C   LIG     1      26.823  23.190  23.589  1.00  0.00     0.245 C 
BRANCH  25  26
HETATM   26  O   LIG     1      27.348  23.581  24.826  1.00  0.00    -0.393 OA
HETATM   27  H   LIG     1      26.670  23.350  25.507  1.00  0.00     0.209 HD
ENDBRANCH  25  26
ENDBRANCH  23  25
ENDBRANCH  21  23
BRANCH  21  28
HETATM   28  O   LIG     1      24.239  20.543  23.062  1.00  0.00    -0.301 OA
BRANCH  28  29
HETATM   29  C   LIG     1      23.755  21.291  21.973  1.00  0.00     0.260 C 
HETATM   30  O   LIG     1      22.601  21.796  22.010  1.00  0.00    -0.265 OA
BRANCH  29  31
HETATM   31  C   LIG     1      24.626  21.457  20.758  1.00  0.00     0.111 C 
BRANCH  31  32
HETATM   32  C   LIG     1      24.620  22.893  20.215  1.00  0.00     0.009 C 
BRANCH  32  33
HETATM   33  C   LIG     1      26.042  23.386  19.932  1.00  0.00    -0.004 C 
HETATM   34  C   LIG     1      26.082  24.202  18.641  1.00  0.00     0.005 C 
ENDBRANCH  32  33
ENDBRANCH  31  32
ENDBRANCH  29  31
ENDBRANCH  28  29
ENDBRANCH  21  28
BRANCH  13  35
HETATM   35  O   LIG     1      26.017  22.637  27.584  1.00  0.00    -0.392 OA
HETATM   36  H   LIG     1      26.645  22.338  26.874  1.00  0.00     0.210 HD
ENDBRANCH  13  35
TORSDOF 9
ENDMDL
MODEL 9
REMARK VINA RESULT:      -2.1      2.725      5.021
REMARK  9 active torsions:
REMARK  status: ('A' for Active; 'I' for Inactive)
REMARK    1  A    between atoms: C_13  and  O_14 
REMARK    2  A    between atoms: C_22  and  C_30 
REMARK    3  A    between atoms: C_22  and  O_23 
REMARK    4  A    between atoms: O_23  and  C_24 
REMARK    5  A    between atoms: C_24  and  C_25 
REMARK    6  A    between atoms: C_25  and  C_26 
REMARK    7  A    between atoms: C_26  and  C_27 
REMARK    8  A    between atoms: C_30  and  C_31 
REMARK    9  A    between atoms: C_31  and  O_32 
ROOT
HETATM    1  O   LIG     1      29.733  19.127  33.029  1.00  0.00    -0.289 OA
HETATM    2  C   LIG     1      28.837  19.493  32.222  1.00  0.00     0.172 C 
HETATM    3  C   LIG     1      28.586  20.918  31.998  1.00  0.00     0.052 C 
HETATM    4  C   LIG     1      27.588  21.312  31.199  1.00  0.00    -0.006 C 
HETATM    5  C   LIG     1      26.555  20.336  30.642  1.00  0.00     0.036 C 
HETATM    6  C   LIG     1      25.351  20.377  31.612  1.00  0.00     0.028 C 
HETATM    7  C   LIG     1      27.092  18.885  30.639  1.00  0.00    -0.061 C 
HETATM    8  C   LIG     1      26.579  17.933  29.577  1.00  0.00     0.036 C 
HETATM    9  C   LIG     1      26.924  18.469  28.164  1.00  0.00     0.013 C 
HETATM   10  C   LIG     1      27.070  20.009  28.139  1.00  0.00     0.035 C 
HETATM   11  C   LIG     1      26.096  20.697  29.160  1.00  0.00     0.147 C 
HETATM   12  F   LIG     1      24.829  20.149  29.024  1.00  0.00    -0.238 F 
HETATM   13  C   LIG     1      25.936  22.205  28.806  1.00  0.00     0.160 C 
HETATM   14  C   LIG     1      25.261  22.365  27.404  1.00  0.00     0.048 C 
HETATM   15  C   LIG     1      25.773  21.359  26.286  1.00  0.00     0.002 C 
HETATM   16  C   LIG     1      24.656  20.286  26.041  1.00  0.00     0.019 C 
HETATM   17  C   LIG     1      27.080  20.701  26.742  1.00  0.00     0.005 C 
HETATM   18  C   LIG     1      27.638  19.975  25.521  1.00  0.00     0.013 C 
HETATM   19  C   LIG     1      27.256  20.893  24.331  1.00  0.00     0.026 C 
HETATM   20  C   LIG     1      26.777  20.065  23.118  1.00  0.00     0.013 C 
HETATM   21  C   LIG     1      26.219  21.968  24.889  1.00  0.00     0.144 C 
HETATM   22  C   LIG     1      28.104  18.504  31.430  1.00  0.00     0.058 C 
ENDROOT
BRANCH  21  23
HETATM   23  C   LIG     1      26.846  23.377  25.048  1.00  0.00     0.186 C 
HETATM   24  O   LIG     1      26.101  24.327  25.243  1.00  0.00    -0.292 OA
BRANCH  23  25
HETATM   25  C   LIG     1      28.310  23.696  24.888  1.00  0.00     0.245 C 
BRANCH  25  26
HETATM   26  O   LIG     1      28.597  24.896  25.549  1.00  0.00    -0.393 OA
HETATM   27  H   LIG     1      28.920  25.528  24.861  1.00  0.00     0.209 HD
ENDBRANCH  25  26
ENDBRANCH  23  25
ENDBRANCH  21  23
BRANCH  21  28
HETATM   28  O   LIG     1      25.076  22.073  24.020  1.00  0.00    -0.301 OA
BRANCH  28  29
HETATM   29  C   LIG     1      25.084  22.710  22.766  1.00  0.00     0.260 C 
HETATM   30  O   LIG     1      26.173  22.937  22.173  1.00  0.00    -0.265 OA
BRANCH  29  31
HETATM   31  C   LIG     1      23.776  23.132  22.156  1.00  0.00     0.111 C 
BRANCH  31  32
HETATM   32  C   LIG     1      23.129  22.025  21.312  1.00  0.00     0.009 C 
BRANCH  32  33
HETATM   33  C   LIG     1      22.677  20.852  22.186  1.00  0.00    -0.004 C 
HETATM   34  C   LIG     1      23.364  19.559  21.750  1.00  0.00     0.005 C 
ENDBRANCH  32  33
ENDBRANCH  31  32
ENDBRANCH  29  31
ENDBRANCH  28  29
ENDBRANCH  21  28
BRANCH  13  35
HETATM   35  O   LIG     1      27.180  22.861  28.811  1.00  0.00    -0.392 OA
HETATM   36  H   LIG     1      27.042  23.767  28.426  1.00  0.00     0.210 HD
ENDBRANCH  13  35
TORSDOF 9
ENDMDL
