MODEL 1
REMARK VINA RESULT:      -7.5      0.000      0.000
REMARK  1 active torsions:
REMARK  status: ('A' for Active; 'I' for Inactive)
REMARK       I    between atoms: C_2  and  N_3 
REMARK       I    between atoms: C_2  and  N_12 
REMARK    1  A    between atoms: N_3  and  C_4 
ROOT
HETATM    1  C   LIG     1      17.582  36.694  22.477  1.00  0.00     0.086 C 
HETATM    2  C   LIG     1      17.717  35.816  21.180  1.00  0.00     0.025 C 
HETATM    3  C   LIG     1      18.318  36.692  20.079  1.00  0.00     0.002 C 
HETATM    4  C   LIG     1      18.915  37.561  18.985  1.00  0.00     0.000 C 
HETATM    5  C   LIG     1      18.778  39.056  19.431  1.00  0.00     0.000 C 
HETATM    6  C   LIG     1      19.134  39.334  20.930  1.00  0.00     0.000 C 
HETATM    7  C   LIG     1      17.983  39.324  21.996  1.00  0.00     0.002 C 
HETATM    8  C   LIG     1      16.992  38.129  22.227  1.00  0.00     0.025 C 
ENDROOT
BRANCH   1   9
HETATM    9  N   LIG     1      16.740  35.977  23.439  1.00  0.00    -0.338 N 
HETATM   10  C   LIG     1      17.124  35.787  24.808  1.00  0.00     0.317 C 
HETATM   11  O   LIG     1      16.879  34.683  25.365  1.00  0.00    -0.247 OA
HETATM   12  N   LIG     1      17.772  36.833  25.556  1.00  0.00    -0.343 N 
HETATM   13  C   LIG     1      17.357  38.231  25.414  1.00  0.00     0.154 C 
HETATM   14  C   LIG     1      18.772  36.481  26.562  1.00  0.00     0.154 C 
HETATM   15  H   LIG     1      15.997  35.349  23.055  1.00  0.00     0.164 HD
ENDBRANCH   1   9
TORSDOF 1
ENDMDL
MODEL 2
REMARK VINA RESULT:      -7.3      2.766      5.619
REMARK  1 active torsions:
REMARK  status: ('A' for Active; 'I' for Inactive)
REMARK       I    between atoms: C_2  and  N_3 
REMARK       I    between atoms: C_2  and  N_12 
REMARK    1  A    between atoms: N_3  and  C_4 
ROOT
HETATM    1  C   LIG     1      17.817  37.780  22.869  1.00  0.00     0.086 C 
HETATM    2  C   LIG     1      18.197  38.505  24.212  1.00  0.00     0.025 C 
HETATM    3  C   LIG     1      18.138  37.470  25.337  1.00  0.00     0.002 C 
HETATM    4  C   LIG     1      18.080  36.444  26.456  1.00  0.00     0.000 C 
HETATM    5  C   LIG     1      17.283  35.202  25.928  1.00  0.00     0.000 C 
HETATM    6  C   LIG     1      17.649  34.752  24.473  1.00  0.00     0.000 C 
HETATM    7  C   LIG     1      16.803  35.308  23.275  1.00  0.00     0.002 C 
HETATM    8  C   LIG     1      16.569  36.831  22.978  1.00  0.00     0.025 C 
ENDROOT
BRANCH   1   9
HETATM    9  N   LIG     1      17.571  38.799  21.844  1.00  0.00    -0.338 N 
HETATM   10  C   LIG     1      18.488  39.047  20.769  1.00  0.00     0.317 C 
HETATM   11  O   LIG     1      18.697  40.235  20.404  1.00  0.00    -0.247 OA
HETATM   12  N   LIG     1      19.163  37.967  20.097  1.00  0.00    -0.343 N 
HETATM   13  C   LIG     1      18.466  36.716  19.790  1.00  0.00     0.154 C 
HETATM   14  C   LIG     1      20.524  38.169  19.603  1.00  0.00     0.154 C 
HETATM   15  H   LIG     1      16.873  39.546  22.064  1.00  0.00     0.164 HD
ENDBRANCH   1   9
TORSDOF 1
ENDMDL
MODEL 3
REMARK VINA RESULT:      -6.8      2.773      5.214
REMARK  1 active torsions:
REMARK  status: ('A' for Active; 'I' for Inactive)
REMARK       I    between atoms: C_2  and  N_3 
REMARK       I    between atoms: C_2  and  N_12 
REMARK    1  A    between atoms: N_3  and  C_4 
ROOT
HETATM    1  C   LIG     1      17.077  36.797  22.958  1.00  0.00     0.086 C 
HETATM    2  C   LIG     1      17.239  35.252  23.205  1.00  0.00     0.025 C 
HETATM    3  C   LIG     1      17.521  35.041  24.695  1.00  0.00     0.002 C 
HETATM    4  C   LIG     1      17.801  34.830  26.173  1.00  0.00     0.000 C 
HETATM    5  C   LIG     1      18.225  36.210  26.783  1.00  0.00     0.000 C 
HETATM    6  C   LIG     1      17.362  37.431  26.318  1.00  0.00     0.000 C 
HETATM    7  C   LIG     1      17.846  38.275  25.087  1.00  0.00     0.002 C 
HETATM    8  C   LIG     1      18.164  37.681  23.669  1.00  0.00     0.025 C 
ENDROOT
BRANCH   1   9
HETATM    9  N   LIG     1      17.111  37.042  21.513  1.00  0.00    -0.338 N 
HETATM   10  C   LIG     1      16.746  36.041  20.553  1.00  0.00     0.317 C 
HETATM   11  O   LIG     1      17.415  35.939  19.490  1.00  0.00    -0.247 OA
HETATM   12  N   LIG     1      15.627  35.162  20.777  1.00  0.00    -0.343 N 
HETATM   13  C   LIG     1      14.387  35.656  21.378  1.00  0.00     0.154 C 
HETATM   14  C   LIG     1      15.686  33.787  20.283  1.00  0.00     0.154 C 
HETATM   15  H   LIG     1      17.684  37.849  21.175  1.00  0.00     0.164 HD
ENDBRANCH   1   9
TORSDOF 1
ENDMDL
MODEL 4
REMARK VINA RESULT:      -5.1      2.707      5.169
REMARK  1 active torsions:
REMARK  status: ('A' for Active; 'I' for Inactive)
REMARK       I    between atoms: C_2  and  N_3 
REMARK       I    between atoms: C_2  and  N_12 
REMARK    1  A    between atoms: N_3  and  C_4 
ROOT
HETATM    1  C   LIG     1      17.173  38.141  22.970  1.00  0.00     0.086 C 
HETATM    2  C   LIG     1      16.679  36.719  22.517  1.00  0.00     0.025 C 
HETATM    3  C   LIG     1      16.934  35.743  23.668  1.00  0.00     0.002 C 
HETATM    4  C   LIG     1      17.187  34.773  24.810  1.00  0.00     0.000 C 
HETATM    5  C   LIG     1      18.191  35.452  25.802  1.00  0.00     0.000 C 
HETATM    6  C   LIG     1      17.902  36.960  26.108  1.00  0.00     0.000 C 
HETATM    7  C   LIG     1      18.622  38.058  25.250  1.00  0.00     0.002 C 
HETATM    8  C   LIG     1      18.573  38.141  23.684  1.00  0.00     0.025 C 
ENDROOT
BRANCH   1   9
HETATM    9  N   LIG     1      17.220  39.014  21.793  1.00  0.00    -0.338 N 
HETATM   10  C   LIG     1      18.219  38.877  20.773  1.00  0.00     0.317 C 
HETATM   11  O   LIG     1      18.716  39.915  20.260  1.00  0.00    -0.247 OA
HETATM   12  N   LIG     1      18.654  37.581  20.320  1.00  0.00    -0.343 N 
HETATM   13  C   LIG     1      17.700  36.484  20.139  1.00  0.00     0.154 C 
HETATM   14  C   LIG     1      20.047  37.393  19.916  1.00  0.00     0.154 C 
HETATM   15  H   LIG     1      16.706  39.922  21.846  1.00  0.00     0.164 HD
ENDBRANCH   1   9
TORSDOF 1
ENDMDL
MODEL 5
REMARK VINA RESULT:      -5.0      1.681      2.681
REMARK  1 active torsions:
REMARK  status: ('A' for Active; 'I' for Inactive)
REMARK       I    between atoms: C_2  and  N_3 
REMARK       I    between atoms: C_2  and  N_12 
REMARK    1  A    between atoms: N_3  and  C_4 
ROOT
HETATM    1  C   LIG     1      17.266  38.624  21.546  1.00  0.00     0.086 C 
HETATM    2  C   LIG     1      18.509  39.580  21.665  1.00  0.00     0.025 C 
HETATM    3  C   LIG     1      19.572  39.096  20.676  1.00  0.00     0.002 C 
HETATM    4  C   LIG     1      20.628  38.616  19.695  1.00  0.00     0.000 C 
HETATM    5  C   LIG     1      20.253  37.157  19.262  1.00  0.00     0.000 C 
HETATM    6  C   LIG     1      18.736  36.929  18.949  1.00  0.00     0.000 C 
HETATM    7  C   LIG     1      17.798  36.407  20.093  1.00  0.00     0.002 C 
HETATM    8  C   LIG     1      17.630  37.096  21.493  1.00  0.00     0.025 C 
ENDROOT
BRANCH   1   9
HETATM    9  N   LIG     1      16.373  38.879  22.680  1.00  0.00    -0.338 N 
HETATM   10  C   LIG     1      16.284  37.992  23.804  1.00  0.00     0.317 C 
HETATM   11  O   LIG     1      15.155  37.768  24.318  1.00  0.00    -0.247 OA
HETATM   12  N   LIG     1      17.456  37.366  24.359  1.00  0.00    -0.343 N 
HETATM   13  C   LIG     1      18.715  38.102  24.489  1.00  0.00     0.154 C 
HETATM   14  C   LIG     1      17.353  36.017  24.914  1.00  0.00     0.154 C 
HETATM   15  H   LIG     1      15.586  39.551  22.532  1.00  0.00     0.164 HD
ENDBRANCH   1   9
TORSDOF 1
ENDMDL
MODEL 6
REMARK VINA RESULT:      -4.7      9.006     10.808
REMARK  1 active torsions:
REMARK  status: ('A' for Active; 'I' for Inactive)
REMARK       I    between atoms: C_2  and  N_3 
REMARK       I    between atoms: C_2  and  N_12 
REMARK    1  A    between atoms: N_3  and  C_4 
ROOT
HETATM    1  C   LIG     1      16.167  32.134  14.482  1.00  0.00     0.086 C 
HETATM    2  C   LIG     1      15.444  30.822  14.006  1.00  0.00     0.025 C 
HETATM    3  C   LIG     1      14.187  30.641  14.860  1.00  0.00     0.002 C 
HETATM    4  C   LIG     1      12.938  30.462  15.707  1.00  0.00     0.000 C 
HETATM    5  C   LIG     1      13.072  31.389  16.963  1.00  0.00     0.000 C 
HETATM    6  C   LIG     1      13.615  32.828  16.667  1.00  0.00     0.000 C 
HETATM    7  C   LIG     1      15.155  33.097  16.796  1.00  0.00     0.002 C 
HETATM    8  C   LIG     1      16.268  32.287  16.042  1.00  0.00     0.025 C 
ENDROOT
BRANCH   1   9
HETATM    9  N   LIG     1      17.511  32.162  13.897  1.00  0.00    -0.338 N 
HETATM   10  C   LIG     1      17.912  33.147  12.934  1.00  0.00     0.317 C 
HETATM   11  O   LIG     1      18.639  32.796  11.966  1.00  0.00    -0.247 OA
HETATM   12  N   LIG     1      17.508  34.523  13.058  1.00  0.00    -0.343 N 
HETATM   13  C   LIG     1      17.474  35.186  14.364  1.00  0.00     0.154 C 
HETATM   14  C   LIG     1      17.247  35.306  11.851  1.00  0.00     0.154 C 
HETATM   15  H   LIG     1      18.082  31.289  13.960  1.00  0.00     0.164 HD
ENDBRANCH   1   9
TORSDOF 1
ENDMDL
MODEL 7
REMARK VINA RESULT:      -4.6      3.769      5.922
REMARK  1 active torsions:
REMARK  status: ('A' for Active; 'I' for Inactive)
REMARK       I    between atoms: C_2  and  N_3 
REMARK       I    between atoms: C_2  and  N_12 
REMARK    1  A    between atoms: N_3  and  C_4 
ROOT
HETATM    1  C   LIG     1      18.373  38.549  20.652  1.00  0.00     0.086 C 
HETATM    2  C   LIG     1      18.596  37.095  20.097  1.00  0.00     0.025 C 
HETATM    3  C   LIG     1      17.609  36.165  20.804  1.00  0.00     0.002 C 
HETATM    4  C   LIG     1      16.629  35.240  21.506  1.00  0.00     0.000 C 
HETATM    5  C   LIG     1      16.084  35.988  22.771  1.00  0.00     0.000 C 
HETATM    6  C   LIG     1      15.711  37.491  22.540  1.00  0.00     0.000 C 
HETATM    7  C   LIG     1      16.787  38.593  22.840  1.00  0.00     0.002 C 
HETATM    8  C   LIG     1      18.225  38.628  22.214  1.00  0.00     0.025 C 
ENDROOT
BRANCH   1   9
HETATM    9  N   LIG     1      19.495  39.389  20.221  1.00  0.00    -0.338 N 
HETATM   10  C   LIG     1      19.880  39.511  18.844  1.00  0.00     0.317 C 
HETATM   11  O   LIG     1      21.106  39.551  18.553  1.00  0.00    -0.247 OA
HETATM   12  N   LIG     1      18.897  39.600  17.796  1.00  0.00    -0.343 N 
HETATM   13  C   LIG     1      17.673  40.386  17.974  1.00  0.00     0.154 C 
HETATM   14  C   LIG     1      19.181  39.001  16.493  1.00  0.00     0.154 C 
HETATM   15  H   LIG     1      20.197  39.663  20.944  1.00  0.00     0.164 HD
ENDBRANCH   1   9
TORSDOF 1
ENDMDL
MODEL 8
REMARK VINA RESULT:      -4.6     16.734     18.094
REMARK  1 active torsions:
REMARK  status: ('A' for Active; 'I' for Inactive)
REMARK       I    between atoms: C_2  and  N_3 
REMARK       I    between atoms: C_2  and  N_12 
REMARK    1  A    between atoms: N_3  and  C_4 
ROOT
HETATM    1  C   LIG     1      26.833  29.317  35.067  1.00  0.00     0.086 C 
HETATM    2  C   LIG     1      28.208  29.834  34.506  1.00  0.00     0.025 C 
HETATM    3  C   LIG     1      28.836  30.743  35.565  1.00  0.00     0.002 C 
HETATM    4  C   LIG     1      29.461  31.645  36.616  1.00  0.00     0.000 C 
HETATM    5  C   LIG     1      28.342  32.036  37.639  1.00  0.00     0.000 C 
HETATM    6  C   LIG     1      27.406  30.860  38.078  1.00  0.00     0.000 C 
HETATM    7  C   LIG     1      26.063  30.631  37.300  1.00  0.00     0.002 C 
HETATM    8  C   LIG     1      25.955  30.428  35.747  1.00  0.00     0.025 C 
ENDROOT
BRANCH   1   9
HETATM    9  N   LIG     1      26.084  28.702  33.967  1.00  0.00    -0.338 N 
HETATM   10  C   LIG     1      26.590  27.587  33.220  1.00  0.00     0.317 C 
HETATM   11  O   LIG     1      26.402  27.550  31.974  1.00  0.00    -0.247 OA
HETATM   12  N   LIG     1      27.294  26.510  33.866  1.00  0.00    -0.343 N 
HETATM   13  C   LIG     1      26.859  25.996  35.167  1.00  0.00     0.154 C 
HETATM   14  C   LIG     1      28.382  25.838  33.157  1.00  0.00     0.154 C 
HETATM   15  H   LIG     1      25.315  29.263  33.535  1.00  0.00     0.164 HD
ENDBRANCH   1   9
TORSDOF 1
ENDMDL
MODEL 9
REMARK VINA RESULT:      -4.6     16.706     18.136
REMARK  1 active torsions:
REMARK  status: ('A' for Active; 'I' for Inactive)
REMARK       I    between atoms: C_2  and  N_3 
REMARK       I    between atoms: C_2  and  N_12 
REMARK    1  A    between atoms: N_3  and  C_4 
ROOT
HETATM    1  C   LIG     1      28.237  30.275  34.798  1.00  0.00     0.086 C 
HETATM    2  C   LIG     1      29.436  30.998  35.514  1.00  0.00     0.025 C 
HETATM    3  C   LIG     1      28.914  31.589  36.826  1.00  0.00     0.002 C 
HETATM    4  C   LIG     1      28.397  32.176  38.129  1.00  0.00     0.000 C 
HETATM    5  C   LIG     1      26.832  32.197  38.057  1.00  0.00     0.000 C 
HETATM    6  C   LIG     1      26.179  30.901  37.472  1.00  0.00     0.000 C 
HETATM    7  C   LIG     1      25.853  30.844  35.938  1.00  0.00     0.002 C 
HETATM    8  C   LIG     1      26.898  31.096  34.794  1.00  0.00     0.025 C 
ENDROOT
BRANCH   1   9
HETATM    9  N   LIG     1      28.633  29.972  33.420  1.00  0.00    -0.338 N 
HETATM   10  C   LIG     1      28.829  28.630  32.953  1.00  0.00     0.317 C 
HETATM   11  O   LIG     1      29.785  28.389  32.167  1.00  0.00    -0.247 OA
HETATM   12  N   LIG     1      27.952  27.561  33.355  1.00  0.00    -0.343 N 
HETATM   13  C   LIG     1      26.506  27.772  33.466  1.00  0.00     0.154 C 
HETATM   14  C   LIG     1      28.495  26.216  33.532  1.00  0.00     0.154 C 
HETATM   15  H   LIG     1      29.059  30.745  32.860  1.00  0.00     0.164 HD
ENDBRANCH   1   9
TORSDOF 1
ENDMDL
MODEL 10
REMARK VINA RESULT:      -4.5      7.118      8.829
REMARK  1 active torsions:
REMARK  status: ('A' for Active; 'I' for Inactive)
REMARK       I    between atoms: C_2  and  N_3 
REMARK       I    between atoms: C_2  and  N_12 
REMARK    1  A    between atoms: N_3  and  C_4 
ROOT
HETATM    1  C   LIG     1      15.257  32.254  16.944  1.00  0.00     0.086 C 
HETATM    2  C   LIG     1      13.732  32.024  17.252  1.00  0.00     0.025 C 
HETATM    3  C   LIG     1      13.197  31.004  16.245  1.00  0.00     0.002 C 
HETATM    4  C   LIG     1      12.664  29.990  15.246  1.00  0.00     0.000 C 
HETATM    5  C   LIG     1      13.697  29.886  14.072  1.00  0.00     0.000 C 
HETATM    6  C   LIG     1      15.198  29.832  14.514  1.00  0.00     0.000 C 
HETATM    7  C   LIG     1      16.013  31.170  14.586  1.00  0.00     0.002 C 
HETATM    8  C   LIG     1      15.587  32.431  15.418  1.00  0.00     0.025 C 
ENDROOT
BRANCH   1   9
HETATM    9  N   LIG     1      15.708  33.435  17.685  1.00  0.00    -0.338 N 
HETATM   10  C   LIG     1      15.348  33.669  19.054  1.00  0.00     0.317 C 
HETATM   11  O   LIG     1      15.071  34.843  19.422  1.00  0.00    -0.247 OA
HETATM   12  N   LIG     1      15.308  32.595  20.012  1.00  0.00    -0.343 N 
HETATM   13  C   LIG     1      16.324  31.540  20.008  1.00  0.00     0.154 C 
HETATM   14  C   LIG     1      14.311  32.625  21.081  1.00  0.00     0.154 C 
HETATM   15  H   LIG     1      16.047  34.253  17.129  1.00  0.00     0.164 HD
ENDBRANCH   1   9
TORSDOF 1
ENDMDL
