REMARK  1 active torsions:
REMARK  status: ('A' for Active; 'I' for Inactive)
REMARK       I    between atoms: C_2  and  N_3 
REMARK       I    between atoms: C_2  and  N_12 
REMARK    1  A    between atoms: N_3  and  C_4 
ROOT
HETATM    1  C   LIG     1       0.224   0.312  -0.828  1.00  0.00     0.086 C 
HETATM    2  C   LIG     1      -0.698   1.585  -0.788  1.00  0.00     0.025 C 
HETATM    3  C   LIG     1      -2.041   1.175  -0.180  1.00  0.00     0.002 C 
HETATM    4  C   LIG     1      -3.375   0.769   0.424  1.00  0.00     0.000 C 
HETATM    5  C   LIG     1      -3.463  -0.795   0.385  1.00  0.00     0.000 C 
HETATM    6  C   LIG     1      -2.154  -1.542   0.810  1.00  0.00     0.000 C 
HETATM    7  C   LIG     1      -1.131  -1.967  -0.301  1.00  0.00     0.002 C 
HETATM    8  C   LIG     1      -0.492  -0.987  -1.347  1.00  0.00     0.025 C 
ENDROOT
BRANCH   1   9
HETATM    9  N   LIG     1       1.385   0.605  -1.673  1.00  0.00    -0.338 N 
HETATM   10  C   LIG     1       2.633   1.064  -1.135  1.00  0.00     0.317 C 
HETATM   11  O   LIG     1       3.278   1.951  -1.756  1.00  0.00    -0.247 OA
HETATM   12  N   LIG     1       3.164   0.524   0.090  1.00  0.00    -0.343 N 
HETATM   13  C   LIG     1       3.064  -0.906   0.391  1.00  0.00     0.154 C 
HETATM   14  C   LIG     1       3.923   1.394   0.987  1.00  0.00     0.154 C 
HETATM   15  H   LIG     1       1.212   0.763  -2.692  1.00  0.00     0.164 HD
ENDBRANCH   1   9
TORSDOF 1
