REMARK  2 active torsions:
REMARK  status: ('A' for Active; 'I' for Inactive)
REMARK       I    between atoms: C_2  and  N_3 
REMARK       I    between atoms: C_2  and  N_14 
REMARK    1  A    between atoms: N_3  and  C_4 
REMARK    2  A    between atoms: C_6  and  C_7 
ROOT
HETATM    1  C   LIG     1       0.699   0.755   0.352  1.00  0.00     0.037 A 
HETATM    2  C   LIG     1       1.438  -0.253  -0.295  1.00  0.00     0.045 A 
HETATM    3  C   LIG     1       2.845  -0.214  -0.309  1.00  0.00     0.050 A 
HETATM    4  C   LIG     1       3.506   0.829   0.362  1.00  0.00     0.016 A 
HETATM    5  C   LIG     1       2.775   1.842   0.985  1.00  0.00     0.003 A 
HETATM    6  C   LIG     1       1.380   1.813   0.971  1.00  0.00     0.029 A 
ENDROOT
BRANCH   1   7
HETATM    7  N   LIG     1      -0.740   0.750   0.346  1.00  0.00    -0.309 N 
HETATM    8  C   LIG     1      -1.533  -0.451   0.374  1.00  0.00     0.322 C 
HETATM    9  O   LIG     1      -1.012  -1.532   0.766  1.00  0.00    -0.247 OA
HETATM   10  N   LIG     1      -2.925  -0.430  -0.007  1.00  0.00    -0.343 N 
HETATM   11  C   LIG     1      -3.721  -1.654   0.122  1.00  0.00     0.154 C 
HETATM   12  C   LIG     1      -3.530   0.788  -0.557  1.00  0.00     0.154 C 
HETATM   13  H   LIG     1      -1.225   1.670   0.428  1.00  0.00     0.170 HD
ENDBRANCH   1   7
BRANCH   3  14
HETATM   14  C   LIG     1       3.630  -1.327  -0.958  1.00  0.00     0.417 C 
HETATM   15  F   LIG     1       4.871  -0.876  -1.373  1.00  0.00    -0.166 F 
HETATM   16  F   LIG     1       3.805  -2.351  -0.047  1.00  0.00    -0.166 F 
HETATM   17  F   LIG     1       2.957  -1.817  -2.064  1.00  0.00    -0.166 F 
ENDBRANCH   3  14
TORSDOF 2
