MODEL 1
REMARK VINA RESULT:      -7.6      0.000      0.000
REMARK  2 active torsions:
REMARK  status: ('A' for Active; 'I' for Inactive)
REMARK       I    between atoms: C_2  and  N_3 
REMARK       I    between atoms: C_2  and  N_14 
REMARK    1  A    between atoms: N_3  and  C_4 
REMARK    2  A    between atoms: C_6  and  C_7 
ROOT
HETATM    1  C   LIG     1      16.612  35.575  21.016  1.00  0.00     0.037 A 
HETATM    2  C   LIG     1      17.644  36.352  20.458  1.00  0.00     0.045 A 
HETATM    3  C   LIG     1      17.902  37.651  20.935  1.00  0.00     0.050 A 
HETATM    4  C   LIG     1      17.136  38.151  22.001  1.00  0.00     0.016 A 
HETATM    5  C   LIG     1      16.097  37.391  22.542  1.00  0.00     0.003 A 
HETATM    6  C   LIG     1      15.828  36.115  22.045  1.00  0.00     0.029 A 
ENDROOT
BRANCH   1   7
HETATM    7  N   LIG     1      16.312  34.258  20.518  1.00  0.00    -0.309 N 
HETATM    8  C   LIG     1      15.678  34.012  19.249  1.00  0.00     0.322 C 
HETATM    9  O   LIG     1      15.683  34.913  18.365  1.00  0.00    -0.247 OA
HETATM   10  N   LIG     1      15.065  32.737  18.961  1.00  0.00    -0.343 N 
HETATM   11  C   LIG     1      14.510  32.495  17.627  1.00  0.00     0.154 C 
HETATM   12  C   LIG     1      14.960  31.708  20.001  1.00  0.00     0.154 C 
HETATM   13  H   LIG     1      16.668  33.444  21.064  1.00  0.00     0.170 HD
ENDBRANCH   1   7
BRANCH   3  14
HETATM   14  C   LIG     1      19.045  38.456  20.368  1.00  0.00     0.417 C 
HETATM   15  F   LIG     1      18.575  39.451  19.528  1.00  0.00    -0.166 F 
HETATM   16  F   LIG     1      19.749  39.038  21.404  1.00  0.00    -0.166 F 
HETATM   17  F   LIG     1      19.899  37.645  19.641  1.00  0.00    -0.166 F 
ENDBRANCH   3  14
TORSDOF 2
ENDMDL
MODEL 2
REMARK VINA RESULT:      -6.7      2.618      3.263
REMARK  2 active torsions:
REMARK  status: ('A' for Active; 'I' for Inactive)
REMARK       I    between atoms: C_2  and  N_3 
REMARK       I    between atoms: C_2  and  N_14 
REMARK    1  A    between atoms: N_3  and  C_4 
REMARK    2  A    between atoms: C_6  and  C_7 
ROOT
HETATM    1  C   LIG     1      16.761  35.088  21.446  1.00  0.00     0.037 A 
HETATM    2  C   LIG     1      16.868  35.207  22.845  1.00  0.00     0.045 A 
HETATM    3  C   LIG     1      17.284  36.416  23.432  1.00  0.00     0.050 A 
HETATM    4  C   LIG     1      17.560  37.518  22.605  1.00  0.00     0.016 A 
HETATM    5  C   LIG     1      17.477  37.396  21.217  1.00  0.00     0.003 A 
HETATM    6  C   LIG     1      17.091  36.186  20.639  1.00  0.00     0.029 A 
ENDROOT
BRANCH   1   7
HETATM    7  N   LIG     1      16.371  33.849  20.827  1.00  0.00    -0.309 N 
HETATM    8  C   LIG     1      15.707  33.770  19.552  1.00  0.00     0.322 C 
HETATM    9  O   LIG     1      15.760  34.751  18.761  1.00  0.00    -0.247 OA
HETATM   10  N   LIG     1      15.011  32.570  19.152  1.00  0.00    -0.343 N 
HETATM   11  C   LIG     1      14.426  32.496  17.811  1.00  0.00     0.154 C 
HETATM   12  C   LIG     1      14.852  31.452  20.088  1.00  0.00     0.154 C 
HETATM   13  H   LIG     1      16.680  32.964  21.285  1.00  0.00     0.170 HD
ENDBRANCH   1   7
BRANCH   3  14
HETATM   14  C   LIG     1      17.343  36.551  24.934  1.00  0.00     0.417 C 
HETATM   15  F   LIG     1      18.645  36.752  25.358  1.00  0.00    -0.166 F 
HETATM   16  F   LIG     1      16.572  37.629  25.324  1.00  0.00    -0.166 F 
HETATM   17  F   LIG     1      16.862  35.406  25.545  1.00  0.00    -0.166 F 
ENDBRANCH   3  14
TORSDOF 2
ENDMDL
MODEL 3
REMARK VINA RESULT:      -6.6      2.123      2.928
REMARK  2 active torsions:
REMARK  status: ('A' for Active; 'I' for Inactive)
REMARK       I    between atoms: C_2  and  N_3 
REMARK       I    between atoms: C_2  and  N_14 
REMARK    1  A    between atoms: N_3  and  C_4 
REMARK    2  A    between atoms: C_6  and  C_7 
ROOT
HETATM    1  C   LIG     1      16.991  36.154  20.103  1.00  0.00     0.037 A 
HETATM    2  C   LIG     1      16.695  36.692  21.370  1.00  0.00     0.045 A 
HETATM    3  C   LIG     1      17.513  37.688  21.935  1.00  0.00     0.050 A 
HETATM    4  C   LIG     1      18.614  38.165  21.203  1.00  0.00     0.016 A 
HETATM    5  C   LIG     1      18.923  37.617  19.957  1.00  0.00     0.003 A 
HETATM    6  C   LIG     1      18.124  36.610  19.414  1.00  0.00     0.029 A 
ENDROOT
BRANCH   1   7
HETATM    7  N   LIG     1      16.186  35.111  19.526  1.00  0.00    -0.309 N 
HETATM    8  C   LIG     1      15.687  33.984  20.270  1.00  0.00     0.322 C 
HETATM    9  O   LIG     1      15.630  34.047  21.530  1.00  0.00    -0.247 OA
HETATM   10  N   LIG     1      15.219  32.797  19.595  1.00  0.00    -0.343 N 
HETATM   11  C   LIG     1      14.634  31.709  20.384  1.00  0.00     0.154 C 
HETATM   12  C   LIG     1      15.363  32.659  18.142  1.00  0.00     0.154 C 
HETATM   13  H   LIG     1      15.868  35.238  18.540  1.00  0.00     0.170 HD
ENDBRANCH   1   7
BRANCH   3  14
HETATM   14  C   LIG     1      17.158  38.297  23.269  1.00  0.00     0.417 C 
HETATM   15  F   LIG     1      16.123  37.600  23.868  1.00  0.00    -0.166 F 
HETATM   16  F   LIG     1      18.264  38.257  24.096  1.00  0.00    -0.166 F 
HETATM   17  F   LIG     1      16.758  39.613  23.113  1.00  0.00    -0.166 F 
ENDBRANCH   3  14
TORSDOF 2
ENDMDL
MODEL 4
REMARK VINA RESULT:      -6.5      7.269      9.026
REMARK  2 active torsions:
REMARK  status: ('A' for Active; 'I' for Inactive)
REMARK       I    between atoms: C_2  and  N_3 
REMARK       I    between atoms: C_2  and  N_14 
REMARK    1  A    between atoms: N_3  and  C_4 
REMARK    2  A    between atoms: C_6  and  C_7 
ROOT
HETATM    1  C   LIG     1      17.223  33.083  14.479  1.00  0.00     0.037 A 
HETATM    2  C   LIG     1      16.529  31.889  14.207  1.00  0.00     0.045 A 
HETATM    3  C   LIG     1      15.438  31.496  15.006  1.00  0.00     0.050 A 
HETATM    4  C   LIG     1      15.028  32.330  16.060  1.00  0.00     0.016 A 
HETATM    5  C   LIG     1      15.729  33.503  16.345  1.00  0.00     0.003 A 
HETATM    6  C   LIG     1      16.827  33.873  15.567  1.00  0.00     0.029 A 
ENDROOT
BRANCH   1   7
HETATM    7  N   LIG     1      18.362  33.482  13.695  1.00  0.00    -0.309 N 
HETATM    8  C   LIG     1      18.265  34.257  12.486  1.00  0.00     0.322 C 
HETATM    9  O   LIG     1      17.218  34.922  12.255  1.00  0.00    -0.247 OA
HETATM   10  N   LIG     1      19.363  34.311  11.550  1.00  0.00    -0.343 N 
HETATM   11  C   LIG     1      19.260  35.183  10.376  1.00  0.00     0.154 C 
HETATM   12  C   LIG     1      20.552  33.474  11.744  1.00  0.00     0.154 C 
HETATM   13  H   LIG     1      19.309  33.281  14.085  1.00  0.00     0.170 HD
ENDBRANCH   1   7
BRANCH   3  14
HETATM   14  C   LIG     1      14.666  30.243  14.675  1.00  0.00     0.417 C 
HETATM   15  F   LIG     1      15.484  29.129  14.743  1.00  0.00    -0.166 F 
HETATM   16  F   LIG     1      13.629  30.096  15.576  1.00  0.00    -0.166 F 
HETATM   17  F   LIG     1      14.143  30.316  13.395  1.00  0.00    -0.166 F 
ENDBRANCH   3  14
TORSDOF 2
ENDMDL
MODEL 5
REMARK VINA RESULT:      -6.4      6.583      8.566
REMARK  2 active torsions:
REMARK  status: ('A' for Active; 'I' for Inactive)
REMARK       I    between atoms: C_2  and  N_3 
REMARK       I    between atoms: C_2  and  N_14 
REMARK    1  A    between atoms: N_3  and  C_4 
REMARK    2  A    between atoms: C_6  and  C_7 
ROOT
HETATM    1  C   LIG     1      16.467  32.172  14.403  1.00  0.00     0.037 A 
HETATM    2  C   LIG     1      15.803  32.482  15.605  1.00  0.00     0.045 A 
HETATM    3  C   LIG     1      14.671  31.749  16.008  1.00  0.00     0.050 A 
HETATM    4  C   LIG     1      14.230  30.679  15.210  1.00  0.00     0.016 A 
HETATM    5  C   LIG     1      14.874  30.384  14.007  1.00  0.00     0.003 A 
HETATM    6  C   LIG     1      15.979  31.133  13.599  1.00  0.00     0.029 A 
ENDROOT
BRANCH   1   7
HETATM    7  N   LIG     1      17.605  32.933  13.959  1.00  0.00    -0.309 N 
HETATM    8  C   LIG     1      17.610  33.732  12.761  1.00  0.00     0.322 C 
HETATM    9  O   LIG     1      16.515  34.085  12.243  1.00  0.00    -0.247 OA
HETATM   10  N   LIG     1      18.851  34.162  12.163  1.00  0.00    -0.343 N 
HETATM   11  C   LIG     1      18.814  35.049  10.996  1.00  0.00     0.154 C 
HETATM   12  C   LIG     1      20.137  33.688  12.686  1.00  0.00     0.154 C 
HETATM   13  H   LIG     1      18.429  32.985  14.596  1.00  0.00     0.170 HD
ENDBRANCH   1   7
BRANCH   3  14
HETATM   14  C   LIG     1      13.997  32.052  17.323  1.00  0.00     0.417 C 
HETATM   15  F   LIG     1      14.156  31.001  18.210  1.00  0.00    -0.166 F 
HETATM   16  F   LIG     1      14.558  33.190  17.869  1.00  0.00    -0.166 F 
HETATM   17  F   LIG     1      12.641  32.260  17.140  1.00  0.00    -0.166 F 
ENDBRANCH   3  14
TORSDOF 2
ENDMDL
MODEL 6
REMARK VINA RESULT:      -6.4      4.242      6.927
REMARK  2 active torsions:
REMARK  status: ('A' for Active; 'I' for Inactive)
REMARK       I    between atoms: C_2  and  N_3 
REMARK       I    between atoms: C_2  and  N_14 
REMARK    1  A    between atoms: N_3  and  C_4 
REMARK    2  A    between atoms: C_6  and  C_7 
ROOT
HETATM    1  C   LIG     1      15.355  31.902  15.908  1.00  0.00     0.037 A 
HETATM    2  C   LIG     1      16.316  32.835  15.475  1.00  0.00     0.045 A 
HETATM    3  C   LIG     1      16.758  32.841  14.138  1.00  0.00     0.050 A 
HETATM    4  C   LIG     1      16.203  31.922  13.231  1.00  0.00     0.016 A 
HETATM    5  C   LIG     1      15.267  30.981  13.664  1.00  0.00     0.003 A 
HETATM    6  C   LIG     1      14.853  30.962  14.996  1.00  0.00     0.029 A 
ENDROOT
BRANCH   1   7
HETATM    7  N   LIG     1      14.918  31.858  17.278  1.00  0.00    -0.309 N 
HETATM    8  C   LIG     1      15.212  32.886  18.242  1.00  0.00     0.322 C 
HETATM    9  O   LIG     1      15.555  34.034  17.843  1.00  0.00    -0.247 OA
HETATM   10  N   LIG     1      15.087  32.634  19.658  1.00  0.00    -0.343 N 
HETATM   11  C   LIG     1      15.308  33.733  20.603  1.00  0.00     0.154 C 
HETATM   12  C   LIG     1      14.785  31.286  20.152  1.00  0.00     0.154 C 
HETATM   13  H   LIG     1      14.269  31.089  17.552  1.00  0.00     0.170 HD
ENDBRANCH   1   7
BRANCH   3  14
HETATM   14  C   LIG     1      17.747  33.879  13.670  1.00  0.00     0.417 C 
HETATM   15  F   LIG     1      17.416  34.339  12.407  1.00  0.00    -0.166 F 
HETATM   16  F   LIG     1      17.742  34.943  14.552  1.00  0.00    -0.166 F 
HETATM   17  F   LIG     1      19.023  33.346  13.613  1.00  0.00    -0.166 F 
ENDBRANCH   3  14
TORSDOF 2
ENDMDL
MODEL 7
REMARK VINA RESULT:      -6.2      7.255      9.495
REMARK  2 active torsions:
REMARK  status: ('A' for Active; 'I' for Inactive)
REMARK       I    between atoms: C_2  and  N_3 
REMARK       I    between atoms: C_2  and  N_14 
REMARK    1  A    between atoms: N_3  and  C_4 
REMARK    2  A    between atoms: C_6  and  C_7 
ROOT
HETATM    1  C   LIG     1      13.597  29.456  14.429  1.00  0.00     0.037 A 
HETATM    2  C   LIG     1      13.266  30.300  15.505  1.00  0.00     0.045 A 
HETATM    3  C   LIG     1      14.141  31.328  15.905  1.00  0.00     0.050 A 
HETATM    4  C   LIG     1      15.338  31.522  15.194  1.00  0.00     0.016 A 
HETATM    5  C   LIG     1      15.678  30.672  14.141  1.00  0.00     0.003 A 
HETATM    6  C   LIG     1      14.820  29.637  13.767  1.00  0.00     0.029 A 
ENDROOT
BRANCH   1   7
HETATM    7  N   LIG     1      12.731  28.378  14.028  1.00  0.00    -0.309 N 
HETATM    8  C   LIG     1      13.142  27.306  13.161  1.00  0.00     0.322 C 
HETATM    9  O   LIG     1      14.372  27.068  13.004  1.00  0.00    -0.247 OA
HETATM   10  N   LIG     1      12.168  26.475  12.495  1.00  0.00    -0.343 N 
HETATM   11  C   LIG     1      12.626  25.337  11.693  1.00  0.00     0.154 C 
HETATM   12  C   LIG     1      10.737  26.787  12.582  1.00  0.00     0.154 C 
HETATM   13  H   LIG     1      11.790  28.326  14.475  1.00  0.00     0.170 HD
ENDBRANCH   1   7
BRANCH   3  14
HETATM   14  C   LIG     1      13.754  32.263  17.025  1.00  0.00     0.417 C 
HETATM   15  F   LIG     1      14.459  33.451  16.938  1.00  0.00    -0.166 F 
HETATM   16  F   LIG     1      12.402  32.534  16.943  1.00  0.00    -0.166 F 
HETATM   17  F   LIG     1      14.026  31.688  18.255  1.00  0.00    -0.166 F 
ENDBRANCH   3  14
TORSDOF 2
ENDMDL
MODEL 8
REMARK VINA RESULT:      -6.2      1.641      2.161
REMARK  2 active torsions:
REMARK  status: ('A' for Active; 'I' for Inactive)
REMARK       I    between atoms: C_2  and  N_3 
REMARK       I    between atoms: C_2  and  N_14 
REMARK    1  A    between atoms: N_3  and  C_4 
REMARK    2  A    between atoms: C_6  and  C_7 
ROOT
HETATM    1  C   LIG     1      16.263  35.490  20.812  1.00  0.00     0.037 A 
HETATM    2  C   LIG     1      16.690  36.828  20.915  1.00  0.00     0.045 A 
HETATM    3  C   LIG     1      17.230  37.317  22.120  1.00  0.00     0.050 A 
HETATM    4  C   LIG     1      17.369  36.443  23.211  1.00  0.00     0.016 A 
HETATM    5  C   LIG     1      16.926  35.122  23.118  1.00  0.00     0.003 A 
HETATM    6  C   LIG     1      16.365  34.651  21.931  1.00  0.00     0.029 A 
ENDROOT
BRANCH   1   7
HETATM    7  N   LIG     1      15.677  34.983  19.600  1.00  0.00    -0.309 N 
HETATM    8  C   LIG     1      15.226  33.625  19.441  1.00  0.00     0.322 C 
HETATM    9  O   LIG     1      14.995  32.922  20.463  1.00  0.00    -0.247 OA
HETATM   10  N   LIG     1      15.001  33.067  18.129  1.00  0.00    -0.343 N 
HETATM   11  C   LIG     1      14.455  31.712  18.011  1.00  0.00     0.154 C 
HETATM   12  C   LIG     1      15.352  33.828  16.924  1.00  0.00     0.154 C 
HETATM   13  H   LIG     1      15.479  35.667  18.838  1.00  0.00     0.170 HD
ENDBRANCH   1   7
BRANCH   3  14
HETATM   14  C   LIG     1      17.736  38.736  22.205  1.00  0.00     0.417 C 
HETATM   15  F   LIG     1      17.946  39.260  20.941  1.00  0.00    -0.166 F 
HETATM   16  F   LIG     1      16.802  39.512  22.864  1.00  0.00    -0.166 F 
HETATM   17  F   LIG     1      18.933  38.786  22.897  1.00  0.00    -0.166 F 
ENDBRANCH   3  14
TORSDOF 2
ENDMDL
MODEL 9
REMARK VINA RESULT:      -6.0      5.577      8.250
REMARK  2 active torsions:
REMARK  status: ('A' for Active; 'I' for Inactive)
REMARK       I    between atoms: C_2  and  N_3 
REMARK       I    between atoms: C_2  and  N_14 
REMARK    1  A    between atoms: N_3  and  C_4 
REMARK    2  A    between atoms: C_6  and  C_7 
ROOT
HETATM    1  C   LIG     1      14.532  32.086  16.885  1.00  0.00     0.037 A 
HETATM    2  C   LIG     1      15.192  31.295  15.926  1.00  0.00     0.045 A 
HETATM    3  C   LIG     1      14.472  30.389  15.125  1.00  0.00     0.050 A 
HETATM    4  C   LIG     1      13.076  30.307  15.272  1.00  0.00     0.016 A 
HETATM    5  C   LIG     1      12.422  31.074  16.237  1.00  0.00     0.003 A 
HETATM    6  C   LIG     1      13.145  31.950  17.048  1.00  0.00     0.029 A 
ENDROOT
BRANCH   1   7
HETATM    7  N   LIG     1      15.256  32.992  17.737  1.00  0.00    -0.309 N 
HETATM    8  C   LIG     1      15.174  32.973  19.174  1.00  0.00     0.322 C 
HETATM    9  O   LIG     1      14.748  31.939  19.759  1.00  0.00    -0.247 OA
HETATM   10  N   LIG     1      15.605  34.106  19.956  1.00  0.00    -0.343 N 
HETATM   11  C   LIG     1      15.590  34.013  21.419  1.00  0.00     0.154 C 
HETATM   12  C   LIG     1      16.012  35.354  19.301  1.00  0.00     0.154 C 
HETATM   13  H   LIG     1      15.952  33.624  17.285  1.00  0.00     0.170 HD
ENDBRANCH   1   7
BRANCH   3  14
HETATM   14  C   LIG     1      15.179  29.584  14.063  1.00  0.00     0.417 C 
HETATM   15  F   LIG     1      14.324  28.654  13.499  1.00  0.00    -0.166 F 
HETATM   16  F   LIG     1      15.632  30.436  13.074  1.00  0.00    -0.166 F 
HETATM   17  F   LIG     1      16.258  28.906  14.603  1.00  0.00    -0.166 F 
ENDBRANCH   3  14
TORSDOF 2
ENDMDL
MODEL 10
REMARK VINA RESULT:      -5.8      3.597      6.055
REMARK  2 active torsions:
REMARK  status: ('A' for Active; 'I' for Inactive)
REMARK       I    between atoms: C_2  and  N_3 
REMARK       I    between atoms: C_2  and  N_14 
REMARK    1  A    between atoms: N_3  and  C_4 
REMARK    2  A    between atoms: C_6  and  C_7 
ROOT
HETATM    1  C   LIG     1      15.183  34.290  20.075  1.00  0.00     0.037 A 
HETATM    2  C   LIG     1      15.344  34.173  18.682  1.00  0.00     0.045 A 
HETATM    3  C   LIG     1      15.255  32.917  18.053  1.00  0.00     0.050 A 
HETATM    4  C   LIG     1      14.970  31.782  18.831  1.00  0.00     0.016 A 
HETATM    5  C   LIG     1      14.833  31.892  20.216  1.00  0.00     0.003 A 
HETATM    6  C   LIG     1      14.950  33.136  20.837  1.00  0.00     0.029 A 
ENDROOT
BRANCH   1   7
HETATM    7  N   LIG     1      15.305  35.561  20.740  1.00  0.00    -0.309 N 
HETATM    8  C   LIG     1      16.562  36.225  20.964  1.00  0.00     0.322 C 
HETATM    9  O   LIG     1      17.570  35.900  20.276  1.00  0.00    -0.247 OA
HETATM   10  N   LIG     1      16.679  37.282  21.941  1.00  0.00    -0.343 N 
HETATM   11  C   LIG     1      17.953  37.994  22.075  1.00  0.00     0.154 C 
HETATM   12  C   LIG     1      15.553  37.614  22.819  1.00  0.00     0.154 C 
HETATM   13  H   LIG     1      14.424  36.067  20.977  1.00  0.00     0.170 HD
ENDBRANCH   1   7
BRANCH   3  14
HETATM   14  C   LIG     1      15.375  32.808  16.553  1.00  0.00     0.417 C 
HETATM   15  F   LIG     1      14.334  32.061  16.030  1.00  0.00    -0.166 F 
HETATM   16  F   LIG     1      15.342  34.074  16.001  1.00  0.00    -0.166 F 
HETATM   17  F   LIG     1      16.565  32.194  16.203  1.00  0.00    -0.166 F 
ENDBRANCH   3  14
TORSDOF 2
ENDMDL
MODEL 11
REMARK VINA RESULT:      -5.6      4.325      7.268
REMARK  2 active torsions:
REMARK  status: ('A' for Active; 'I' for Inactive)
REMARK       I    between atoms: C_2  and  N_3 
REMARK       I    between atoms: C_2  and  N_14 
REMARK    1  A    between atoms: N_3  and  C_4 
REMARK    2  A    between atoms: C_6  and  C_7 
ROOT
HETATM    1  C   LIG     1      14.408  32.258  17.291  1.00  0.00     0.037 A 
HETATM    2  C   LIG     1      15.352  32.436  16.262  1.00  0.00     0.045 A 
HETATM    3  C   LIG     1      15.277  31.675  15.080  1.00  0.00     0.050 A 
HETATM    4  C   LIG     1      14.225  30.756  14.925  1.00  0.00     0.016 A 
HETATM    5  C   LIG     1      13.300  30.562  15.953  1.00  0.00     0.003 A 
HETATM    6  C   LIG     1      13.397  31.299  17.134  1.00  0.00     0.029 A 
ENDROOT
BRANCH   1   7
HETATM    7  N   LIG     1      14.490  33.002  18.520  1.00  0.00    -0.309 N 
HETATM    8  C   LIG     1      15.368  34.126  18.714  1.00  0.00     0.322 C 
HETATM    9  O   LIG     1      15.838  34.729  17.710  1.00  0.00    -0.247 OA
HETATM   10  N   LIG     1      15.691  34.594  20.041  1.00  0.00    -0.343 N 
HETATM   11  C   LIG     1      16.515  35.797  20.194  1.00  0.00     0.154 C 
HETATM   12  C   LIG     1      15.238  33.855  21.224  1.00  0.00     0.154 C 
HETATM   13  H   LIG     1      13.801  32.772  19.269  1.00  0.00     0.170 HD
ENDBRANCH   1   7
BRANCH   3  14
HETATM   14  C   LIG     1      16.261  31.910  13.961  1.00  0.00     0.417 C 
HETATM   15  F   LIG     1      16.344  30.800  13.139  1.00  0.00    -0.166 F 
HETATM   16  F   LIG     1      15.846  32.995  13.212  1.00  0.00    -0.166 F 
HETATM   17  F   LIG     1      17.523  32.168  14.468  1.00  0.00    -0.166 F 
ENDBRANCH   3  14
TORSDOF 2
ENDMDL
MODEL 12
REMARK VINA RESULT:      -5.5      3.969      5.211
REMARK  2 active torsions:
REMARK  status: ('A' for Active; 'I' for Inactive)
REMARK       I    between atoms: C_2  and  N_3 
REMARK       I    between atoms: C_2  and  N_14 
REMARK    1  A    between atoms: N_3  and  C_4 
REMARK    2  A    between atoms: C_6  and  C_7 
ROOT
HETATM    1  C   LIG     1      18.709  38.047  19.937  1.00  0.00     0.037 A 
HETATM    2  C   LIG     1      18.148  38.710  18.830  1.00  0.00     0.045 A 
HETATM    3  C   LIG     1      18.968  39.393  17.912  1.00  0.00     0.050 A 
HETATM    4  C   LIG     1      20.361  39.375  18.096  1.00  0.00     0.016 A 
HETATM    5  C   LIG     1      20.918  38.736  19.206  1.00  0.00     0.003 A 
HETATM    6  C   LIG     1      20.097  38.086  20.128  1.00  0.00     0.029 A 
ENDROOT
BRANCH   1   7
HETATM    7  N   LIG     1      17.883  37.374  20.905  1.00  0.00    -0.309 N 
HETATM    8  C   LIG     1      17.608  37.895  22.218  1.00  0.00     0.322 C 
HETATM    9  O   LIG     1      17.782  39.124  22.449  1.00  0.00    -0.247 OA
HETATM   10  N   LIG     1      17.104  37.040  23.266  1.00  0.00    -0.343 N 
HETATM   11  C   LIG     1      16.751  37.627  24.562  1.00  0.00     0.154 C 
HETATM   12  C   LIG     1      16.984  35.593  23.054  1.00  0.00     0.154 C 
HETATM   13  H   LIG     1      17.379  36.515  20.594  1.00  0.00     0.170 HD
ENDBRANCH   1   7
BRANCH   3  14
HETATM   14  C   LIG     1      18.364  40.055  16.699  1.00  0.00     0.417 C 
HETATM   15  F   LIG     1      18.246  39.155  15.654  1.00  0.00    -0.166 F 
HETATM   16  F   LIG     1      17.110  40.537  17.021  1.00  0.00    -0.166 F 
HETATM   17  F   LIG     1      19.156  41.108  16.273  1.00  0.00    -0.166 F 
ENDBRANCH   3  14
TORSDOF 2
ENDMDL
MODEL 13
REMARK VINA RESULT:      -5.4      6.105      7.657
REMARK  2 active torsions:
REMARK  status: ('A' for Active; 'I' for Inactive)
REMARK       I    between atoms: C_2  and  N_3 
REMARK       I    between atoms: C_2  and  N_14 
REMARK    1  A    between atoms: N_3  and  C_4 
REMARK    2  A    between atoms: C_6  and  C_7 
ROOT
HETATM    1  C   LIG     1      14.496  30.911  15.533  1.00  0.00     0.037 A 
HETATM    2  C   LIG     1      15.604  31.554  14.950  1.00  0.00     0.045 A 
HETATM    3  C   LIG     1      16.013  32.824  15.397  1.00  0.00     0.050 A 
HETATM    4  C   LIG     1      15.321  33.430  16.459  1.00  0.00     0.016 A 
HETATM    5  C   LIG     1      14.208  32.804  17.024  1.00  0.00     0.003 A 
HETATM    6  C   LIG     1      13.790  31.558  16.557  1.00  0.00     0.029 A 
ENDROOT
BRANCH   1   7
HETATM    7  N   LIG     1      14.042  29.628  15.065  1.00  0.00    -0.309 N 
HETATM    8  C   LIG     1      14.802  28.790  14.175  1.00  0.00     0.322 C 
HETATM    9  O   LIG     1      16.045  28.977  14.053  1.00  0.00    -0.247 OA
HETATM   10  N   LIG     1      14.170  27.716  13.446  1.00  0.00    -0.343 N 
HETATM   11  C   LIG     1      14.995  26.829  12.621  1.00  0.00     0.154 C 
HETATM   12  C   LIG     1      12.715  27.537  13.494  1.00  0.00     0.154 C 
HETATM   13  H   LIG     1      13.162  29.249  15.476  1.00  0.00     0.170 HD
ENDBRANCH   1   7
BRANCH   3  14
HETATM   14  C   LIG     1      17.234  33.482  14.803  1.00  0.00     0.417 C 
HETATM   15  F   LIG     1      18.381  32.781  15.134  1.00  0.00    -0.166 F 
HETATM   16  F   LIG     1      17.109  33.516  13.427  1.00  0.00    -0.166 F 
HETATM   17  F   LIG     1      17.369  34.776  15.276  1.00  0.00    -0.166 F 
ENDBRANCH   3  14
TORSDOF 2
ENDMDL
MODEL 14
REMARK VINA RESULT:      -5.1      8.457     11.508
REMARK  2 active torsions:
REMARK  status: ('A' for Active; 'I' for Inactive)
REMARK       I    between atoms: C_2  and  N_3 
REMARK       I    between atoms: C_2  and  N_14 
REMARK    1  A    between atoms: N_3  and  C_4 
REMARK    2  A    between atoms: C_6  and  C_7 
ROOT
HETATM    1  C   LIG     1      14.240  29.310  14.278  1.00  0.00     0.037 A 
HETATM    2  C   LIG     1      12.974  28.855  13.864  1.00  0.00     0.045 A 
HETATM    3  C   LIG     1      12.841  27.637  13.171  1.00  0.00     0.050 A 
HETATM    4  C   LIG     1      13.987  26.861  12.927  1.00  0.00     0.016 A 
HETATM    5  C   LIG     1      15.246  27.321  13.316  1.00  0.00     0.003 A 
HETATM    6  C   LIG     1      15.375  28.543  13.977  1.00  0.00     0.029 A 
ENDROOT
BRANCH   1   7
HETATM    7  N   LIG     1      14.399  30.569  14.955  1.00  0.00    -0.309 N 
HETATM    8  C   LIG     1      15.461  31.499  14.671  1.00  0.00     0.322 C 
HETATM    9  O   LIG     1      16.084  31.417  13.576  1.00  0.00    -0.247 OA
HETATM   10  N   LIG     1      15.800  32.546  15.605  1.00  0.00    -0.343 N 
HETATM   11  C   LIG     1      16.825  33.527  15.239  1.00  0.00     0.154 C 
HETATM   12  C   LIG     1      15.160  32.606  16.924  1.00  0.00     0.154 C 
HETATM   13  H   LIG     1      13.644  30.861  15.613  1.00  0.00     0.170 HD
ENDBRANCH   1   7
BRANCH   3  14
HETATM   14  C   LIG     1      11.475  27.131  12.779  1.00  0.00     0.417 C 
HETATM   15  F   LIG     1      11.182  25.948  13.435  1.00  0.00    -0.166 F 
HETATM   16  F   LIG     1      10.526  28.078  13.114  1.00  0.00    -0.166 F 
HETATM   17  F   LIG     1      11.416  26.894  11.416  1.00  0.00    -0.166 F 
ENDBRANCH   3  14
TORSDOF 2
ENDMDL
MODEL 15
REMARK VINA RESULT:      -5.1      5.809      8.381
REMARK  2 active torsions:
REMARK  status: ('A' for Active; 'I' for Inactive)
REMARK       I    between atoms: C_2  and  N_3 
REMARK       I    between atoms: C_2  and  N_14 
REMARK    1  A    between atoms: N_3  and  C_4 
REMARK    2  A    between atoms: C_6  and  C_7 
ROOT
HETATM    1  C   LIG     1      15.577  32.418  16.395  1.00  0.00     0.037 A 
HETATM    2  C   LIG     1      14.498  31.519  16.301  1.00  0.00     0.045 A 
HETATM    3  C   LIG     1      14.249  30.819  15.105  1.00  0.00     0.050 A 
HETATM    4  C   LIG     1      15.115  31.004  14.013  1.00  0.00     0.016 A 
HETATM    5  C   LIG     1      16.172  31.912  14.097  1.00  0.00     0.003 A 
HETATM    6  C   LIG     1      16.396  32.624  15.276  1.00  0.00     0.029 A 
ENDROOT
BRANCH   1   7
HETATM    7  N   LIG     1      15.825  33.167  17.598  1.00  0.00    -0.309 N 
HETATM    8  C   LIG     1      15.256  32.832  18.878  1.00  0.00     0.322 C 
HETATM    9  O   LIG     1      14.809  31.668  19.075  1.00  0.00    -0.247 OA
HETATM   10  N   LIG     1      15.221  33.798  19.950  1.00  0.00    -0.343 N 
HETATM   11  C   LIG     1      14.718  33.390  21.264  1.00  0.00     0.154 C 
HETATM   12  C   LIG     1      15.644  35.184  19.720  1.00  0.00     0.154 C 
HETATM   13  H   LIG     1      16.534  33.931  17.552  1.00  0.00     0.170 HD
ENDBRANCH   1   7
BRANCH   3  14
HETATM   14  C   LIG     1      13.123  29.818  15.030  1.00  0.00     0.417 C 
HETATM   15  F   LIG     1      13.558  28.632  14.464  1.00  0.00    -0.166 F 
HETATM   16  F   LIG     1      12.656  29.564  16.305  1.00  0.00    -0.166 F 
HETATM   17  F   LIG     1      12.085  30.310  14.258  1.00  0.00    -0.166 F 
ENDBRANCH   3  14
TORSDOF 2
ENDMDL
MODEL 16
REMARK VINA RESULT:      -5.1      3.751      5.910
REMARK  2 active torsions:
REMARK  status: ('A' for Active; 'I' for Inactive)
REMARK       I    between atoms: C_2  and  N_3 
REMARK       I    between atoms: C_2  and  N_14 
REMARK    1  A    between atoms: N_3  and  C_4 
REMARK    2  A    between atoms: C_6  and  C_7 
ROOT
HETATM    1  C   LIG     1      16.218  35.371  20.345  1.00  0.00     0.037 A 
HETATM    2  C   LIG     1      15.908  34.934  19.044  1.00  0.00     0.045 A 
HETATM    3  C   LIG     1      15.336  33.665  18.830  1.00  0.00     0.050 A 
HETATM    4  C   LIG     1      15.047  32.851  19.939  1.00  0.00     0.016 A 
HETATM    5  C   LIG     1      15.374  33.273  21.229  1.00  0.00     0.003 A 
HETATM    6  C   LIG     1      15.967  34.520  21.431  1.00  0.00     0.029 A 
ENDROOT
BRANCH   1   7
HETATM    7  N   LIG     1      16.836  36.649  20.579  1.00  0.00    -0.309 N 
HETATM    8  C   LIG     1      18.093  37.045  20.001  1.00  0.00     0.322 C 
HETATM    9  O   LIG     1      18.532  36.435  18.987  1.00  0.00    -0.247 OA
HETATM   10  N   LIG     1      18.844  38.151  20.545  1.00  0.00    -0.343 N 
HETATM   11  C   LIG     1      20.075  38.580  19.873  1.00  0.00     0.154 C 
HETATM   12  C   LIG     1      18.408  38.815  21.778  1.00  0.00     0.154 C 
HETATM   13  H   LIG     1      16.288  37.358  21.114  1.00  0.00     0.170 HD
ENDBRANCH   1   7
BRANCH   3  14
HETATM   14  C   LIG     1      14.957  33.227  17.437  1.00  0.00     0.417 C 
HETATM   15  F   LIG     1      14.689  34.321  16.634  1.00  0.00    -0.166 F 
HETATM   16  F   LIG     1      16.001  32.509  16.887  1.00  0.00    -0.166 F 
HETATM   17  F   LIG     1      13.827  32.428  17.469  1.00  0.00    -0.166 F 
ENDBRANCH   3  14
TORSDOF 2
ENDMDL
MODEL 17
REMARK VINA RESULT:      -5.1     14.939     16.081
REMARK  2 active torsions:
REMARK  status: ('A' for Active; 'I' for Inactive)
REMARK       I    between atoms: C_2  and  N_3 
REMARK       I    between atoms: C_2  and  N_14 
REMARK    1  A    between atoms: N_3  and  C_4 
REMARK    2  A    between atoms: C_6  and  C_7 
ROOT
HETATM    1  C   LIG     1      25.617  22.972  19.372  1.00  0.00     0.037 A 
HETATM    2  C   LIG     1      24.777  23.016  20.500  1.00  0.00     0.045 A 
HETATM    3  C   LIG     1      23.513  22.396  20.477  1.00  0.00     0.050 A 
HETATM    4  C   LIG     1      23.113  21.702  19.322  1.00  0.00     0.016 A 
HETATM    5  C   LIG     1      23.935  21.676  18.195  1.00  0.00     0.003 A 
HETATM    6  C   LIG     1      25.175  22.317  18.213  1.00  0.00     0.029 A 
ENDROOT
BRANCH   1   7
HETATM    7  N   LIG     1      26.897  23.630  19.365  1.00  0.00    -0.309 N 
HETATM    8  C   LIG     1      27.077  25.020  19.039  1.00  0.00     0.322 C 
HETATM    9  O   LIG     1      26.090  25.806  19.096  1.00  0.00    -0.247 OA
HETATM   10  N   LIG     1      28.376  25.537  18.681  1.00  0.00    -0.343 N 
HETATM   11  C   LIG     1      28.535  26.975  18.446  1.00  0.00     0.154 C 
HETATM   12  C   LIG     1      29.518  24.632  18.513  1.00  0.00     0.154 C 
HETATM   13  H   LIG     1      27.718  23.089  19.713  1.00  0.00     0.170 HD
ENDBRANCH   1   7
BRANCH   3  14
HETATM   14  C   LIG     1      22.642  22.401  21.709  1.00  0.00     0.417 C 
HETATM   15  F   LIG     1      22.356  21.109  22.114  1.00  0.00    -0.166 F 
HETATM   16  F   LIG     1      23.302  23.057  22.730  1.00  0.00    -0.166 F 
HETATM   17  F   LIG     1      21.445  23.049  21.456  1.00  0.00    -0.166 F 
ENDBRANCH   3  14
TORSDOF 2
ENDMDL
MODEL 18
REMARK VINA RESULT:      -5.0     14.763     15.910
REMARK  2 active torsions:
REMARK  status: ('A' for Active; 'I' for Inactive)
REMARK       I    between atoms: C_2  and  N_3 
REMARK       I    between atoms: C_2  and  N_14 
REMARK    1  A    between atoms: N_3  and  C_4 
REMARK    2  A    between atoms: C_6  and  C_7 
ROOT
HETATM    1  C   LIG     1      26.330  23.484  20.855  1.00  0.00     0.037 A 
HETATM    2  C   LIG     1      24.955  23.298  20.618  1.00  0.00     0.045 A 
HETATM    3  C   LIG     1      24.106  22.839  21.643  1.00  0.00     0.050 A 
HETATM    4  C   LIG     1      24.644  22.601  22.920  1.00  0.00     0.016 A 
HETATM    5  C   LIG     1      26.011  22.763  23.151  1.00  0.00     0.003 A 
HETATM    6  C   LIG     1      26.852  23.191  22.123  1.00  0.00     0.029 A 
ENDROOT
BRANCH   1   7
HETATM    7  N   LIG     1      27.218  23.918  19.810  1.00  0.00    -0.309 N 
HETATM    8  C   LIG     1      27.651  25.282  19.647  1.00  0.00     0.322 C 
HETATM    9  O   LIG     1      27.560  26.084  20.617  1.00  0.00    -0.247 OA
HETATM   10  N   LIG     1      28.219  25.735  18.400  1.00  0.00    -0.343 N 
HETATM   11  C   LIG     1      28.731  27.106  18.303  1.00  0.00     0.154 C 
HETATM   12  C   LIG     1      28.248  24.854  17.228  1.00  0.00     0.154 C 
HETATM   13  H   LIG     1      27.646  23.184  19.205  1.00  0.00     0.170 HD
ENDBRANCH   1   7
BRANCH   3  14
HETATM   14  C   LIG     1      22.625  22.694  21.396  1.00  0.00     0.417 C 
HETATM   15  F   LIG     1      22.084  21.717  22.213  1.00  0.00    -0.166 F 
HETATM   16  F   LIG     1      22.000  23.898  21.660  1.00  0.00    -0.166 F 
HETATM   17  F   LIG     1      22.384  22.339  20.080  1.00  0.00    -0.166 F 
ENDBRANCH   3  14
TORSDOF 2
ENDMDL
MODEL 19
REMARK VINA RESULT:      -4.9      7.261      8.973
REMARK  2 active torsions:
REMARK  status: ('A' for Active; 'I' for Inactive)
REMARK       I    between atoms: C_2  and  N_3 
REMARK       I    between atoms: C_2  and  N_14 
REMARK    1  A    between atoms: N_3  and  C_4 
REMARK    2  A    between atoms: C_6  and  C_7 
ROOT
HETATM    1  C   LIG     1      14.156  29.495  14.459  1.00  0.00     0.037 A 
HETATM    2  C   LIG     1      15.194  30.445  14.407  1.00  0.00     0.045 A 
HETATM    3  C   LIG     1      15.145  31.605  15.203  1.00  0.00     0.050 A 
HETATM    4  C   LIG     1      14.060  31.788  16.078  1.00  0.00     0.016 A 
HETATM    5  C   LIG     1      13.019  30.859  16.114  1.00  0.00     0.003 A 
HETATM    6  C   LIG     1      13.059  29.725  15.302  1.00  0.00     0.029 A 
ENDROOT
BRANCH   1   7
HETATM    7  N   LIG     1      14.172  28.321  13.627  1.00  0.00    -0.309 N 
HETATM    8  C   LIG     1      15.380  27.700  13.149  1.00  0.00     0.322 C 
HETATM    9  O   LIG     1      16.475  27.940  13.729  1.00  0.00    -0.247 OA
HETATM   10  N   LIG     1      15.350  26.778  12.039  1.00  0.00    -0.343 N 
HETATM   11  C   LIG     1      16.586  26.097  11.641  1.00  0.00     0.154 C 
HETATM   12  C   LIG     1      14.111  26.555  11.287  1.00  0.00     0.154 C 
HETATM   13  H   LIG     1      13.262  27.844  13.450  1.00  0.00     0.170 HD
ENDBRANCH   1   7
BRANCH   3  14
HETATM   14  C   LIG     1      16.287  32.590  15.181  1.00  0.00     0.417 C 
HETATM   15  F   LIG     1      16.528  33.036  13.893  1.00  0.00    -0.166 F 
HETATM   16  F   LIG     1      15.970  33.672  15.980  1.00  0.00    -0.166 F 
HETATM   17  F   LIG     1      17.447  32.003  15.658  1.00  0.00    -0.166 F 
ENDBRANCH   3  14
TORSDOF 2
ENDMDL
