MODEL 1
REMARK VINA RESULT:      -8.5      0.000      0.000
REMARK  0 active torsions:
REMARK  status: ('A' for Active; 'I' for Inactive)
ROOT
HETATM    1  C   LIG     1      17.061  36.723  22.910  1.00  0.00    -0.014 A 
HETATM    2  C   LIG     1      16.613  36.554  24.250  1.00  0.00     0.013 A 
HETATM    3  C   LIG     1      17.094  37.349  25.283  1.00  0.00     0.001 A 
HETATM    4  C   LIG     1      18.030  38.333  25.024  1.00  0.00     0.001 A 
HETATM    5  C   LIG     1      18.470  38.551  23.723  1.00  0.00     0.013 A 
HETATM    6  C   LIG     1      17.981  37.781  22.632  1.00  0.00    -0.014 A 
HETATM    7  C   LIG     1      18.394  38.031  21.291  1.00  0.00    -0.014 A 
HETATM    8  C   LIG     1      19.249  39.119  20.962  1.00  0.00     0.013 A 
HETATM    9  C   LIG     1      19.687  39.333  19.660  1.00  0.00     0.001 A 
HETATM   10  C   LIG     1      19.293  38.479  18.647  1.00  0.00     0.001 A 
HETATM   11  C   LIG     1      18.434  37.421  18.921  1.00  0.00     0.013 A 
HETATM   12  C   LIG     1      17.937  37.186  20.233  1.00  0.00    -0.014 A 
HETATM   13  C   LIG     1      17.020  36.129  20.511  1.00  0.00    -0.014 A 
HETATM   14  C   LIG     1      16.605  35.879  21.854  1.00  0.00    -0.014 A 
HETATM   15  C   LIG     1      15.748  34.769  22.099  1.00  0.00     0.013 A 
HETATM   16  C   LIG     1      15.271  33.977  21.062  1.00  0.00     0.001 A 
HETATM   17  C   LIG     1      15.623  34.257  19.756  1.00  0.00     0.001 A 
HETATM   18  C   LIG     1      16.483  35.313  19.477  1.00  0.00     0.013 A 
ENDROOT
TORSDOF 0
ENDMDL
MODEL 2
REMARK VINA RESULT:      -8.5      0.020      4.021
REMARK  0 active torsions:
REMARK  status: ('A' for Active; 'I' for Inactive)
ROOT
HETATM    1  C   LIG     1      16.595  35.887  21.855  1.00  0.00    -0.014 A 
HETATM    2  C   LIG     1      15.737  34.779  22.102  1.00  0.00     0.013 A 
HETATM    3  C   LIG     1      15.264  33.980  21.067  1.00  0.00     0.001 A 
HETATM    4  C   LIG     1      15.625  34.251  19.762  1.00  0.00     0.001 A 
HETATM    5  C   LIG     1      16.486  35.305  19.480  1.00  0.00     0.013 A 
HETATM    6  C   LIG     1      17.018  36.128  20.511  1.00  0.00    -0.014 A 
HETATM    7  C   LIG     1      17.938  37.182  20.233  1.00  0.00    -0.014 A 
HETATM    8  C   LIG     1      18.441  37.408  18.922  1.00  0.00     0.013 A 
HETATM    9  C   LIG     1      19.302  38.464  18.645  1.00  0.00     0.001 A 
HETATM   10  C   LIG     1      19.691  39.324  19.655  1.00  0.00     0.001 A 
HETATM   11  C   LIG     1      19.246  39.120  20.956  1.00  0.00     0.013 A 
HETATM   12  C   LIG     1      18.389  38.033  21.287  1.00  0.00    -0.014 A 
HETATM   13  C   LIG     1      17.966  37.793  22.628  1.00  0.00    -0.014 A 
HETATM   14  C   LIG     1      17.045  36.737  22.908  1.00  0.00    -0.014 A 
HETATM   15  C   LIG     1      16.589  36.578  24.246  1.00  0.00     0.013 A 
HETATM   16  C   LIG     1      17.065  37.380  25.277  1.00  0.00     0.001 A 
HETATM   17  C   LIG     1      18.002  38.361  25.016  1.00  0.00     0.001 A 
HETATM   18  C   LIG     1      18.450  38.569  23.717  1.00  0.00     0.013 A 
ENDROOT
TORSDOF 0
ENDMDL
MODEL 3
REMARK VINA RESULT:      -8.5      0.023      4.917
REMARK  0 active torsions:
REMARK  status: ('A' for Active; 'I' for Inactive)
ROOT
HETATM    1  C   LIG     1      18.388  38.026  21.284  1.00  0.00    -0.014 A 
HETATM    2  C   LIG     1      19.244  39.117  20.961  1.00  0.00     0.013 A 
HETATM    3  C   LIG     1      19.690  39.331  19.663  1.00  0.00     0.001 A 
HETATM    4  C   LIG     1      19.304  38.478  18.647  1.00  0.00     0.001 A 
HETATM    5  C   LIG     1      18.444  37.419  18.913  1.00  0.00     0.013 A 
HETATM    6  C   LIG     1      17.939  37.182  20.222  1.00  0.00    -0.014 A 
HETATM    7  C   LIG     1      17.020  36.125  20.493  1.00  0.00    -0.014 A 
HETATM    8  C   LIG     1      16.492  35.310  19.454  1.00  0.00     0.013 A 
HETATM    9  C   LIG     1      15.632  34.252  19.727  1.00  0.00     0.001 A 
HETATM   10  C   LIG     1      15.270  33.971  21.031  1.00  0.00     0.001 A 
HETATM   11  C   LIG     1      15.740  34.763  22.072  1.00  0.00     0.013 A 
HETATM   12  C   LIG     1      16.596  35.873  21.833  1.00  0.00    -0.014 A 
HETATM   13  C   LIG     1      17.045  36.716  22.893  1.00  0.00    -0.014 A 
HETATM   14  C   LIG     1      17.965  37.775  22.623  1.00  0.00    -0.014 A 
HETATM   15  C   LIG     1      18.447  38.545  23.718  1.00  0.00     0.013 A 
HETATM   16  C   LIG     1      17.998  38.325  25.014  1.00  0.00     0.001 A 
HETATM   17  C   LIG     1      17.062  37.341  25.267  1.00  0.00     0.001 A 
HETATM   18  C   LIG     1      16.589  36.546  24.229  1.00  0.00     0.013 A 
ENDROOT
TORSDOF 0
ENDMDL
MODEL 4
REMARK VINA RESULT:      -8.5      0.026      4.021
REMARK  0 active torsions:
REMARK  status: ('A' for Active; 'I' for Inactive)
ROOT
HETATM    1  C   LIG     1      17.939  37.182  20.217  1.00  0.00    -0.014 A 
HETATM    2  C   LIG     1      18.443  37.418  18.907  1.00  0.00     0.013 A 
HETATM    3  C   LIG     1      19.303  38.476  18.639  1.00  0.00     0.001 A 
HETATM    4  C   LIG     1      19.689  39.331  19.654  1.00  0.00     0.001 A 
HETATM    5  C   LIG     1      19.243  39.117  20.954  1.00  0.00     0.013 A 
HETATM    6  C   LIG     1      18.388  38.027  21.278  1.00  0.00    -0.014 A 
HETATM    7  C   LIG     1      17.965  37.776  22.616  1.00  0.00    -0.014 A 
HETATM    8  C   LIG     1      18.448  38.547  23.710  1.00  0.00     0.013 A 
HETATM    9  C   LIG     1      17.999  38.329  25.008  1.00  0.00     0.001 A 
HETATM   10  C   LIG     1      17.063  37.344  25.261  1.00  0.00     0.001 A 
HETATM   11  C   LIG     1      16.589  36.548  24.225  1.00  0.00     0.013 A 
HETATM   12  C   LIG     1      17.046  36.717  22.888  1.00  0.00    -0.014 A 
HETATM   13  C   LIG     1      16.596  35.874  21.829  1.00  0.00    -0.014 A 
HETATM   14  C   LIG     1      17.020  36.125  20.488  1.00  0.00    -0.014 A 
HETATM   15  C   LIG     1      16.490  35.308  19.450  1.00  0.00     0.013 A 
HETATM   16  C   LIG     1      15.631  34.251  19.724  1.00  0.00     0.001 A 
HETATM   17  C   LIG     1      15.270  33.970  21.028  1.00  0.00     0.001 A 
HETATM   18  C   LIG     1      15.740  34.764  22.068  1.00  0.00     0.013 A 
ENDROOT
TORSDOF 0
ENDMDL
MODEL 5
REMARK VINA RESULT:      -8.4      0.012      4.922
REMARK  0 active torsions:
REMARK  status: ('A' for Active; 'I' for Inactive)
ROOT
HETATM    1  C   LIG     1      17.016  36.126  20.511  1.00  0.00    -0.014 A 
HETATM    2  C   LIG     1      16.481  35.306  19.478  1.00  0.00     0.013 A 
HETATM    3  C   LIG     1      15.620  34.252  19.759  1.00  0.00     0.001 A 
HETATM    4  C   LIG     1      15.262  33.978  21.065  1.00  0.00     0.001 A 
HETATM    5  C   LIG     1      15.738  34.773  22.101  1.00  0.00     0.013 A 
HETATM    6  C   LIG     1      16.596  35.880  21.855  1.00  0.00    -0.014 A 
HETATM    7  C   LIG     1      17.050  36.727  22.909  1.00  0.00    -0.014 A 
HETATM    8  C   LIG     1      16.598  36.564  24.247  1.00  0.00     0.013 A 
HETATM    9  C   LIG     1      17.077  37.362  25.280  1.00  0.00     0.001 A 
HETATM   10  C   LIG     1      18.015  38.344  25.019  1.00  0.00     0.001 A 
HETATM   11  C   LIG     1      18.460  38.556  23.720  1.00  0.00     0.013 A 
HETATM   12  C   LIG     1      17.972  37.783  22.630  1.00  0.00    -0.014 A 
HETATM   13  C   LIG     1      18.392  38.027  21.288  1.00  0.00    -0.014 A 
HETATM   14  C   LIG     1      17.937  37.179  20.233  1.00  0.00    -0.014 A 
HETATM   15  C   LIG     1      18.438  37.409  18.921  1.00  0.00     0.013 A 
HETATM   16  C   LIG     1      19.300  38.464  18.646  1.00  0.00     0.001 A 
HETATM   17  C   LIG     1      19.691  39.321  19.657  1.00  0.00     0.001 A 
HETATM   18  C   LIG     1      19.249  39.112  20.958  1.00  0.00     0.013 A 
ENDROOT
TORSDOF 0
ENDMDL
MODEL 6
REMARK VINA RESULT:      -8.4      0.062      4.022
REMARK  0 active torsions:
REMARK  status: ('A' for Active; 'I' for Inactive)
ROOT
HETATM    1  C   LIG     1      18.026  37.786  22.641  1.00  0.00    -0.014 A 
HETATM    2  C   LIG     1      18.544  38.558  23.720  1.00  0.00     0.013 A 
HETATM    3  C   LIG     1      18.125  38.350  25.028  1.00  0.00     0.001 A 
HETATM    4  C   LIG     1      17.184  37.378  25.310  1.00  0.00     0.001 A 
HETATM    5  C   LIG     1      16.676  36.582  24.290  1.00  0.00     0.013 A 
HETATM    6  C   LIG     1      17.101  36.739  22.941  1.00  0.00    -0.014 A 
HETATM    7  C   LIG     1      16.618  35.895  21.898  1.00  0.00    -0.014 A 
HETATM    8  C   LIG     1      15.756  34.796  22.164  1.00  0.00     0.013 A 
HETATM    9  C   LIG     1      15.250  34.003  21.140  1.00  0.00     0.001 A 
HETATM   10  C   LIG     1      15.583  34.274  19.825  1.00  0.00     0.001 A 
HETATM   11  C   LIG     1      16.447  35.320  19.525  1.00  0.00     0.013 A 
HETATM   12  C   LIG     1      17.012  36.135  20.545  1.00  0.00    -0.014 A 
HETATM   13  C   LIG     1      17.935  37.181  20.246  1.00  0.00    -0.014 A 
HETATM   14  C   LIG     1      18.419  38.026  21.291  1.00  0.00    -0.014 A 
HETATM   15  C   LIG     1      19.279  39.105  20.941  1.00  0.00     0.013 A 
HETATM   16  C   LIG     1      19.694  39.308  19.631  1.00  0.00     0.001 A 
HETATM   17  C   LIG     1      19.274  38.453  18.630  1.00  0.00     0.001 A 
HETATM   18  C   LIG     1      18.409  37.405  18.925  1.00  0.00     0.013 A 
ENDROOT
TORSDOF 0
ENDMDL
MODEL 7
REMARK VINA RESULT:      -5.9     15.412     17.541
REMARK  0 active torsions:
REMARK  status: ('A' for Active; 'I' for Inactive)
ROOT
HETATM    1  C   LIG     1      23.851  21.152  19.149  1.00  0.00    -0.014 A 
HETATM    2  C   LIG     1      23.479  20.641  17.874  1.00  0.00     0.013 A 
HETATM    3  C   LIG     1      22.753  19.462  17.747  1.00  0.00     0.001 A 
HETATM    4  C   LIG     1      22.374  18.756  18.873  1.00  0.00     0.001 A 
HETATM    5  C   LIG     1      22.691  19.237  20.138  1.00  0.00     0.013 A 
HETATM    6  C   LIG     1      23.405  20.455  20.314  1.00  0.00    -0.014 A 
HETATM    7  C   LIG     1      23.692  20.976  21.610  1.00  0.00    -0.014 A 
HETATM    8  C   LIG     1      23.203  20.354  22.792  1.00  0.00     0.013 A 
HETATM    9  C   LIG     1      23.523  20.839  24.055  1.00  0.00     0.001 A 
HETATM   10  C   LIG     1      24.333  21.951  24.186  1.00  0.00     0.001 A 
HETATM   11  C   LIG     1      24.806  22.606  23.055  1.00  0.00     0.013 A 
HETATM   12  C   LIG     1      24.477  22.162  21.745  1.00  0.00    -0.014 A 
HETATM   13  C   LIG     1      24.923  22.857  20.582  1.00  0.00    -0.014 A 
HETATM   14  C   LIG     1      24.635  22.336  19.284  1.00  0.00    -0.014 A 
HETATM   15  C   LIG     1      25.162  23.018  18.151  1.00  0.00     0.013 A 
HETATM   16  C   LIG     1      25.887  24.195  18.285  1.00  0.00     0.001 A 
HETATM   17  C   LIG     1      26.113  24.733  19.537  1.00  0.00     0.001 A 
HETATM   18  C   LIG     1      25.643  24.081  20.671  1.00  0.00     0.013 A 
ENDROOT
TORSDOF 0
ENDMDL
MODEL 8
REMARK VINA RESULT:      -5.9     15.429     17.211
REMARK  0 active torsions:
REMARK  status: ('A' for Active; 'I' for Inactive)
ROOT
HETATM    1  C   LIG     1      23.444  20.471  20.341  1.00  0.00    -0.014 A 
HETATM    2  C   LIG     1      22.720  19.257  20.173  1.00  0.00     0.013 A 
HETATM    3  C   LIG     1      22.389  18.777  18.912  1.00  0.00     0.001 A 
HETATM    4  C   LIG     1      22.762  19.479  17.782  1.00  0.00     0.001 A 
HETATM    5  C   LIG     1      23.496  20.654  17.901  1.00  0.00     0.013 A 
HETATM    6  C   LIG     1      23.883  21.164  19.172  1.00  0.00    -0.014 A 
HETATM    7  C   LIG     1      24.676  22.343  19.298  1.00  0.00    -0.014 A 
HETATM    8  C   LIG     1      25.196  23.020  18.160  1.00  0.00     0.013 A 
HETATM    9  C   LIG     1      25.930  24.194  18.285  1.00  0.00     0.001 A 
HETATM   10  C   LIG     1      26.171  24.731  19.536  1.00  0.00     0.001 A 
HETATM   11  C   LIG     1      25.707  24.084  20.674  1.00  0.00     0.013 A 
HETATM   12  C   LIG     1      24.979  22.864  20.592  1.00  0.00    -0.014 A 
HETATM   13  C   LIG     1      24.539  22.173  21.760  1.00  0.00    -0.014 A 
HETATM   14  C   LIG     1      23.746  20.992  21.634  1.00  0.00    -0.014 A 
HETATM   15  C   LIG     1      23.264  20.374  22.822  1.00  0.00     0.013 A 
HETATM   16  C   LIG     1      23.598  20.859  24.081  1.00  0.00     0.001 A 
HETATM   17  C   LIG     1      24.416  21.966  24.203  1.00  0.00     0.001 A 
HETATM   18  C   LIG     1      24.883  22.617  23.067  1.00  0.00     0.013 A 
ENDROOT
TORSDOF 0
ENDMDL
MODEL 9
REMARK VINA RESULT:      -5.9     15.424     17.211
REMARK  0 active torsions:
REMARK  status: ('A' for Active; 'I' for Inactive)
ROOT
HETATM    1  C   LIG     1      24.666  22.327  19.279  1.00  0.00    -0.014 A 
HETATM    2  C   LIG     1      25.210  23.009  18.154  1.00  0.00     0.013 A 
HETATM    3  C   LIG     1      25.939  24.183  18.299  1.00  0.00     0.001 A 
HETATM    4  C   LIG     1      26.151  24.718  19.555  1.00  0.00     0.001 A 
HETATM    5  C   LIG     1      25.662  24.067  20.682  1.00  0.00     0.013 A 
HETATM    6  C   LIG     1      24.938  22.846  20.582  1.00  0.00    -0.014 A 
HETATM    7  C   LIG     1      24.474  22.151  21.737  1.00  0.00    -0.014 A 
HETATM    8  C   LIG     1      24.787  22.593  23.052  1.00  0.00     0.013 A 
HETATM    9  C   LIG     1      24.296  21.938  24.176  1.00  0.00     0.001 A 
HETATM   10  C   LIG     1      23.483  20.829  24.032  1.00  0.00     0.001 A 
HETATM   11  C   LIG     1      23.178  20.347  22.765  1.00  0.00     0.013 A 
HETATM   12  C   LIG     1      23.686  20.968  21.590  1.00  0.00    -0.014 A 
HETATM   13  C   LIG     1      23.413  20.451  20.289  1.00  0.00    -0.014 A 
HETATM   14  C   LIG     1      23.878  21.147  19.132  1.00  0.00    -0.014 A 
HETATM   15  C   LIG     1      23.521  20.639  17.851  1.00  0.00     0.013 A 
HETATM   16  C   LIG     1      22.791  19.465  17.712  1.00  0.00     0.001 A 
HETATM   17  C   LIG     1      22.395  18.758  18.832  1.00  0.00     0.001 A 
HETATM   18  C   LIG     1      22.696  19.237  20.101  1.00  0.00     0.013 A 
ENDROOT
TORSDOF 0
ENDMDL
MODEL 10
REMARK VINA RESULT:      -5.9     15.424     16.744
REMARK  0 active torsions:
REMARK  status: ('A' for Active; 'I' for Inactive)
ROOT
HETATM    1  C   LIG     1      23.779  21.021  21.630  1.00  0.00    -0.014 A 
HETATM    2  C   LIG     1      23.310  20.411  22.827  1.00  0.00     0.013 A 
HETATM    3  C   LIG     1      23.651  20.909  24.079  1.00  0.00     0.001 A 
HETATM    4  C   LIG     1      24.463  22.021  24.185  1.00  0.00     0.001 A 
HETATM    5  C   LIG     1      24.918  22.665  23.040  1.00  0.00     0.013 A 
HETATM    6  C   LIG     1      24.567  22.208  21.739  1.00  0.00    -0.014 A 
HETATM    7  C   LIG     1      24.993  22.892  20.563  1.00  0.00    -0.014 A 
HETATM    8  C   LIG     1      25.714  24.116  20.628  1.00  0.00     0.013 A 
HETATM    9  C   LIG     1      26.167  24.756  19.480  1.00  0.00     0.001 A 
HETATM   10  C   LIG     1      25.919  24.205  18.236  1.00  0.00     0.001 A 
HETATM   11  C   LIG     1      25.192  23.027  18.127  1.00  0.00     0.013 A 
HETATM   12  C   LIG     1      24.683  22.357  19.275  1.00  0.00    -0.014 A 
HETATM   13  C   LIG     1      23.897  21.171  19.165  1.00  0.00    -0.014 A 
HETATM   14  C   LIG     1      23.470  20.487  20.344  1.00  0.00    -0.014 A 
HETATM   15  C   LIG     1      22.753  19.267  20.192  1.00  0.00     0.013 A 
HETATM   16  C   LIG     1      22.415  18.774  18.937  1.00  0.00     0.001 A 
HETATM   17  C   LIG     1      22.775  19.469  17.799  1.00  0.00     0.001 A 
HETATM   18  C   LIG     1      23.504  20.648  17.903  1.00  0.00     0.013 A 
ENDROOT
TORSDOF 0
ENDMDL
MODEL 11
REMARK VINA RESULT:      -5.9     15.426     17.197
REMARK  0 active torsions:
REMARK  status: ('A' for Active; 'I' for Inactive)
ROOT
HETATM    1  C   LIG     1      24.578  22.226  21.741  1.00  0.00    -0.014 A 
HETATM    2  C   LIG     1      24.925  22.695  23.039  1.00  0.00     0.013 A 
HETATM    3  C   LIG     1      24.471  22.057  24.187  1.00  0.00     0.001 A 
HETATM    4  C   LIG     1      23.665  20.939  24.088  1.00  0.00     0.001 A 
HETATM    5  C   LIG     1      23.329  20.430  22.839  1.00  0.00     0.013 A 
HETATM    6  C   LIG     1      23.797  21.034  21.638  1.00  0.00    -0.014 A 
HETATM    7  C   LIG     1      23.493  20.490  20.356  1.00  0.00    -0.014 A 
HETATM    8  C   LIG     1      22.783  19.266  20.212  1.00  0.00     0.013 A 
HETATM    9  C   LIG     1      22.449  18.761  18.960  1.00  0.00     0.001 A 
HETATM   10  C   LIG     1      22.808  19.451  17.816  1.00  0.00     0.001 A 
HETATM   11  C   LIG     1      23.529  20.634  17.913  1.00  0.00     0.013 A 
HETATM   12  C   LIG     1      23.918  21.168  19.173  1.00  0.00    -0.014 A 
HETATM   13  C   LIG     1      24.697  22.359  19.275  1.00  0.00    -0.014 A 
HETATM   14  C   LIG     1      25.002  22.904  20.560  1.00  0.00    -0.014 A 
HETATM   15  C   LIG     1      25.717  24.133  20.617  1.00  0.00     0.013 A 
HETATM   16  C   LIG     1      26.167  24.768  19.466  1.00  0.00     0.001 A 
HETATM   17  C   LIG     1      25.925  24.208  18.226  1.00  0.00     0.001 A 
HETATM   18  C   LIG     1      25.203  23.024  18.124  1.00  0.00     0.013 A 
ENDROOT
TORSDOF 0
ENDMDL
MODEL 12
REMARK VINA RESULT:      -5.9     15.380     17.246
REMARK  0 active torsions:
REMARK  status: ('A' for Active; 'I' for Inactive)
ROOT
HETATM    1  C   LIG     1      25.074  23.001  20.568  1.00  0.00    -0.014 A 
HETATM    2  C   LIG     1      25.799  24.225  20.618  1.00  0.00     0.013 A 
HETATM    3  C   LIG     1      26.236  24.858  19.461  1.00  0.00     0.001 A 
HETATM    4  C   LIG     1      25.971  24.303  18.224  1.00  0.00     0.001 A 
HETATM    5  C   LIG     1      25.239  23.125  18.130  1.00  0.00     0.013 A 
HETATM    6  C   LIG     1      24.746  22.460  19.287  1.00  0.00    -0.014 A 
HETATM    7  C   LIG     1      23.956  21.277  19.194  1.00  0.00    -0.014 A 
HETATM    8  C   LIG     1      23.545  20.748  17.940  1.00  0.00     0.013 A 
HETATM    9  C   LIG     1      22.814  19.569  17.851  1.00  0.00     0.001 A 
HETATM   10  C   LIG     1      22.468  18.880  18.999  1.00  0.00     0.001 A 
HETATM   11  C   LIG     1      22.824  19.379  20.246  1.00  0.00     0.013 A 
HETATM   12  C   LIG     1      23.545  20.598  20.382  1.00  0.00    -0.014 A 
HETATM   13  C   LIG     1      23.873  21.137  21.662  1.00  0.00    -0.014 A 
HETATM   14  C   LIG     1      24.664  22.323  21.755  1.00  0.00    -0.014 A 
HETATM   15  C   LIG     1      25.034  22.786  23.048  1.00  0.00     0.013 A 
HETATM   16  C   LIG     1      24.594  22.149  24.202  1.00  0.00     0.001 A 
HETATM   17  C   LIG     1      23.778  21.037  24.112  1.00  0.00     0.001 A 
HETATM   18  C   LIG     1      23.420  20.534  22.867  1.00  0.00     0.013 A 
ENDROOT
TORSDOF 0
ENDMDL
MODEL 13
REMARK VINA RESULT:      -5.5     15.873     16.599
REMARK  0 active torsions:
REMARK  status: ('A' for Active; 'I' for Inactive)
ROOT
HETATM    1  C   LIG     1      26.287  23.417  21.864  1.00  0.00    -0.014 A 
HETATM    2  C   LIG     1      26.938  23.675  23.103  1.00  0.00     0.013 A 
HETATM    3  C   LIG     1      26.491  23.109  24.291  1.00  0.00     0.001 A 
HETATM    4  C   LIG     1      25.391  22.273  24.291  1.00  0.00     0.001 A 
HETATM    5  C   LIG     1      24.745  21.971  23.098  1.00  0.00     0.013 A 
HETATM    6  C   LIG     1      25.188  22.503  21.855  1.00  0.00    -0.014 A 
HETATM    7  C   LIG     1      24.557  22.160  20.623  1.00  0.00    -0.014 A 
HETATM    8  C   LIG     1      23.511  21.199  20.561  1.00  0.00     0.013 A 
HETATM    9  C   LIG     1      22.867  20.900  19.365  1.00  0.00     0.001 A 
HETATM   10  C   LIG     1      23.241  21.541  18.198  1.00  0.00     0.001 A 
HETATM   11  C   LIG     1      24.279  22.464  18.211  1.00  0.00     0.013 A 
HETATM   12  C   LIG     1      24.984  22.775  19.407  1.00  0.00    -0.014 A 
HETATM   13  C   LIG     1      26.081  23.688  19.416  1.00  0.00    -0.014 A 
HETATM   14  C   LIG     1      26.713  24.031  20.650  1.00  0.00    -0.014 A 
HETATM   15  C   LIG     1      27.753  25.003  20.627  1.00  0.00     0.013 A 
HETATM   16  C   LIG     1      28.195  25.566  19.436  1.00  0.00     0.001 A 
HETATM   17  C   LIG     1      27.625  25.187  18.235  1.00  0.00     0.001 A 
HETATM   18  C   LIG     1      26.585  24.265  18.218  1.00  0.00     0.013 A 
ENDROOT
TORSDOF 0
ENDMDL
MODEL 14
REMARK VINA RESULT:      -5.5     15.861     16.916
REMARK  0 active torsions:
REMARK  status: ('A' for Active; 'I' for Inactive)
ROOT
HETATM    1  C   LIG     1      24.990  22.778  19.423  1.00  0.00    -0.014 A 
HETATM    2  C   LIG     1      24.287  22.477  18.222  1.00  0.00     0.013 A 
HETATM    3  C   LIG     1      23.252  21.551  18.198  1.00  0.00     0.001 A 
HETATM    4  C   LIG     1      22.880  20.896  19.356  1.00  0.00     0.001 A 
HETATM    5  C   LIG     1      23.520  21.183  20.557  1.00  0.00     0.013 A 
HETATM    6  C   LIG     1      24.564  22.147  20.632  1.00  0.00    -0.014 A 
HETATM    7  C   LIG     1      25.192  22.479  21.868  1.00  0.00    -0.014 A 
HETATM    8  C   LIG     1      24.749  21.931  23.104  1.00  0.00     0.013 A 
HETATM    9  C   LIG     1      25.392  22.221  24.301  1.00  0.00     0.001 A 
HETATM   10  C   LIG     1      26.490  23.061  24.312  1.00  0.00     0.001 A 
HETATM   11  C   LIG     1      26.936  23.642  23.131  1.00  0.00     0.013 A 
HETATM   12  C   LIG     1      26.287  23.396  21.889  1.00  0.00    -0.014 A 
HETATM   13  C   LIG     1      26.713  24.025  20.682  1.00  0.00    -0.014 A 
HETATM   14  C   LIG     1      26.083  23.694  19.443  1.00  0.00    -0.014 A 
HETATM   15  C   LIG     1      26.587  24.286  18.252  1.00  0.00     0.013 A 
HETATM   16  C   LIG     1      27.623  25.212  18.282  1.00  0.00     0.001 A 
HETATM   17  C   LIG     1      28.191  25.579  19.486  1.00  0.00     0.001 A 
HETATM   18  C   LIG     1      27.749  25.000  20.671  1.00  0.00     0.013 A 
ENDROOT
TORSDOF 0
ENDMDL
MODEL 15
REMARK VINA RESULT:      -5.5     15.901     16.741
REMARK  0 active torsions:
REMARK  status: ('A' for Active; 'I' for Inactive)
ROOT
HETATM    1  C   LIG     1      26.727  24.023  20.662  1.00  0.00    -0.014 A 
HETATM    2  C   LIG     1      27.774  24.988  20.649  1.00  0.00     0.013 A 
HETATM    3  C   LIG     1      28.233  25.546  19.463  1.00  0.00     0.001 A 
HETATM    4  C   LIG     1      27.675  25.169  18.256  1.00  0.00     0.001 A 
HETATM    5  C   LIG     1      26.630  24.252  18.227  1.00  0.00     0.013 A 
HETATM    6  C   LIG     1      26.108  23.680  19.421  1.00  0.00    -0.014 A 
HETATM    7  C   LIG     1      25.006  22.775  19.400  1.00  0.00    -0.014 A 
HETATM    8  C   LIG     1      24.314  22.466  18.197  1.00  0.00     0.013 A 
HETATM    9  C   LIG     1      23.270  21.549  18.173  1.00  0.00     0.001 A 
HETATM   10  C   LIG     1      22.880  20.912  19.337  1.00  0.00     0.001 A 
HETATM   11  C   LIG     1      23.509  21.209  20.539  1.00  0.00     0.013 A 
HETATM   12  C   LIG     1      24.561  22.165  20.613  1.00  0.00    -0.014 A 
HETATM   13  C   LIG     1      25.180  22.506  21.852  1.00  0.00    -0.014 A 
HETATM   14  C   LIG     1      26.283  23.413  21.873  1.00  0.00    -0.014 A 
HETATM   15  C   LIG     1      26.921  23.669  23.119  1.00  0.00     0.013 A 
HETATM   16  C   LIG     1      26.457  23.108  24.302  1.00  0.00     0.001 A 
HETATM   17  C   LIG     1      25.352  22.279  24.290  1.00  0.00     0.001 A 
HETATM   18  C   LIG     1      24.719  21.979  23.089  1.00  0.00     0.013 A 
ENDROOT
TORSDOF 0
ENDMDL
MODEL 16
REMARK VINA RESULT:      -5.5     15.823     16.572
REMARK  0 active torsions:
REMARK  status: ('A' for Active; 'I' for Inactive)
ROOT
HETATM    1  C   LIG     1      24.521  22.126  20.667  1.00  0.00    -0.014 A 
HETATM    2  C   LIG     1      23.484  21.152  20.613  1.00  0.00     0.013 A 
HETATM    3  C   LIG     1      22.832  20.850  19.423  1.00  0.00     0.001 A 
HETATM    4  C   LIG     1      23.185  21.498  18.255  1.00  0.00     0.001 A 
HETATM    5  C   LIG     1      24.214  22.433  18.258  1.00  0.00     0.013 A 
HETATM    6  C   LIG     1      24.928  22.749  19.447  1.00  0.00    -0.014 A 
HETATM    7  C   LIG     1      26.014  23.673  19.448  1.00  0.00    -0.014 A 
HETATM    8  C   LIG     1      26.499  24.259  18.246  1.00  0.00     0.013 A 
HETATM    9  C   LIG     1      27.528  25.194  18.255  1.00  0.00     0.001 A 
HETATM   10  C   LIG     1      28.107  25.575  19.451  1.00  0.00     0.001 A 
HETATM   11  C   LIG     1      27.683  25.004  20.645  1.00  0.00     0.013 A 
HETATM   12  C   LIG     1      26.656  24.021  20.676  1.00  0.00    -0.014 A 
HETATM   13  C   LIG     1      26.248  23.399  21.894  1.00  0.00    -0.014 A 
HETATM   14  C   LIG     1      25.161  22.473  21.893  1.00  0.00    -0.014 A 
HETATM   15  C   LIG     1      24.736  21.932  23.139  1.00  0.00     0.013 A 
HETATM   16  C   LIG     1      25.391  22.238  24.326  1.00  0.00     0.001 A 
HETATM   17  C   LIG     1      26.482  23.086  24.317  1.00  0.00     0.001 A 
HETATM   18  C   LIG     1      26.909  23.660  23.125  1.00  0.00     0.013 A 
ENDROOT
TORSDOF 0
ENDMDL
MODEL 17
REMARK VINA RESULT:      -5.5     15.839     16.082
REMARK  0 active torsions:
REMARK  status: ('A' for Active; 'I' for Inactive)
ROOT
HETATM    1  C   LIG     1      25.121  22.525  21.904  1.00  0.00    -0.014 A 
HETATM    2  C   LIG     1      24.673  22.008  23.152  1.00  0.00     0.013 A 
HETATM    3  C   LIG     1      25.315  22.328  24.343  1.00  0.00     0.001 A 
HETATM    4  C   LIG     1      26.415  23.165  24.335  1.00  0.00     0.001 A 
HETATM    5  C   LIG     1      26.865  23.715  23.141  1.00  0.00     0.013 A 
HETATM    6  C   LIG     1      26.218  23.439  21.904  1.00  0.00    -0.014 A 
HETATM    7  C   LIG     1      26.647  24.037  20.682  1.00  0.00    -0.014 A 
HETATM    8  C   LIG     1      27.686  25.009  20.649  1.00  0.00     0.013 A 
HETATM    9  C   LIG     1      28.133  25.556  19.452  1.00  0.00     0.001 A 
HETATM   10  C   LIG     1      27.565  25.159  18.255  1.00  0.00     0.001 A 
HETATM   11  C   LIG     1      26.528  24.236  18.246  1.00  0.00     0.013 A 
HETATM   12  C   LIG     1      26.020  23.676  19.451  1.00  0.00    -0.014 A 
HETATM   13  C   LIG     1      24.924  22.761  19.451  1.00  0.00    -0.014 A 
HETATM   14  C   LIG     1      24.494  22.163  20.674  1.00  0.00    -0.014 A 
HETATM   15  C   LIG     1      23.448  21.200  20.622  1.00  0.00     0.013 A 
HETATM   16  C   LIG     1      22.810  20.884  19.428  1.00  0.00     0.001 A 
HETATM   17  C   LIG     1      23.185  21.508  18.254  1.00  0.00     0.001 A 
HETATM   18  C   LIG     1      24.224  22.433  18.258  1.00  0.00     0.013 A 
ENDROOT
TORSDOF 0
ENDMDL
