REMARK  0 active torsions:
REMARK  status: ('A' for Active; 'I' for Inactive)
ROOT
HETATM    1  C   LIG     1       1.331   0.510  -0.156  1.00  0.00    -0.014 A 
HETATM    2  C   LIG     1       2.668   0.983  -0.277  1.00  0.00     0.013 A 
HETATM    3  C   LIG     1       3.734   0.110  -0.458  1.00  0.00     0.001 A 
HETATM    4  C   LIG     1       3.512  -1.252  -0.525  1.00  0.00     0.001 A 
HETATM    5  C   LIG     1       2.218  -1.753  -0.442  1.00  0.00     0.013 A 
HETATM    6  C   LIG     1       1.095  -0.893  -0.288  1.00  0.00    -0.014 A 
HETATM    7  C   LIG     1      -0.238  -1.398  -0.249  1.00  0.00    -0.014 A 
HETATM    8  C   LIG     1      -0.522  -2.777  -0.451  1.00  0.00     0.013 A 
HETATM    9  C   LIG     1      -1.818  -3.273  -0.367  1.00  0.00     0.001 A 
HETATM   10  C   LIG     1      -2.869  -2.421  -0.082  1.00  0.00     0.001 A 
HETATM   11  C   LIG     1      -2.638  -1.062   0.092  1.00  0.00     0.013 A 
HETATM   12  C   LIG     1      -1.332  -0.509  -0.017  1.00  0.00    -0.014 A 
HETATM   13  C   LIG     1      -1.096   0.892   0.116  1.00  0.00    -0.014 A 
HETATM   14  C   LIG     1       0.239   1.398   0.076  1.00  0.00    -0.014 A 
HETATM   15  C   LIG     1       0.438   2.791   0.288  1.00  0.00     0.013 A 
HETATM   16  C   LIG     1      -0.632   3.659   0.469  1.00  0.00     0.001 A 
HETATM   17  C   LIG     1      -1.927   3.178   0.446  1.00  0.00     0.001 A 
HETATM   18  C   LIG     1      -2.163   1.819   0.273  1.00  0.00     0.013 A 
ENDROOT
TORSDOF 0
