MODEL 1
REMARK VINA RESULT:      -7.3      0.000      0.000
REMARK  4 active torsions:
REMARK  status: ('A' for Active; 'I' for Inactive)
REMARK    1  A    between atoms: C_4  and  N_5 
REMARK    2  A    between atoms: N_5  and  C_6 
REMARK    3  A    between atoms: C_12  and  N_13 
REMARK    4  A    between atoms: N_13  and  C_14 
ROOT
HETATM    1  C   LIG     1      19.158  38.556  19.253  1.00  0.00     0.129 C 
HETATM    2  C   LIG     1      18.890  37.053  19.061  1.00  0.00     0.055 C 
HETATM    3  C   LIG     1      20.661  38.771  19.498  1.00  0.00     0.055 C 
HETATM    4  C   LIG     1      18.748  39.258  18.021  1.00  0.00     0.090 C 
HETATM    5  N   LIG     1      18.425  39.808  17.056  1.00  0.00    -0.195 NA
ENDROOT
BRANCH   1   6
HETATM    6  N   LIG     1      18.379  39.054  20.401  1.00  0.00    -0.201 N 
HETATM    7  H   LIG     1      18.154  40.073  20.452  1.00  0.00     0.179 HD
BRANCH   6   8
HETATM    8  C   LIG     1      17.886  38.231  21.472  1.00  0.00     0.742 A 
HETATM    9  N   LIG     1      17.219  37.074  21.219  1.00  0.00    -0.030 NA
HETATM   10  C   LIG     1      16.766  36.307  22.241  1.00  0.00     0.259 A 
HETATM   11 CL   LIG     1      15.907  34.821  21.905  1.00  0.00    -0.040 Cl
HETATM   12  N   LIG     1      16.981  36.692  23.524  1.00  0.00    -0.030 NA
HETATM   13  C   LIG     1      17.650  37.846  23.787  1.00  0.00     0.741 A 
HETATM   14  N   LIG     1      18.100  38.610  22.759  1.00  0.00     0.130 NA
BRANCH  13  15
HETATM   15  N   LIG     1      17.883  38.261  25.137  1.00  0.00    -0.222 N 
HETATM   16  H   LIG     1      18.317  39.199  25.300  1.00  0.00     0.177 HD
BRANCH  15  17
HETATM   17  C   LIG     1      17.531  37.410  26.274  1.00  0.00     0.134 C 
HETATM   18  C   LIG     1      18.687  36.483  26.640  1.00  0.00     0.027 C 
ENDBRANCH  15  17
ENDBRANCH  13  15
ENDBRANCH   6   8
ENDBRANCH   1   6
TORSDOF 4
ENDMDL
MODEL 2
REMARK VINA RESULT:      -7.3      2.848      4.090
REMARK  4 active torsions:
REMARK  status: ('A' for Active; 'I' for Inactive)
REMARK    1  A    between atoms: C_4  and  N_5 
REMARK    2  A    between atoms: N_5  and  C_6 
REMARK    3  A    between atoms: C_12  and  N_13 
REMARK    4  A    between atoms: N_13  and  C_14 
ROOT
HETATM    1  C   LIG     1      15.436  34.751  20.773  1.00  0.00     0.129 C 
HETATM    2  C   LIG     1      14.494  35.897  21.183  1.00  0.00     0.055 C 
HETATM    3  C   LIG     1      14.805  33.410  21.183  1.00  0.00     0.055 C 
HETATM    4  C   LIG     1      15.604  34.797  19.307  1.00  0.00     0.090 C 
HETATM    5  N   LIG     1      15.737  34.832  18.158  1.00  0.00    -0.195 NA
ENDROOT
BRANCH   1   6
HETATM    6  N   LIG     1      16.741  34.924  21.436  1.00  0.00    -0.201 N 
HETATM    7  H   LIG     1      17.449  34.159  21.361  1.00  0.00     0.179 HD
BRANCH   6   8
HETATM    8  C   LIG     1      17.129  36.087  22.186  1.00  0.00     0.742 A 
HETATM    9  N   LIG     1      17.588  37.204  21.562  1.00  0.00    -0.030 NA
HETATM   10  C   LIG     1      17.944  38.295  22.283  1.00  0.00     0.259 A 
HETATM   11 CL   LIG     1      18.537  39.725  21.471  1.00  0.00    -0.040 Cl
HETATM   12  N   LIG     1      17.838  38.277  23.636  1.00  0.00    -0.030 NA
HETATM   13  C   LIG     1      17.377  37.166  24.269  1.00  0.00     0.741 A 
HETATM   14  N   LIG     1      17.023  36.076  23.541  1.00  0.00     0.130 NA
BRANCH  13  15
HETATM   15  N   LIG     1      17.261  37.136  25.696  1.00  0.00    -0.222 N 
HETATM   16  H   LIG     1      16.419  37.575  26.135  1.00  0.00     0.177 HD
BRANCH  15  17
HETATM   17  C   LIG     1      18.284  36.513  26.537  1.00  0.00     0.134 C 
HETATM   18  C   LIG     1      18.274  34.996  26.375  1.00  0.00     0.027 C 
ENDBRANCH  15  17
ENDBRANCH  13  15
ENDBRANCH   6   8
ENDBRANCH   1   6
TORSDOF 4
ENDMDL
MODEL 3
REMARK VINA RESULT:      -7.2      2.298      4.898
REMARK  4 active torsions:
REMARK  status: ('A' for Active; 'I' for Inactive)
REMARK    1  A    between atoms: C_4  and  N_5 
REMARK    2  A    between atoms: N_5  and  C_6 
REMARK    3  A    between atoms: C_12  and  N_13 
REMARK    4  A    between atoms: N_13  and  C_14 
ROOT
HETATM    1  C   LIG     1      15.460  34.887  20.879  1.00  0.00     0.129 C 
HETATM    2  C   LIG     1      14.500  36.029  21.257  1.00  0.00     0.055 C 
HETATM    3  C   LIG     1      14.844  33.547  21.315  1.00  0.00     0.055 C 
HETATM    4  C   LIG     1      15.637  34.902  19.413  1.00  0.00     0.090 C 
HETATM    5  N   LIG     1      15.776  34.914  18.264  1.00  0.00    -0.195 NA
ENDROOT
BRANCH   1   6
HETATM    6  N   LIG     1      16.758  35.093  21.546  1.00  0.00    -0.201 N 
HETATM    7  H   LIG     1      17.438  34.300  21.578  1.00  0.00     0.179 HD
BRANCH   6   8
HETATM    8  C   LIG     1      17.176  36.323  22.160  1.00  0.00     0.742 A 
HETATM    9  N   LIG     1      17.049  36.517  23.500  1.00  0.00    -0.030 NA
HETATM   10  C   LIG     1      17.454  37.681  24.065  1.00  0.00     0.259 A 
HETATM   11 CL   LIG     1      17.284  37.921  25.789  1.00  0.00    -0.040 Cl
HETATM   12  N   LIG     1      17.992  38.658  23.292  1.00  0.00    -0.030 NA
HETATM   13  C   LIG     1      18.125  38.472  21.952  1.00  0.00     0.741 A 
HETATM   14  N   LIG     1      17.718  37.304  21.393  1.00  0.00     0.130 NA
BRANCH  13  15
HETATM   15  N   LIG     1      18.692  39.496  21.128  1.00  0.00    -0.222 N 
HETATM   16  H   LIG     1      18.936  40.412  21.571  1.00  0.00     0.177 HD
BRANCH  15  17
HETATM   17  C   LIG     1      18.931  39.287  19.699  1.00  0.00     0.134 C 
HETATM   18  C   LIG     1      20.354  38.797  19.450  1.00  0.00     0.027 C 
ENDBRANCH  15  17
ENDBRANCH  13  15
ENDBRANCH   6   8
ENDBRANCH   1   6
TORSDOF 4
ENDMDL
MODEL 4
REMARK VINA RESULT:      -7.0      2.698      5.928
REMARK  4 active torsions:
REMARK  status: ('A' for Active; 'I' for Inactive)
REMARK    1  A    between atoms: C_4  and  N_5 
REMARK    2  A    between atoms: N_5  and  C_6 
REMARK    3  A    between atoms: C_12  and  N_13 
REMARK    4  A    between atoms: N_13  and  C_14 
ROOT
HETATM    1  C   LIG     1      17.516  37.494  24.780  1.00  0.00     0.129 C 
HETATM    2  C   LIG     1      17.059  38.408  25.930  1.00  0.00     0.055 C 
HETATM    3  C   LIG     1      18.877  37.984  24.258  1.00  0.00     0.055 C 
HETATM    4  C   LIG     1      17.648  36.122  25.308  1.00  0.00     0.090 C 
HETATM    5  N   LIG     1      17.750  35.046  25.721  1.00  0.00    -0.195 NA
ENDROOT
BRANCH   1   6
HETATM    6  N   LIG     1      16.515  37.524  23.698  1.00  0.00    -0.201 N 
HETATM    7  H   LIG     1      15.648  38.092  23.831  1.00  0.00     0.179 HD
BRANCH   6   8
HETATM    8  C   LIG     1      16.643  36.829  22.447  1.00  0.00     0.742 A 
HETATM    9  N   LIG     1      17.567  37.208  21.525  1.00  0.00    -0.030 NA
HETATM   10  C   LIG     1      17.679  36.537  20.352  1.00  0.00     0.259 A 
HETATM   11 CL   LIG     1      18.869  37.034  19.171  1.00  0.00    -0.040 Cl
HETATM   12  N   LIG     1      16.868  35.480  20.095  1.00  0.00    -0.030 NA
HETATM   13  C   LIG     1      15.942  35.092  21.013  1.00  0.00     0.741 A 
HETATM   14  N   LIG     1      15.835  35.768  22.185  1.00  0.00     0.130 NA
BRANCH  13  15
HETATM   15  N   LIG     1      15.082  33.978  20.753  1.00  0.00    -0.222 N 
HETATM   16  H   LIG     1      14.255  33.834  21.377  1.00  0.00     0.177 HD
BRANCH  15  17
HETATM   17  C   LIG     1      15.337  33.052  19.649  1.00  0.00     0.134 C 
HETATM   18  C   LIG     1      14.909  31.634  20.015  1.00  0.00     0.027 C 
ENDBRANCH  15  17
ENDBRANCH  13  15
ENDBRANCH   6   8
ENDBRANCH   1   6
TORSDOF 4
ENDMDL
MODEL 5
REMARK VINA RESULT:      -7.0      1.871      3.372
REMARK  4 active torsions:
REMARK  status: ('A' for Active; 'I' for Inactive)
REMARK    1  A    between atoms: C_4  and  N_5 
REMARK    2  A    between atoms: N_5  and  C_6 
REMARK    3  A    between atoms: C_12  and  N_13 
REMARK    4  A    between atoms: N_13  and  C_14 
ROOT
HETATM    1  C   LIG     1      19.156  38.559  19.361  1.00  0.00     0.129 C 
HETATM    2  C   LIG     1      18.824  37.083  19.081  1.00  0.00     0.055 C 
HETATM    3  C   LIG     1      20.665  38.695  19.622  1.00  0.00     0.055 C 
HETATM    4  C   LIG     1      18.782  39.348  18.170  1.00  0.00     0.090 C 
HETATM    5  N   LIG     1      18.488  39.966  17.238  1.00  0.00    -0.195 NA
ENDROOT
BRANCH   1   6
HETATM    6  N   LIG     1      18.393  39.023  20.533  1.00  0.00    -0.201 N 
HETATM    7  H   LIG     1      18.207  40.046  20.640  1.00  0.00     0.179 HD
BRANCH   6   8
HETATM    8  C   LIG     1      17.865  38.163  21.557  1.00  0.00     0.742 A 
HETATM    9  N   LIG     1      17.869  38.543  22.862  1.00  0.00    -0.030 NA
HETATM   10  C   LIG     1      17.362  37.723  23.816  1.00  0.00     0.259 A 
HETATM   11 CL   LIG     1      17.374  38.219  25.493  1.00  0.00    -0.040 Cl
HETATM   12  N   LIG     1      16.843  36.518  23.468  1.00  0.00    -0.030 NA
HETATM   13  C   LIG     1      16.832  36.131  22.164  1.00  0.00     0.741 A 
HETATM   14  N   LIG     1      17.342  36.957  21.215  1.00  0.00     0.130 NA
BRANCH  13  15
HETATM   15  N   LIG     1      16.287  34.863  21.786  1.00  0.00    -0.222 N 
HETATM   16  H   LIG     1      16.227  34.112  22.511  1.00  0.00     0.177 HD
BRANCH  15  17
HETATM   17  C   LIG     1      15.822  34.603  20.423  1.00  0.00     0.134 C 
HETATM   18  C   LIG     1      15.386  33.150  20.262  1.00  0.00     0.027 C 
ENDBRANCH  15  17
ENDBRANCH  13  15
ENDBRANCH   6   8
ENDBRANCH   1   6
TORSDOF 4
ENDMDL
MODEL 6
REMARK VINA RESULT:      -6.6      1.661      5.601
REMARK  4 active torsions:
REMARK  status: ('A' for Active; 'I' for Inactive)
REMARK    1  A    between atoms: C_4  and  N_5 
REMARK    2  A    between atoms: N_5  and  C_6 
REMARK    3  A    between atoms: C_12  and  N_13 
REMARK    4  A    between atoms: N_13  and  C_14 
ROOT
HETATM    1  C   LIG     1      17.576  37.581  24.683  1.00  0.00     0.129 C 
HETATM    2  C   LIG     1      17.086  38.498  25.817  1.00  0.00     0.055 C 
HETATM    3  C   LIG     1      18.986  38.022  24.253  1.00  0.00     0.055 C 
HETATM    4  C   LIG     1      17.620  36.198  25.197  1.00  0.00     0.090 C 
HETATM    5  N   LIG     1      17.654  35.113  25.599  1.00  0.00    -0.195 NA
ENDROOT
BRANCH   1   6
HETATM    6  N   LIG     1      16.647  37.667  23.543  1.00  0.00    -0.201 N 
HETATM    7  H   LIG     1      15.847  38.338  23.594  1.00  0.00     0.179 HD
BRANCH   6   8
HETATM    8  C   LIG     1      16.757  36.891  22.337  1.00  0.00     0.742 A 
HETATM    9  N   LIG     1      15.991  35.786  22.142  1.00  0.00    -0.030 NA
HETATM   10  C   LIG     1      16.103  35.069  20.997  1.00  0.00     0.259 A 
HETATM   11 CL   LIG     1      15.115  33.646  20.755  1.00  0.00    -0.040 Cl
HETATM   12  N   LIG     1      16.981  35.456  20.037  1.00  0.00    -0.030 NA
HETATM   13  C   LIG     1      17.750  36.562  20.223  1.00  0.00     0.741 A 
HETATM   14  N   LIG     1      17.633  37.275  21.372  1.00  0.00     0.130 NA
BRANCH  13  15
HETATM   15  N   LIG     1      18.679  36.981  19.218  1.00  0.00    -0.222 N 
HETATM   16  H   LIG     1      18.934  36.302  18.464  1.00  0.00     0.177 HD
BRANCH  15  17
HETATM   17  C   LIG     1      19.269  38.320  19.227  1.00  0.00     0.134 C 
HETATM   18  C   LIG     1      18.895  39.091  17.966  1.00  0.00     0.027 C 
ENDBRANCH  15  17
ENDBRANCH  13  15
ENDBRANCH   6   8
ENDBRANCH   1   6
TORSDOF 4
ENDMDL
MODEL 7
REMARK VINA RESULT:      -6.4      7.599      9.405
REMARK  4 active torsions:
REMARK  status: ('A' for Active; 'I' for Inactive)
REMARK    1  A    between atoms: C_4  and  N_5 
REMARK    2  A    between atoms: N_5  and  C_6 
REMARK    3  A    between atoms: C_12  and  N_13 
REMARK    4  A    between atoms: N_13  and  C_14 
ROOT
HETATM    1  C   LIG     1      19.554  34.041  11.698  1.00  0.00     0.129 C 
HETATM    2  C   LIG     1      20.921  34.698  11.440  1.00  0.00     0.055 C 
HETATM    3  C   LIG     1      18.457  34.883  11.026  1.00  0.00     0.055 C 
HETATM    4  C   LIG     1      19.576  32.687  11.110  1.00  0.00     0.090 C 
HETATM    5  N   LIG     1      19.593  31.626  10.649  1.00  0.00    -0.195 NA
ENDROOT
BRANCH   1   6
HETATM    6  N   LIG     1      19.313  33.956  13.150  1.00  0.00    -0.201 N 
HETATM    7  H   LIG     1      20.078  34.238  13.804  1.00  0.00     0.179 HD
BRANCH   6   8
HETATM    8  C   LIG     1      18.083  33.516  13.750  1.00  0.00     0.742 A 
HETATM    9  N   LIG     1      17.389  32.466  13.238  1.00  0.00    -0.030 NA
HETATM   10  C   LIG     1      16.234  32.060  13.820  1.00  0.00     0.259 A 
HETATM   11 CL   LIG     1      15.346  30.709  13.152  1.00  0.00    -0.040 Cl
HETATM   12  N   LIG     1      15.768  32.700  14.921  1.00  0.00    -0.030 NA
HETATM   13  C   LIG     1      16.457  33.750  15.443  1.00  0.00     0.741 A 
HETATM   14  N   LIG     1      17.613  34.152  14.855  1.00  0.00     0.130 NA
BRANCH  13  15
HETATM   15  N   LIG     1      15.975  34.433  16.605  1.00  0.00    -0.222 N 
HETATM   16  H   LIG     1      16.503  35.270  16.943  1.00  0.00     0.177 HD
BRANCH  15  17
HETATM   17  C   LIG     1      14.778  33.985  17.317  1.00  0.00     0.134 C 
HETATM   18  C   LIG     1      15.113  32.866  18.298  1.00  0.00     0.027 C 
ENDBRANCH  15  17
ENDBRANCH  13  15
ENDBRANCH   6   8
ENDBRANCH   1   6
TORSDOF 4
ENDMDL
MODEL 8
REMARK VINA RESULT:      -6.3      8.339     10.339
REMARK  4 active torsions:
REMARK  status: ('A' for Active; 'I' for Inactive)
REMARK    1  A    between atoms: C_4  and  N_5 
REMARK    2  A    between atoms: N_5  and  C_6 
REMARK    3  A    between atoms: C_12  and  N_13 
REMARK    4  A    between atoms: N_13  and  C_14 
ROOT
HETATM    1  C   LIG     1      19.308  33.973  12.125  1.00  0.00     0.129 C 
HETATM    2  C   LIG     1      20.654  34.709  12.000  1.00  0.00     0.055 C 
HETATM    3  C   LIG     1      18.191  34.869  11.563  1.00  0.00     0.055 C 
HETATM    4  C   LIG     1      19.391  32.726  11.339  1.00  0.00     0.090 C 
HETATM    5  N   LIG     1      19.456  31.748  10.724  1.00  0.00    -0.195 NA
ENDROOT
BRANCH   1   6
HETATM    6  N   LIG     1      19.047  33.661  13.541  1.00  0.00    -0.201 N 
HETATM    7  H   LIG     1      19.830  33.745  14.228  1.00  0.00     0.179 HD
BRANCH   6   8
HETATM    8  C   LIG     1      17.773  33.249  14.066  1.00  0.00     0.742 A 
HETATM    9  N   LIG     1      17.208  33.892  15.121  1.00  0.00    -0.030 NA
HETATM   10  C   LIG     1      16.004  33.495  15.600  1.00  0.00     0.259 A 
HETATM   11 CL   LIG     1      15.286  34.328  16.960  1.00  0.00    -0.040 Cl
HETATM   12  N   LIG     1      15.355  32.453  15.023  1.00  0.00    -0.030 NA
HETATM   13  C   LIG     1      15.911  31.805  13.965  1.00  0.00     0.741 A 
HETATM   14  N   LIG     1      17.117  32.207  13.490  1.00  0.00     0.130 NA
BRANCH  13  15
HETATM   15  N   LIG     1      15.235  30.704  13.347  1.00  0.00    -0.222 N 
HETATM   16  H   LIG     1      15.164  30.688  12.304  1.00  0.00     0.177 HD
BRANCH  15  17
HETATM   17  C   LIG     1      14.649  29.622  14.139  1.00  0.00     0.134 C 
HETATM   18  C   LIG     1      15.270  28.279  13.770  1.00  0.00     0.027 C 
ENDBRANCH  15  17
ENDBRANCH  13  15
ENDBRANCH   6   8
ENDBRANCH   1   6
TORSDOF 4
ENDMDL
MODEL 9
REMARK VINA RESULT:      -6.3      3.123      4.680
REMARK  4 active torsions:
REMARK  status: ('A' for Active; 'I' for Inactive)
REMARK    1  A    between atoms: C_4  and  N_5 
REMARK    2  A    between atoms: N_5  and  C_6 
REMARK    3  A    between atoms: C_12  and  N_13 
REMARK    4  A    between atoms: N_13  and  C_14 
ROOT
HETATM    1  C   LIG     1      15.884  34.898  20.910  1.00  0.00     0.129 C 
HETATM    2  C   LIG     1      16.961  35.785  20.262  1.00  0.00     0.055 C 
HETATM    3  C   LIG     1      14.581  35.704  21.042  1.00  0.00     0.055 C 
HETATM    4  C   LIG     1      15.663  33.730  20.035  1.00  0.00     0.090 C 
HETATM    5  N   LIG     1      15.489  32.814  19.349  1.00  0.00    -0.195 NA
ENDROOT
BRANCH   1   6
HETATM    6  N   LIG     1      16.345  34.453  22.237  1.00  0.00    -0.201 N 
HETATM    7  H   LIG     1      16.354  33.430  22.450  1.00  0.00     0.179 HD
BRANCH   6   8
HETATM    8  C   LIG     1      16.799  35.331  23.282  1.00  0.00     0.742 A 
HETATM    9  N   LIG     1      17.343  34.837  24.425  1.00  0.00    -0.030 NA
HETATM   10  C   LIG     1      17.772  35.679  25.398  1.00  0.00     0.259 A 
HETATM   11 CL   LIG     1      18.468  35.034  26.867  1.00  0.00    -0.040 Cl
HETATM   12  N   LIG     1      17.663  37.021  25.230  1.00  0.00    -0.030 NA
HETATM   13  C   LIG     1      17.123  37.523  24.088  1.00  0.00     0.741 A 
HETATM   14  N   LIG     1      16.695  36.675  23.118  1.00  0.00     0.130 NA
BRANCH  13  15
HETATM   15  N   LIG     1      17.004  38.938  23.900  1.00  0.00    -0.222 N 
HETATM   16  H   LIG     1      16.892  39.543  24.745  1.00  0.00     0.177 HD
BRANCH  15  17
HETATM   17  C   LIG     1      17.032  39.540  22.566  1.00  0.00     0.134 C 
HETATM   18  C   LIG     1      18.394  39.343  21.908  1.00  0.00     0.027 C 
ENDBRANCH  15  17
ENDBRANCH  13  15
ENDBRANCH   6   8
ENDBRANCH   1   6
TORSDOF 4
ENDMDL
MODEL 10
REMARK VINA RESULT:      -6.2      6.538      9.284
REMARK  4 active torsions:
REMARK  status: ('A' for Active; 'I' for Inactive)
REMARK    1  A    between atoms: C_4  and  N_5 
REMARK    2  A    between atoms: N_5  and  C_6 
REMARK    3  A    between atoms: C_12  and  N_13 
REMARK    4  A    between atoms: N_13  and  C_14 
ROOT
HETATM    1  C   LIG     1      15.052  32.563  19.939  1.00  0.00     0.129 C 
HETATM    2  C   LIG     1      16.117  31.459  19.818  1.00  0.00     0.055 C 
HETATM    3  C   LIG     1      14.190  32.297  21.183  1.00  0.00     0.055 C 
HETATM    4  C   LIG     1      15.748  33.858  20.080  1.00  0.00     0.090 C 
HETATM    5  N   LIG     1      16.292  34.873  20.190  1.00  0.00    -0.195 NA
ENDROOT
BRANCH   1   6
HETATM    6  N   LIG     1      14.211  32.571  18.728  1.00  0.00    -0.201 N 
HETATM    7  H   LIG     1      13.213  32.868  18.812  1.00  0.00     0.179 HD
BRANCH   6   8
HETATM    8  C   LIG     1      14.666  32.205  17.415  1.00  0.00     0.742 A 
HETATM    9  N   LIG     1      14.044  31.226  16.706  1.00  0.00    -0.030 NA
HETATM   10  C   LIG     1      14.481  30.896  15.465  1.00  0.00     0.259 A 
HETATM   11 CL   LIG     1      13.676  29.633  14.562  1.00  0.00    -0.040 Cl
HETATM   12  N   LIG     1      15.541  31.548  14.925  1.00  0.00    -0.030 NA
HETATM   13  C   LIG     1      16.167  32.530  15.625  1.00  0.00     0.741 A 
HETATM   14  N   LIG     1      15.725  32.855  16.867  1.00  0.00     0.130 NA
BRANCH  13  15
HETATM   15  N   LIG     1      17.287  33.225  15.065  1.00  0.00    -0.222 N 
HETATM   16  H   LIG     1      17.940  33.720  15.715  1.00  0.00     0.177 HD
BRANCH  15  17
HETATM   17  C   LIG     1      17.527  33.255  13.622  1.00  0.00     0.134 C 
HETATM   18  C   LIG     1      18.884  33.876  13.307  1.00  0.00     0.027 C 
ENDBRANCH  15  17
ENDBRANCH  13  15
ENDBRANCH   6   8
ENDBRANCH   1   6
TORSDOF 4
ENDMDL
MODEL 11
REMARK VINA RESULT:      -6.2      8.781     10.915
REMARK  4 active torsions:
REMARK  status: ('A' for Active; 'I' for Inactive)
REMARK    1  A    between atoms: C_4  and  N_5 
REMARK    2  A    between atoms: N_5  and  C_6 
REMARK    3  A    between atoms: C_12  and  N_13 
REMARK    4  A    between atoms: N_13  and  C_14 
ROOT
HETATM    1  C   LIG     1      17.857  33.393  13.835  1.00  0.00     0.129 C 
HETATM    2  C   LIG     1      18.964  33.568  12.781  1.00  0.00     0.055 C 
HETATM    3  C   LIG     1      18.397  32.540  14.995  1.00  0.00     0.055 C 
HETATM    4  C   LIG     1      17.480  34.731  14.332  1.00  0.00     0.090 C 
HETATM    5  N   LIG     1      17.183  35.779  14.721  1.00  0.00    -0.195 NA
ENDROOT
BRANCH   1   6
HETATM    6  N   LIG     1      16.690  32.735  13.220  1.00  0.00    -0.201 N 
HETATM    7  H   LIG     1      16.448  32.965  12.229  1.00  0.00     0.179 HD
BRANCH   6   8
HETATM    8  C   LIG     1      15.847  31.778  13.883  1.00  0.00     0.742 A 
HETATM    9  N   LIG     1      15.233  32.080  15.058  1.00  0.00    -0.030 NA
HETATM   10  C   LIG     1      14.436  31.168  15.667  1.00  0.00     0.259 A 
HETATM   11 CL   LIG     1      13.653  31.564  17.180  1.00  0.00    -0.040 Cl
HETATM   12  N   LIG     1      14.245  29.950  15.103  1.00  0.00    -0.030 NA
HETATM   13  C   LIG     1      14.852  29.640  13.926  1.00  0.00     0.741 A 
HETATM   14  N   LIG     1      15.650  30.558  13.321  1.00  0.00     0.130 NA
BRANCH  13  15
HETATM   15  N   LIG     1      14.657  28.358  13.321  1.00  0.00    -0.222 N 
HETATM   16  H   LIG     1      13.717  28.136  12.920  1.00  0.00     0.177 HD
BRANCH  15  17
HETATM   17  C   LIG     1      15.733  27.368  13.256  1.00  0.00     0.134 C 
HETATM   18  C   LIG     1      15.983  26.927  11.818  1.00  0.00     0.027 C 
ENDBRANCH  15  17
ENDBRANCH  13  15
ENDBRANCH   6   8
ENDBRANCH   1   6
TORSDOF 4
ENDMDL
MODEL 12
REMARK VINA RESULT:      -6.1      7.181      9.793
REMARK  4 active torsions:
REMARK  status: ('A' for Active; 'I' for Inactive)
REMARK    1  A    between atoms: C_4  and  N_5 
REMARK    2  A    between atoms: N_5  and  C_6 
REMARK    3  A    between atoms: C_12  and  N_13 
REMARK    4  A    between atoms: N_13  and  C_14 
ROOT
HETATM    1  C   LIG     1      15.059  32.551  19.883  1.00  0.00     0.129 C 
HETATM    2  C   LIG     1      16.148  31.467  19.804  1.00  0.00     0.055 C 
HETATM    3  C   LIG     1      14.167  32.280  21.106  1.00  0.00     0.055 C 
HETATM    4  C   LIG     1      15.725  33.860  20.030  1.00  0.00     0.090 C 
HETATM    5  N   LIG     1      16.246  34.887  20.145  1.00  0.00    -0.195 NA
ENDROOT
BRANCH   1   6
HETATM    6  N   LIG     1      14.253  32.531  18.650  1.00  0.00    -0.201 N 
HETATM    7  H   LIG     1      13.218  32.656  18.723  1.00  0.00     0.179 HD
BRANCH   6   8
HETATM    8  C   LIG     1      14.787  32.358  17.326  1.00  0.00     0.742 A 
HETATM    9  N   LIG     1      15.717  33.215  16.828  1.00  0.00    -0.030 NA
HETATM   10  C   LIG     1      16.215  33.034  15.580  1.00  0.00     0.259 A 
HETATM   11 CL   LIG     1      17.409  34.144  14.947  1.00  0.00    -0.040 Cl
HETATM   12  N   LIG     1      15.789  31.992  14.824  1.00  0.00    -0.030 NA
HETATM   13  C   LIG     1      14.861  31.128  15.315  1.00  0.00     0.741 A 
HETATM   14  N   LIG     1      14.366  31.314  16.566  1.00  0.00     0.130 NA
BRANCH  13  15
HETATM   15  N   LIG     1      14.404  30.024  14.527  1.00  0.00    -0.222 N 
HETATM   16  H   LIG     1      13.422  29.690  14.662  1.00  0.00     0.177 HD
BRANCH  15  17
HETATM   17  C   LIG     1      15.274  29.364  13.553  1.00  0.00     0.134 C 
HETATM   18  C   LIG     1      15.225  27.848  13.716  1.00  0.00     0.027 C 
ENDBRANCH  15  17
ENDBRANCH  13  15
ENDBRANCH   6   8
ENDBRANCH   1   6
TORSDOF 4
ENDMDL
MODEL 13
REMARK VINA RESULT:      -6.1      8.292     10.759
REMARK  4 active torsions:
REMARK  status: ('A' for Active; 'I' for Inactive)
REMARK    1  A    between atoms: C_4  and  N_5 
REMARK    2  A    between atoms: N_5  and  C_6 
REMARK    3  A    between atoms: C_12  and  N_13 
REMARK    4  A    between atoms: N_13  and  C_14 
ROOT
HETATM    1  C   LIG     1      14.960  32.952  17.721  1.00  0.00     0.129 C 
HETATM    2  C   LIG     1      14.695  34.412  17.314  1.00  0.00     0.055 C 
HETATM    3  C   LIG     1      15.170  32.883  19.243  1.00  0.00     0.055 C 
HETATM    4  C   LIG     1      13.781  32.148  17.342  1.00  0.00     0.090 C 
HETATM    5  N   LIG     1      12.858  31.517  17.045  1.00  0.00    -0.195 NA
ENDROOT
BRANCH   1   6
HETATM    6  N   LIG     1      16.157  32.453  17.019  1.00  0.00    -0.201 N 
HETATM    7  H   LIG     1      17.006  32.214  17.580  1.00  0.00     0.179 HD
BRANCH   6   8
HETATM    8  C   LIG     1      16.249  32.258  15.598  1.00  0.00     0.742 A 
HETATM    9  N   LIG     1      16.888  33.160  14.806  1.00  0.00    -0.030 NA
HETATM   10  C   LIG     1      16.971  32.957  13.468  1.00  0.00     0.259 A 
HETATM   11 CL   LIG     1      17.793  34.124  12.457  1.00  0.00    -0.040 Cl
HETATM   12  N   LIG     1      16.419  31.849  12.914  1.00  0.00    -0.030 NA
HETATM   13  C   LIG     1      15.781  30.940  13.699  1.00  0.00     0.741 A 
HETATM   14  N   LIG     1      15.700  31.149  15.038  1.00  0.00     0.130 NA
BRANCH  13  15
HETATM   15  N   LIG     1      15.195  29.766  13.125  1.00  0.00    -0.222 N 
HETATM   16  H   LIG     1      14.674  29.862  12.224  1.00  0.00     0.177 HD
BRANCH  15  17
HETATM   17  C   LIG     1      15.311  28.458  13.770  1.00  0.00     0.134 C 
HETATM   18  C   LIG     1      15.540  27.359  12.737  1.00  0.00     0.027 C 
ENDBRANCH  15  17
ENDBRANCH  13  15
ENDBRANCH   6   8
ENDBRANCH   1   6
TORSDOF 4
ENDMDL
MODEL 14
REMARK VINA RESULT:      -6.1      2.666      4.600
REMARK  4 active torsions:
REMARK  status: ('A' for Active; 'I' for Inactive)
REMARK    1  A    between atoms: C_4  and  N_5 
REMARK    2  A    between atoms: N_5  and  C_6 
REMARK    3  A    between atoms: C_12  and  N_13 
REMARK    4  A    between atoms: N_13  and  C_14 
ROOT
HETATM    1  C   LIG     1      16.129  34.860  21.017  1.00  0.00     0.129 C 
HETATM    2  C   LIG     1      14.899  35.763  21.217  1.00  0.00     0.055 C 
HETATM    3  C   LIG     1      16.791  34.604  22.381  1.00  0.00     0.055 C 
HETATM    4  C   LIG     1      15.670  33.582  20.437  1.00  0.00     0.090 C 
HETATM    5  N   LIG     1      15.312  32.581  19.981  1.00  0.00    -0.195 NA
ENDROOT
BRANCH   1   6
HETATM    6  N   LIG     1      17.081  35.517  20.104  1.00  0.00    -0.201 N 
HETATM    7  H   LIG     1      17.287  35.067  19.183  1.00  0.00     0.179 HD
BRANCH   6   8
HETATM    8  C   LIG     1      17.755  36.756  20.379  1.00  0.00     0.742 A 
HETATM    9  N   LIG     1      18.533  37.355  19.438  1.00  0.00    -0.030 NA
HETATM   10  C   LIG     1      19.157  38.527  19.712  1.00  0.00     0.259 A 
HETATM   11 CL   LIG     1      20.158  39.288  18.496  1.00  0.00    -0.040 Cl
HETATM   12  N   LIG     1      19.003  39.110  20.927  1.00  0.00    -0.030 NA
HETATM   13  C   LIG     1      18.225  38.520  21.873  1.00  0.00     0.741 A 
HETATM   14  N   LIG     1      17.603  37.346  21.593  1.00  0.00     0.130 NA
BRANCH  13  15
HETATM   15  N   LIG     1      18.055  39.126  23.159  1.00  0.00    -0.222 N 
HETATM   16  H   LIG     1      17.867  40.154  23.202  1.00  0.00     0.177 HD
BRANCH  15  17
HETATM   17  C   LIG     1      18.139  38.345  24.393  1.00  0.00     0.134 C 
HETATM   18  C   LIG     1      16.813  37.655  24.694  1.00  0.00     0.027 C 
ENDBRANCH  15  17
ENDBRANCH  13  15
ENDBRANCH   6   8
ENDBRANCH   1   6
TORSDOF 4
ENDMDL
MODEL 15
REMARK VINA RESULT:      -6.0      7.810      9.327
REMARK  4 active torsions:
REMARK  status: ('A' for Active; 'I' for Inactive)
REMARK    1  A    between atoms: C_4  and  N_5 
REMARK    2  A    between atoms: N_5  and  C_6 
REMARK    3  A    between atoms: C_12  and  N_13 
REMARK    4  A    between atoms: N_13  and  C_14 
ROOT
HETATM    1  C   LIG     1      17.929  33.549  13.680  1.00  0.00     0.129 C 
HETATM    2  C   LIG     1      18.912  33.853  12.536  1.00  0.00     0.055 C 
HETATM    3  C   LIG     1      18.648  32.715  14.753  1.00  0.00     0.055 C 
HETATM    4  C   LIG     1      17.486  34.833  14.258  1.00  0.00     0.090 C 
HETATM    5  N   LIG     1      17.137  35.839  14.712  1.00  0.00    -0.195 NA
ENDROOT
BRANCH   1   6
HETATM    6  N   LIG     1      16.770  32.808  13.151  1.00  0.00    -0.201 N 
HETATM    7  H   LIG     1      16.515  32.924  12.144  1.00  0.00     0.179 HD
BRANCH   6   8
HETATM    8  C   LIG     1      15.951  31.912  13.921  1.00  0.00     0.742 A 
HETATM    9  N   LIG     1      15.731  30.635  13.511  1.00  0.00    -0.030 NA
HETATM   10  C   LIG     1      14.961  29.801  14.252  1.00  0.00     0.259 A 
HETATM   11 CL   LIG     1      14.681  28.160  13.715  1.00  0.00    -0.040 Cl
HETATM   12  N   LIG     1      14.410  30.239  15.412  1.00  0.00    -0.030 NA
HETATM   13  C   LIG     1      14.627  31.514  15.832  1.00  0.00     0.741 A 
HETATM   14  N   LIG     1      15.399  32.344  15.084  1.00  0.00     0.130 NA
BRANCH  13  15
HETATM   15  N   LIG     1      14.051  31.986  17.054  1.00  0.00    -0.222 N 
HETATM   16  H   LIG     1      13.013  31.932  17.167  1.00  0.00     0.177 HD
BRANCH  15  17
HETATM   17  C   LIG     1      14.877  32.537  18.129  1.00  0.00     0.134 C 
HETATM   18  C   LIG     1      14.798  31.666  19.379  1.00  0.00     0.027 C 
ENDBRANCH  15  17
ENDBRANCH  13  15
ENDBRANCH   6   8
ENDBRANCH   1   6
TORSDOF 4
ENDMDL
MODEL 16
REMARK VINA RESULT:      -6.0      4.697      7.341
REMARK  4 active torsions:
REMARK  status: ('A' for Active; 'I' for Inactive)
REMARK    1  A    between atoms: C_4  and  N_5 
REMARK    2  A    between atoms: N_5  and  C_6 
REMARK    3  A    between atoms: C_12  and  N_13 
REMARK    4  A    between atoms: N_13  and  C_14 
ROOT
HETATM    1  C   LIG     1      16.311  35.939  21.279  1.00  0.00     0.129 C 
HETATM    2  C   LIG     1      16.947  34.834  22.141  1.00  0.00     0.055 C 
HETATM    3  C   LIG     1      14.848  36.134  21.711  1.00  0.00     0.055 C 
HETATM    4  C   LIG     1      17.068  37.187  21.501  1.00  0.00     0.090 C 
HETATM    5  N   LIG     1      17.661  38.165  21.674  1.00  0.00    -0.195 NA
ENDROOT
BRANCH   1   6
HETATM    6  N   LIG     1      16.376  35.555  19.858  1.00  0.00    -0.201 N 
HETATM    7  H   LIG     1      16.832  36.208  19.181  1.00  0.00     0.179 HD
BRANCH   6   8
HETATM    8  C   LIG     1      15.859  34.327  19.318  1.00  0.00     0.742 A 
HETATM    9  N   LIG     1      15.604  33.261  20.121  1.00  0.00    -0.030 NA
HETATM   10  C   LIG     1      15.110  32.112  19.597  1.00  0.00     0.259 A 
HETATM   11 CL   LIG     1      14.789  30.744  20.638  1.00  0.00    -0.040 Cl
HETATM   12  N   LIG     1      14.865  32.025  18.266  1.00  0.00    -0.030 NA
HETATM   13  C   LIG     1      15.114  33.087  17.455  1.00  0.00     0.741 A 
HETATM   14  N   LIG     1      15.608  34.235  17.986  1.00  0.00     0.130 NA
BRANCH  13  15
HETATM   15  N   LIG     1      14.858  33.007  16.049  1.00  0.00    -0.222 N 
HETATM   16  H   LIG     1      13.982  33.442  15.678  1.00  0.00     0.177 HD
BRANCH  15  17
HETATM   17  C   LIG     1      15.785  32.335  15.137  1.00  0.00     0.134 C 
HETATM   18  C   LIG     1      15.192  31.027  14.623  1.00  0.00     0.027 C 
ENDBRANCH  15  17
ENDBRANCH  13  15
ENDBRANCH   6   8
ENDBRANCH   1   6
TORSDOF 4
ENDMDL
MODEL 17
REMARK VINA RESULT:      -5.9      7.679     10.471
REMARK  4 active torsions:
REMARK  status: ('A' for Active; 'I' for Inactive)
REMARK    1  A    between atoms: C_4  and  N_5 
REMARK    2  A    between atoms: N_5  and  C_6 
REMARK    3  A    between atoms: C_12  and  N_13 
REMARK    4  A    between atoms: N_13  and  C_14 
ROOT
HETATM    1  C   LIG     1      14.955  32.938  17.712  1.00  0.00     0.129 C 
HETATM    2  C   LIG     1      14.639  34.391  17.316  1.00  0.00     0.055 C 
HETATM    3  C   LIG     1      15.184  32.869  19.231  1.00  0.00     0.055 C 
HETATM    4  C   LIG     1      13.797  32.099  17.342  1.00  0.00     0.090 C 
HETATM    5  N   LIG     1      12.891  31.441  17.052  1.00  0.00    -0.195 NA
ENDROOT
BRANCH   1   6
HETATM    6  N   LIG     1      16.158  32.481  16.994  1.00  0.00    -0.201 N 
HETATM    7  H   LIG     1      17.055  32.389  17.523  1.00  0.00     0.179 HD
BRANCH   6   8
HETATM    8  C   LIG     1      16.197  32.137  15.599  1.00  0.00     0.742 A 
HETATM    9  N   LIG     1      15.733  30.937  15.159  1.00  0.00    -0.030 NA
HETATM   10  C   LIG     1      15.771  30.631  13.839  1.00  0.00     0.259 A 
HETATM   11 CL   LIG     1      15.174  29.084  13.284  1.00  0.00    -0.040 Cl
HETATM   12  N   LIG     1      16.270  31.525  12.950  1.00  0.00    -0.030 NA
HETATM   13  C   LIG     1      16.734  32.729  13.380  1.00  0.00     0.741 A 
HETATM   14  N   LIG     1      16.693  33.029  14.703  1.00  0.00     0.130 NA
BRANCH  13  15
HETATM   15  N   LIG     1      17.262  33.681  12.450  1.00  0.00    -0.222 N 
HETATM   16  H   LIG     1      16.592  34.202  11.839  1.00  0.00     0.177 HD
BRANCH  15  17
HETATM   17  C   LIG     1      18.700  33.930  12.341  1.00  0.00     0.134 C 
HETATM   18  C   LIG     1      19.040  34.583  11.005  1.00  0.00     0.027 C 
ENDBRANCH  15  17
ENDBRANCH  13  15
ENDBRANCH   6   8
ENDBRANCH   1   6
TORSDOF 4
ENDMDL
MODEL 18
REMARK VINA RESULT:      -5.8      5.249      8.149
REMARK  4 active torsions:
REMARK  status: ('A' for Active; 'I' for Inactive)
REMARK    1  A    between atoms: C_4  and  N_5 
REMARK    2  A    between atoms: N_5  and  C_6 
REMARK    3  A    between atoms: C_12  and  N_13 
REMARK    4  A    between atoms: N_13  and  C_14 
ROOT
HETATM    1  C   LIG     1      15.605  35.022  20.078  1.00  0.00     0.129 C 
HETATM    2  C   LIG     1      15.841  33.534  20.389  1.00  0.00     0.055 C 
HETATM    3  C   LIG     1      14.691  35.623  21.159  1.00  0.00     0.055 C 
HETATM    4  C   LIG     1      16.913  35.707  20.092  1.00  0.00     0.090 C 
HETATM    5  N   LIG     1      17.938  36.244  20.102  1.00  0.00    -0.195 NA
ENDROOT
BRANCH   1   6
HETATM    6  N   LIG     1      14.980  35.155  18.750  1.00  0.00    -0.201 N 
HETATM    7  H   LIG     1      14.286  35.921  18.595  1.00  0.00     0.179 HD
BRANCH   6   8
HETATM    8  C   LIG     1      15.261  34.305  17.625  1.00  0.00     0.742 A 
HETATM    9  N   LIG     1      14.559  33.159  17.420  1.00  0.00    -0.030 NA
HETATM   10  C   LIG     1      14.832  32.372  16.351  1.00  0.00     0.259 A 
HETATM   11 CL   LIG     1      13.926  30.898  16.097  1.00  0.00    -0.040 Cl
HETATM   12  N   LIG     1      15.807  32.729  15.477  1.00  0.00    -0.030 NA
HETATM   13  C   LIG     1      16.512  33.875  15.673  1.00  0.00     0.741 A 
HETATM   14  N   LIG     1      16.234  34.659  16.746  1.00  0.00     0.130 NA
BRANCH  13  15
HETATM   15  N   LIG     1      17.543  34.261  14.757  1.00  0.00    -0.222 N 
HETATM   16  H   LIG     1      17.942  35.225  14.837  1.00  0.00     0.177 HD
BRANCH  15  17
HETATM   17  C   LIG     1      18.037  33.347  13.728  1.00  0.00     0.134 C 
HETATM   18  C   LIG     1      19.186  33.976  12.945  1.00  0.00     0.027 C 
ENDBRANCH  15  17
ENDBRANCH  13  15
ENDBRANCH   6   8
ENDBRANCH   1   6
TORSDOF 4
ENDMDL
MODEL 19
REMARK VINA RESULT:      -5.6      3.279      6.333
REMARK  4 active torsions:
REMARK  status: ('A' for Active; 'I' for Inactive)
REMARK    1  A    between atoms: C_4  and  N_5 
REMARK    2  A    between atoms: N_5  and  C_6 
REMARK    3  A    between atoms: C_12  and  N_13 
REMARK    4  A    between atoms: N_13  and  C_14 
ROOT
HETATM    1  C   LIG     1      16.864  37.408  22.678  1.00  0.00     0.129 C 
HETATM    2  C   LIG     1      15.351  37.594  22.469  1.00  0.00     0.055 C 
HETATM    3  C   LIG     1      17.574  38.750  22.434  1.00  0.00     0.055 C 
HETATM    4  C   LIG     1      17.085  36.971  24.070  1.00  0.00     0.090 C 
HETATM    5  N   LIG     1      17.259  36.627  25.161  1.00  0.00    -0.195 NA
ENDROOT
BRANCH   1   6
HETATM    6  N   LIG     1      17.369  36.387  21.742  1.00  0.00    -0.201 N 
HETATM    7  H   LIG     1      18.400  36.312  21.588  1.00  0.00     0.179 HD
BRANCH   6   8
HETATM    8  C   LIG     1      16.542  35.463  21.016  1.00  0.00     0.742 A 
HETATM    9  N   LIG     1      15.761  34.561  21.666  1.00  0.00    -0.030 NA
HETATM   10  C   LIG     1      14.981  33.700  20.967  1.00  0.00     0.259 A 
HETATM   11 CL   LIG     1      13.982  32.540  21.813  1.00  0.00    -0.040 Cl
HETATM   12  N   LIG     1      14.976  33.739  19.611  1.00  0.00    -0.030 NA
HETATM   13  C   LIG     1      15.752  34.640  18.951  1.00  0.00     0.741 A 
HETATM   14  N   LIG     1      16.531  35.499  19.658  1.00  0.00     0.130 NA
BRANCH  13  15
HETATM   15  N   LIG     1      15.754  34.691  17.521  1.00  0.00    -0.222 N 
HETATM   16  H   LIG     1      16.367  35.396  17.050  1.00  0.00     0.177 HD
BRANCH  15  17
HETATM   17  C   LIG     1      14.926  33.789  16.719  1.00  0.00     0.134 C 
HETATM   18  C   LIG     1      15.791  32.815  15.925  1.00  0.00     0.027 C 
ENDBRANCH  15  17
ENDBRANCH  13  15
ENDBRANCH   6   8
ENDBRANCH   1   6
TORSDOF 4
ENDMDL
MODEL 20
REMARK VINA RESULT:      -5.5      6.481      7.717
REMARK  4 active torsions:
REMARK  status: ('A' for Active; 'I' for Inactive)
REMARK    1  A    between atoms: C_4  and  N_5 
REMARK    2  A    between atoms: N_5  and  C_6 
REMARK    3  A    between atoms: C_12  and  N_13 
REMARK    4  A    between atoms: N_13  and  C_14 
ROOT
HETATM    1  C   LIG     1      17.152  33.245  14.567  1.00  0.00     0.129 C 
HETATM    2  C   LIG     1      18.329  32.537  15.260  1.00  0.00     0.055 C 
HETATM    3  C   LIG     1      17.699  34.375  13.678  1.00  0.00     0.055 C 
HETATM    4  C   LIG     1      16.444  32.253  13.735  1.00  0.00     0.090 C 
HETATM    5  N   LIG     1      15.888  31.475  13.083  1.00  0.00    -0.195 NA
ENDROOT
BRANCH   1   6
HETATM    6  N   LIG     1      16.239  33.795  15.585  1.00  0.00    -0.201 N 
HETATM    7  H   LIG     1      16.127  34.832  15.653  1.00  0.00     0.179 HD
BRANCH   6   8
HETATM    8  C   LIG     1      15.467  33.003  16.504  1.00  0.00     0.742 A 
HETATM    9  N   LIG     1      14.518  32.138  16.058  1.00  0.00    -0.030 NA
HETATM   10  C   LIG     1      13.803  31.394  16.938  1.00  0.00     0.259 A 
HETATM   11 CL   LIG     1      12.581  30.287  16.355  1.00  0.00    -0.040 Cl
HETATM   12  N   LIG     1      14.037  31.507  18.269  1.00  0.00    -0.030 NA
HETATM   13  C   LIG     1      14.987  32.367  18.724  1.00  0.00     0.741 A 
HETATM   14  N   LIG     1      15.699  33.110  17.838  1.00  0.00     0.130 NA
BRANCH  13  15
HETATM   15  N   LIG     1      15.244  32.494  20.126  1.00  0.00    -0.222 N 
HETATM   16  H   LIG     1      15.632  31.668  20.637  1.00  0.00     0.177 HD
BRANCH  15  17
HETATM   17  C   LIG     1      14.975  33.740  20.846  1.00  0.00     0.134 C 
HETATM   18  C   LIG     1      16.256  34.544  21.043  1.00  0.00     0.027 C 
ENDBRANCH  15  17
ENDBRANCH  13  15
ENDBRANCH   6   8
ENDBRANCH   1   6
TORSDOF 4
ENDMDL
