REMARK  4 active torsions:
REMARK  status: ('A' for Active; 'I' for Inactive)
REMARK    1  A    between atoms: C_4  and  N_5 
REMARK    2  A    between atoms: N_5  and  C_6 
REMARK    3  A    between atoms: C_12  and  N_13 
REMARK    4  A    between atoms: N_13  and  C_14 
ROOT
HETATM    1  C   LIG     1      -3.167   0.364  -0.089  1.00  0.00     0.129 C 
HETATM    2  C   LIG     1      -4.265   1.037   0.753  1.00  0.00     0.055 C 
HETATM    3  C   LIG     1      -3.486  -1.134  -0.227  1.00  0.00     0.055 C 
HETATM    4  C   LIG     1      -3.157   0.998  -1.422  1.00  0.00     0.090 C 
HETATM    5  N   LIG     1      -3.148   1.495  -2.467  1.00  0.00    -0.195 NA
ENDROOT
BRANCH   1   6
HETATM    6  N   LIG     1      -1.860   0.548   0.567  1.00  0.00    -0.201 N 
HETATM    7  H   LIG     1      -1.829   1.000   1.509  1.00  0.00     0.179 HD
BRANCH   6   8
HETATM    8  C   LIG     1      -0.600   0.140   0.008  1.00  0.00     0.742 A 
HETATM    9  N   LIG     1      -0.526  -0.391  -1.241  1.00  0.00    -0.030 NA
HETATM   10  C   LIG     1       0.671  -0.765  -1.756  1.00  0.00     0.259 A 
HETATM   11 CL   LIG     1       0.756  -1.450  -3.363  1.00  0.00    -0.040 Cl
HETATM   12  N   LIG     1       1.803  -0.606  -1.025  1.00  0.00    -0.030 NA
HETATM   13  C   LIG     1       1.739  -0.073   0.224  1.00  0.00     0.741 A 
HETATM   14  N   LIG     1       0.537   0.299   0.734  1.00  0.00     0.130 NA
BRANCH  13  15
HETATM   15  N   LIG     1       2.927   0.100   1.004  1.00  0.00    -0.222 N 
HETATM   16  H   LIG     1       2.837   0.515   1.960  1.00  0.00     0.177 HD
BRANCH  15  17
HETATM   17  C   LIG     1       4.243  -0.286   0.494  1.00  0.00     0.134 C 
HETATM   18  C   LIG     1       5.333   0.004   1.521  1.00  0.00     0.027 C 
ENDBRANCH  15  17
ENDBRANCH  13  15
ENDBRANCH   6   8
ENDBRANCH   1   6
TORSDOF 4
