REMARK  0 active torsions:
REMARK  status: ('A' for Active; 'I' for Inactive)
ROOT
HETATM    1  C   LIG     1       1.888  -0.171   0.144  1.00  0.00    -0.015 A 
HETATM    2  C   LIG     1       2.256   1.161  -0.187  1.00  0.00    -0.025 A 
HETATM    3  C   LIG     1       1.276   2.127  -0.399  1.00  0.00     0.013 A 
HETATM    4  C   LIG     1      -0.070   1.810  -0.292  1.00  0.00     0.014 A 
HETATM    5  C   LIG     1      -0.498   0.504   0.034  1.00  0.00    -0.014 A 
HETATM    6  C   LIG     1       0.498  -0.504   0.256  1.00  0.00    -0.014 A 
HETATM    7  C   LIG     1       0.070  -1.810   0.583  1.00  0.00     0.014 A 
HETATM    8  C   LIG     1      -1.276  -2.127   0.690  1.00  0.00     0.013 A 
HETATM    9  C   LIG     1      -2.256  -1.161   0.478  1.00  0.00    -0.025 A 
HETATM   10  C   LIG     1      -1.888   0.171   0.147  1.00  0.00    -0.015 A 
HETATM   11  C   LIG     1      -2.934   1.109  -0.057  1.00  0.00     0.013 A 
HETATM   12  C   LIG     1      -4.273   0.732   0.065  1.00  0.00     0.001 A 
HETATM   13  C   LIG     1      -4.610  -0.577   0.390  1.00  0.00     0.001 A 
HETATM   14  C   LIG     1      -3.608  -1.521   0.596  1.00  0.00     0.012 A 
HETATM   15  C   LIG     1       3.608   1.521  -0.305  1.00  0.00     0.012 A 
HETATM   16  C   LIG     1       4.610   0.577  -0.099  1.00  0.00     0.001 A 
HETATM   17  C   LIG     1       4.273  -0.732   0.226  1.00  0.00     0.001 A 
HETATM   18  C   LIG     1       2.934  -1.109   0.348  1.00  0.00     0.013 A 
ENDROOT
TORSDOF 0
