MODEL 1
REMARK VINA RESULT:      -7.6      0.000      0.000
REMARK  0 active torsions:
REMARK  status: ('A' for Active; 'I' for Inactive)
ROOT
HETATM    1  C   LIG     1      17.784  36.854  24.116  1.00  0.00    -0.015 A 
HETATM    2  C   LIG     1      17.349  35.503  24.053  1.00  0.00    -0.025 A 
HETATM    3  C   LIG     1      17.222  34.864  22.822  1.00  0.00     0.013 A 
HETATM    4  C   LIG     1      17.514  35.530  21.641  1.00  0.00     0.014 A 
HETATM    5  C   LIG     1      17.950  36.874  21.639  1.00  0.00    -0.014 A 
HETATM    6  C   LIG     1      18.087  37.548  22.898  1.00  0.00    -0.014 A 
HETATM    7  C   LIG     1      18.524  38.891  22.896  1.00  0.00     0.014 A 
HETATM    8  C   LIG     1      18.816  39.557  21.715  1.00  0.00     0.013 A 
HETATM    9  C   LIG     1      18.688  38.918  20.485  1.00  0.00    -0.025 A 
HETATM   10  C   LIG     1      18.254  37.567  20.422  1.00  0.00    -0.015 A 
HETATM   11  C   LIG     1      18.144  36.972  19.137  1.00  0.00     0.013 A 
HETATM   12  C   LIG     1      18.453  37.693  17.982  1.00  0.00     0.001 A 
HETATM   13  C   LIG     1      18.876  39.014  18.067  1.00  0.00     0.001 A 
HETATM   14  C   LIG     1      18.994  39.627  19.311  1.00  0.00     0.012 A 
HETATM   15  C   LIG     1      17.044  34.795  25.226  1.00  0.00     0.012 A 
HETATM   16  C   LIG     1      17.162  35.407  26.471  1.00  0.00     0.001 A 
HETATM   17  C   LIG     1      17.585  36.728  26.556  1.00  0.00     0.001 A 
HETATM   18  C   LIG     1      17.894  37.449  25.400  1.00  0.00     0.013 A 
ENDROOT
TORSDOF 0
ENDMDL
MODEL 2
REMARK VINA RESULT:      -7.1      0.714      2.504
REMARK  0 active torsions:
REMARK  status: ('A' for Active; 'I' for Inactive)
ROOT
HETATM    1  C   LIG     1      17.603  36.206  24.121  1.00  0.00    -0.015 A 
HETATM    2  C   LIG     1      17.882  37.206  25.091  1.00  0.00    -0.025 A 
HETATM    3  C   LIG     1      18.316  38.467  24.693  1.00  0.00     0.013 A 
HETATM    4  C   LIG     1      18.483  38.770  23.350  1.00  0.00     0.014 A 
HETATM    5  C   LIG     1      18.222  37.819  22.339  1.00  0.00    -0.014 A 
HETATM    6  C   LIG     1      17.773  36.514  22.731  1.00  0.00    -0.014 A 
HETATM    7  C   LIG     1      17.511  35.563  21.720  1.00  0.00     0.014 A 
HETATM    8  C   LIG     1      17.678  35.866  20.377  1.00  0.00     0.013 A 
HETATM    9  C   LIG     1      18.112  37.128  19.979  1.00  0.00    -0.025 A 
HETATM   10  C   LIG     1      18.392  38.128  20.949  1.00  0.00    -0.015 A 
HETATM   11  C   LIG     1      18.831  39.393  20.479  1.00  0.00     0.013 A 
HETATM   12  C   LIG     1      18.981  39.641  19.113  1.00  0.00     0.001 A 
HETATM   13  C   LIG     1      18.701  38.648  18.181  1.00  0.00     0.001 A 
HETATM   14  C   LIG     1      18.269  37.396  18.610  1.00  0.00     0.012 A 
HETATM   15  C   LIG     1      17.725  36.937  26.460  1.00  0.00     0.012 A 
HETATM   16  C   LIG     1      17.293  35.685  26.889  1.00  0.00     0.001 A 
HETATM   17  C   LIG     1      17.014  34.692  25.957  1.00  0.00     0.001 A 
HETATM   18  C   LIG     1      17.163  34.940  24.591  1.00  0.00     0.013 A 
ENDROOT
TORSDOF 0
ENDMDL
MODEL 3
REMARK VINA RESULT:      -7.1      0.719      5.682
REMARK  0 active torsions:
REMARK  status: ('A' for Active; 'I' for Inactive)
ROOT
HETATM    1  C   LIG     1      18.392  38.137  20.925  1.00  0.00    -0.015 A 
HETATM    2  C   LIG     1      18.110  37.138  19.955  1.00  0.00    -0.025 A 
HETATM    3  C   LIG     1      17.675  35.876  20.353  1.00  0.00     0.013 A 
HETATM    4  C   LIG     1      17.509  35.572  21.696  1.00  0.00     0.014 A 
HETATM    5  C   LIG     1      17.773  36.523  22.707  1.00  0.00    -0.014 A 
HETATM    6  C   LIG     1      18.222  37.828  22.315  1.00  0.00    -0.014 A 
HETATM    7  C   LIG     1      18.485  38.779  23.326  1.00  0.00     0.014 A 
HETATM    8  C   LIG     1      18.318  38.475  24.669  1.00  0.00     0.013 A 
HETATM    9  C   LIG     1      17.883  37.214  25.067  1.00  0.00    -0.025 A 
HETATM   10  C   LIG     1      17.602  36.215  24.097  1.00  0.00    -0.015 A 
HETATM   11  C   LIG     1      17.162  34.949  24.566  1.00  0.00     0.013 A 
HETATM   12  C   LIG     1      17.012  34.701  25.932  1.00  0.00     0.001 A 
HETATM   13  C   LIG     1      17.293  35.693  26.864  1.00  0.00     0.001 A 
HETATM   14  C   LIG     1      17.727  36.945  26.436  1.00  0.00     0.012 A 
HETATM   15  C   LIG     1      18.266  37.406  18.586  1.00  0.00     0.012 A 
HETATM   16  C   LIG     1      18.700  38.658  18.157  1.00  0.00     0.001 A 
HETATM   17  C   LIG     1      18.981  39.650  19.089  1.00  0.00     0.001 A 
HETATM   18  C   LIG     1      18.832  39.402  20.455  1.00  0.00     0.013 A 
ENDROOT
TORSDOF 0
ENDMDL
MODEL 4
REMARK VINA RESULT:      -6.2      5.834      7.573
REMARK  0 active torsions:
REMARK  status: ('A' for Active; 'I' for Inactive)
ROOT
HETATM    1  C   LIG     1      15.541  33.871  18.922  1.00  0.00    -0.015 A 
HETATM    2  C   LIG     1      14.919  33.059  19.908  1.00  0.00    -0.025 A 
HETATM    3  C   LIG     1      14.397  31.815  19.565  1.00  0.00     0.013 A 
HETATM    4  C   LIG     1      14.475  31.346  18.262  1.00  0.00     0.014 A 
HETATM    5  C   LIG     1      15.082  32.106  17.238  1.00  0.00    -0.014 A 
HETATM    6  C   LIG     1      15.624  33.391  17.573  1.00  0.00    -0.014 A 
HETATM    7  C   LIG     1      16.232  34.151  16.549  1.00  0.00     0.014 A 
HETATM    8  C   LIG     1      16.310  33.682  15.246  1.00  0.00     0.013 A 
HETATM    9  C   LIG     1      15.788  32.438  14.903  1.00  0.00    -0.025 A 
HETATM   10  C   LIG     1      15.166  31.626  15.890  1.00  0.00    -0.015 A 
HETATM   11  C   LIG     1      14.654  30.368  15.476  1.00  0.00     0.013 A 
HETATM   12  C   LIG     1      14.762  29.948  14.149  1.00  0.00     0.001 A 
HETATM   13  C   LIG     1      15.375  30.759  13.200  1.00  0.00     0.001 A 
HETATM   14  C   LIG     1      15.887  31.998  13.573  1.00  0.00     0.012 A 
HETATM   15  C   LIG     1      14.820  33.499  21.238  1.00  0.00     0.012 A 
HETATM   16  C   LIG     1      15.332  34.738  21.611  1.00  0.00     0.001 A 
HETATM   17  C   LIG     1      15.945  35.549  20.663  1.00  0.00     0.001 A 
HETATM   18  C   LIG     1      16.053  35.129  19.335  1.00  0.00     0.013 A 
ENDROOT
TORSDOF 0
ENDMDL
MODEL 5
REMARK VINA RESULT:      -6.2     16.161     17.701
REMARK  0 active torsions:
REMARK  status: ('A' for Active; 'I' for Inactive)
ROOT
HETATM    1  C   LIG     1      28.311  28.604  31.662  1.00  0.00    -0.015 A 
HETATM    2  C   LIG     1      27.318  27.603  31.486  1.00  0.00    -0.025 A 
HETATM    3  C   LIG     1      26.398  27.341  32.497  1.00  0.00     0.013 A 
HETATM    4  C   LIG     1      26.432  28.049  33.690  1.00  0.00     0.014 A 
HETATM    5  C   LIG     1      27.394  29.056  33.924  1.00  0.00    -0.014 A 
HETATM    6  C   LIG     1      28.350  29.339  32.893  1.00  0.00    -0.014 A 
HETATM    7  C   LIG     1      29.312  30.347  33.127  1.00  0.00     0.014 A 
HETATM    8  C   LIG     1      29.346  31.054  34.320  1.00  0.00     0.013 A 
HETATM    9  C   LIG     1      28.426  30.792  35.331  1.00  0.00    -0.025 A 
HETATM   10  C   LIG     1      27.433  29.791  35.155  1.00  0.00    -0.015 A 
HETATM   11  C   LIG     1      26.525  29.572  36.223  1.00  0.00     0.013 A 
HETATM   12  C   LIG     1      26.607  30.316  37.402  1.00  0.00     0.001 A 
HETATM   13  C   LIG     1      27.586  31.292  37.553  1.00  0.00     0.001 A 
HETATM   14  C   LIG     1      28.492  31.530  36.524  1.00  0.00     0.012 A 
HETATM   15  C   LIG     1      27.252  26.865  30.293  1.00  0.00     0.012 A 
HETATM   16  C   LIG     1      28.158  27.104  29.264  1.00  0.00     0.001 A 
HETATM   17  C   LIG     1      29.137  28.079  29.415  1.00  0.00     0.001 A 
HETATM   18  C   LIG     1      29.219  28.823  30.594  1.00  0.00     0.013 A 
ENDROOT
TORSDOF 0
ENDMDL
MODEL 6
REMARK VINA RESULT:      -6.2     16.152     17.186
REMARK  0 active torsions:
REMARK  status: ('A' for Active; 'I' for Inactive)
ROOT
HETATM    1  C   LIG     1      27.421  29.761  35.135  1.00  0.00    -0.015 A 
HETATM    2  C   LIG     1      28.396  30.781  35.300  1.00  0.00    -0.025 A 
HETATM    3  C   LIG     1      29.300  31.058  34.279  1.00  0.00     0.013 A 
HETATM    4  C   LIG     1      29.268  30.349  33.088  1.00  0.00     0.014 A 
HETATM    5  C   LIG     1      28.323  29.323  32.864  1.00  0.00    -0.014 A 
HETATM    6  C   LIG     1      27.383  29.024  33.905  1.00  0.00    -0.014 A 
HETATM    7  C   LIG     1      26.437  27.999  33.681  1.00  0.00     0.014 A 
HETATM    8  C   LIG     1      26.404  27.289  32.490  1.00  0.00     0.013 A 
HETATM    9  C   LIG     1      27.309  27.566  31.469  1.00  0.00    -0.025 A 
HETATM   10  C   LIG     1      28.284  28.587  31.634  1.00  0.00    -0.015 A 
HETATM   11  C   LIG     1      29.178  28.821  30.556  1.00  0.00     0.013 A 
HETATM   12  C   LIG     1      29.097  28.074  29.379  1.00  0.00     0.001 A 
HETATM   13  C   LIG     1      28.135  27.081  29.239  1.00  0.00     0.001 A 
HETATM   14  C   LIG     1      27.244  26.826  30.278  1.00  0.00     0.012 A 
HETATM   15  C   LIG     1      28.461  31.521  36.491  1.00  0.00     0.012 A 
HETATM   16  C   LIG     1      27.570  31.267  37.530  1.00  0.00     0.001 A 
HETATM   17  C   LIG     1      26.608  30.273  37.390  1.00  0.00     0.001 A 
HETATM   18  C   LIG     1      26.527  29.526  36.213  1.00  0.00     0.013 A 
ENDROOT
TORSDOF 0
ENDMDL
MODEL 7
REMARK VINA RESULT:      -5.8     15.166     17.226
REMARK  0 active torsions:
REMARK  status: ('A' for Active; 'I' for Inactive)
ROOT
HETATM    1  C   LIG     1      27.676  24.419  17.785  1.00  0.00    -0.015 A 
HETATM    2  C   LIG     1      27.915  25.670  18.416  1.00  0.00    -0.025 A 
HETATM    3  C   LIG     1      27.210  26.021  19.565  1.00  0.00     0.013 A 
HETATM    4  C   LIG     1      26.268  25.163  20.111  1.00  0.00     0.014 A 
HETATM    5  C   LIG     1      25.986  23.907  19.529  1.00  0.00    -0.014 A 
HETATM    6  C   LIG     1      26.703  23.529  18.346  1.00  0.00    -0.014 A 
HETATM    7  C   LIG     1      26.422  22.272  17.765  1.00  0.00     0.014 A 
HETATM    8  C   LIG     1      25.480  21.414  18.311  1.00  0.00     0.013 A 
HETATM    9  C   LIG     1      24.775  21.765  19.460  1.00  0.00    -0.025 A 
HETATM   10  C   LIG     1      25.014  23.016  20.091  1.00  0.00    -0.015 A 
HETATM   11  C   LIG     1      24.263  23.315  21.258  1.00  0.00     0.013 A 
HETATM   12  C   LIG     1      23.327  22.411  21.764  1.00  0.00     0.001 A 
HETATM   13  C   LIG     1      23.110  21.193  21.130  1.00  0.00     0.001 A 
HETATM   14  C   LIG     1      23.829  20.869  19.983  1.00  0.00     0.012 A 
HETATM   15  C   LIG     1      28.861  26.566  17.893  1.00  0.00     0.012 A 
HETATM   16  C   LIG     1      29.580  26.242  16.746  1.00  0.00     0.001 A 
HETATM   17  C   LIG     1      29.363  25.024  16.112  1.00  0.00     0.001 A 
HETATM   18  C   LIG     1      28.427  24.120  16.618  1.00  0.00     0.013 A 
ENDROOT
TORSDOF 0
ENDMDL
MODEL 8
REMARK VINA RESULT:      -5.8     16.207     17.035
REMARK  0 active torsions:
REMARK  status: ('A' for Active; 'I' for Inactive)
ROOT
HETATM    1  C   LIG     1      24.822  22.548  20.639  1.00  0.00    -0.015 A 
HETATM    2  C   LIG     1      23.520  21.980  20.621  1.00  0.00    -0.025 A 
HETATM    3  C   LIG     1      22.854  21.716  21.815  1.00  0.00     0.013 A 
HETATM    4  C   LIG     1      23.445  22.000  23.037  1.00  0.00     0.014 A 
HETATM    5  C   LIG     1      24.737  22.565  23.119  1.00  0.00    -0.014 A 
HETATM    6  C   LIG     1      25.438  22.844  21.899  1.00  0.00    -0.014 A 
HETATM    7  C   LIG     1      26.730  23.410  21.982  1.00  0.00     0.014 A 
HETATM    8  C   LIG     1      27.321  23.694  23.204  1.00  0.00     0.013 A 
HETATM    9  C   LIG     1      26.655  23.429  24.397  1.00  0.00    -0.025 A 
HETATM   10  C   LIG     1      25.353  22.861  24.380  1.00  0.00    -0.015 A 
HETATM   11  C   LIG     1      24.727  22.616  25.630  1.00  0.00     0.013 A 
HETATM   12  C   LIG     1      25.372  22.923  26.830  1.00  0.00     0.001 A 
HETATM   13  C   LIG     1      26.646  23.479  26.824  1.00  0.00     0.001 A 
HETATM   14  C   LIG     1      27.287  23.731  25.614  1.00  0.00     0.012 A 
HETATM   15  C   LIG     1      22.888  21.678  19.404  1.00  0.00     0.012 A 
HETATM   16  C   LIG     1      23.528  21.931  18.195  1.00  0.00     0.001 A 
HETATM   17  C   LIG     1      24.803  22.487  18.188  1.00  0.00     0.001 A 
HETATM   18  C   LIG     1      25.447  22.794  19.388  1.00  0.00     0.013 A 
ENDROOT
TORSDOF 0
ENDMDL
MODEL 9
REMARK VINA RESULT:      -5.8     15.544     17.201
REMARK  0 active torsions:
REMARK  status: ('A' for Active; 'I' for Inactive)
ROOT
HETATM    1  C   LIG     1      23.958  20.431  20.117  1.00  0.00    -0.015 A 
HETATM    2  C   LIG     1      23.262  20.361  18.880  1.00  0.00    -0.025 A 
HETATM    3  C   LIG     1      23.429  21.360  17.925  1.00  0.00     0.013 A 
HETATM    4  C   LIG     1      24.272  22.436  18.160  1.00  0.00     0.014 A 
HETATM    5  C   LIG     1      24.991  22.561  19.370  1.00  0.00    -0.014 A 
HETATM    6  C   LIG     1      24.832  21.541  20.365  1.00  0.00    -0.014 A 
HETATM    7  C   LIG     1      25.551  21.665  21.575  1.00  0.00     0.014 A 
HETATM    8  C   LIG     1      26.395  22.740  21.810  1.00  0.00     0.013 A 
HETATM    9  C   LIG     1      26.561  23.739  20.855  1.00  0.00    -0.025 A 
HETATM   10  C   LIG     1      25.865  23.670  19.618  1.00  0.00    -0.015 A 
HETATM   11  C   LIG     1      26.077  24.720  18.686  1.00  0.00     0.013 A 
HETATM   12  C   LIG     1      26.940  25.778  18.978  1.00  0.00     0.001 A 
HETATM   13  C   LIG     1      27.611  25.826  20.194  1.00  0.00     0.001 A 
HETATM   14  C   LIG     1      27.424  24.812  21.130  1.00  0.00     0.012 A 
HETATM   15  C   LIG     1      22.399  19.289  18.604  1.00  0.00     0.012 A 
HETATM   16  C   LIG     1      22.212  18.275  19.540  1.00  0.00     0.001 A 
HETATM   17  C   LIG     1      22.884  18.323  20.757  1.00  0.00     0.001 A 
HETATM   18  C   LIG     1      23.746  19.381  21.049  1.00  0.00     0.013 A 
ENDROOT
TORSDOF 0
ENDMDL
MODEL 10
REMARK VINA RESULT:      -5.8     16.209     16.406
REMARK  0 active torsions:
REMARK  status: ('A' for Active; 'I' for Inactive)
ROOT
HETATM    1  C   LIG     1      25.306  22.831  24.397  1.00  0.00    -0.015 A 
HETATM    2  C   LIG     1      26.608  23.400  24.423  1.00  0.00    -0.025 A 
HETATM    3  C   LIG     1      27.279  23.670  23.233  1.00  0.00     0.013 A 
HETATM    4  C   LIG     1      26.693  23.391  22.007  1.00  0.00     0.014 A 
HETATM    5  C   LIG     1      25.402  22.825  21.917  1.00  0.00    -0.014 A 
HETATM    6  C   LIG     1      24.696  22.541  23.133  1.00  0.00    -0.014 A 
HETATM    7  C   LIG     1      23.404  21.977  23.042  1.00  0.00     0.014 A 
HETATM    8  C   LIG     1      22.818  21.698  21.817  1.00  0.00     0.013 A 
HETATM    9  C   LIG     1      23.489  21.967  20.627  1.00  0.00    -0.025 A 
HETATM   10  C   LIG     1      24.791  22.536  20.652  1.00  0.00    -0.015 A 
HETATM   11  C   LIG     1      25.422  22.787  19.406  1.00  0.00     0.013 A 
HETATM   12  C   LIG     1      24.782  22.485  18.202  1.00  0.00     0.001 A 
HETATM   13  C   LIG     1      23.508  21.930  18.200  1.00  0.00     0.001 A 
HETATM   14  C   LIG     1      22.862  21.671  19.406  1.00  0.00     0.012 A 
HETATM   15  C   LIG     1      27.235  23.696  25.644  1.00  0.00     0.012 A 
HETATM   16  C   LIG     1      26.589  23.437  26.849  1.00  0.00     0.001 A 
HETATM   17  C   LIG     1      25.315  22.882  26.848  1.00  0.00     0.001 A 
HETATM   18  C   LIG     1      24.675  22.580  25.644  1.00  0.00     0.013 A 
ENDROOT
TORSDOF 0
ENDMDL
MODEL 11
REMARK VINA RESULT:      -5.8     15.275     16.445
REMARK  0 active torsions:
REMARK  status: ('A' for Active; 'I' for Inactive)
ROOT
HETATM    1  C   LIG     1      24.973  22.910  20.119  1.00  0.00    -0.015 A 
HETATM    2  C   LIG     1      24.762  21.620  19.564  1.00  0.00    -0.025 A 
HETATM    3  C   LIG     1      25.495  21.205  18.455  1.00  0.00     0.013 A 
HETATM    4  C   LIG     1      26.440  22.038  17.875  1.00  0.00     0.014 A 
HETATM    5  C   LIG     1      26.695  23.332  18.382  1.00  0.00    -0.014 A 
HETATM    6  C   LIG     1      25.949  23.776  19.524  1.00  0.00    -0.014 A 
HETATM    7  C   LIG     1      26.205  25.069  20.031  1.00  0.00     0.014 A 
HETATM    8  C   LIG     1      27.150  25.902  19.451  1.00  0.00     0.013 A 
HETATM    9  C   LIG     1      27.883  25.488  18.343  1.00  0.00    -0.025 A 
HETATM   10  C   LIG     1      27.672  24.197  17.787  1.00  0.00    -0.015 A 
HETATM   11  C   LIG     1      28.451  23.834  16.657  1.00  0.00     0.013 A 
HETATM   12  C   LIG     1      29.389  24.715  16.116  1.00  0.00     0.001 A 
HETATM   13  C   LIG     1      29.579  25.973  16.676  1.00  0.00     0.001 A 
HETATM   14  C   LIG     1      28.831  26.360  17.785  1.00  0.00     0.012 A 
HETATM   15  C   LIG     1      23.814  20.747  20.122  1.00  0.00     0.012 A 
HETATM   16  C   LIG     1      23.066  21.134  21.230  1.00  0.00     0.001 A 
HETATM   17  C   LIG     1      23.256  22.392  21.790  1.00  0.00     0.001 A 
HETATM   18  C   LIG     1      24.194  23.274  21.249  1.00  0.00     0.013 A 
ENDROOT
TORSDOF 0
ENDMDL
MODEL 12
REMARK VINA RESULT:      -5.7     16.375     17.264
REMARK  0 active torsions:
REMARK  status: ('A' for Active; 'I' for Inactive)
ROOT
HETATM    1  C   LIG     1      27.710  26.735  30.208  1.00  0.00    -0.015 A 
HETATM    2  C   LIG     1      28.704  27.178  29.295  1.00  0.00    -0.025 A 
HETATM    3  C   LIG     1      29.474  28.301  29.588  1.00  0.00     0.013 A 
HETATM    4  C   LIG     1      29.287  29.004  30.768  1.00  0.00     0.014 A 
HETATM    5  C   LIG     1      28.314  28.612  31.715  1.00  0.00    -0.014 A 
HETATM    6  C   LIG     1      27.512  27.457  31.430  1.00  0.00    -0.014 A 
HETATM    7  C   LIG     1      26.540  27.065  32.377  1.00  0.00     0.014 A 
HETATM    8  C   LIG     1      26.353  27.768  33.558  1.00  0.00     0.013 A 
HETATM    9  C   LIG     1      27.123  28.890  33.851  1.00  0.00    -0.025 A 
HETATM   10  C   LIG     1      28.117  29.334  32.938  1.00  0.00    -0.015 A 
HETATM   11  C   LIG     1      28.868  30.485  33.294  1.00  0.00     0.013 A 
HETATM   12  C   LIG     1      28.635  31.152  34.499  1.00  0.00     0.001 A 
HETATM   13  C   LIG     1      27.657  30.700  35.377  1.00  0.00     0.001 A 
HETATM   14  C   LIG     1      26.903  29.575  35.057  1.00  0.00     0.012 A 
HETATM   15  C   LIG     1      28.924  26.494  28.089  1.00  0.00     0.012 A 
HETATM   16  C   LIG     1      28.170  25.369  27.769  1.00  0.00     0.001 A 
HETATM   17  C   LIG     1      27.192  24.917  28.647  1.00  0.00     0.001 A 
HETATM   18  C   LIG     1      26.959  25.584  29.851  1.00  0.00     0.013 A 
ENDROOT
TORSDOF 0
ENDMDL
MODEL 13
REMARK VINA RESULT:      -5.7     15.973     17.861
REMARK  0 active torsions:
REMARK  status: ('A' for Active; 'I' for Inactive)
ROOT
HETATM    1  C   LIG     1      23.512  20.986  20.714  1.00  0.00    -0.015 A 
HETATM    2  C   LIG     1      24.219  22.039  20.072  1.00  0.00    -0.025 A 
HETATM    3  C   LIG     1      24.888  22.998  20.828  1.00  0.00     0.013 A 
HETATM    4  C   LIG     1      24.877  22.945  22.214  1.00  0.00     0.014 A 
HETATM    5  C   LIG     1      24.192  21.923  22.909  1.00  0.00    -0.014 A 
HETATM    6  C   LIG     1      23.498  20.927  22.146  1.00  0.00    -0.014 A 
HETATM    7  C   LIG     1      22.814  19.905  22.841  1.00  0.00     0.014 A 
HETATM    8  C   LIG     1      22.803  19.852  24.227  1.00  0.00     0.013 A 
HETATM    9  C   LIG     1      23.471  20.811  24.984  1.00  0.00    -0.025 A 
HETATM   10  C   LIG     1      24.178  21.863  24.342  1.00  0.00    -0.015 A 
HETATM   11  C   LIG     1      24.839  22.810  25.169  1.00  0.00     0.013 A 
HETATM   12  C   LIG     1      24.794  22.705  26.560  1.00  0.00     0.001 A 
HETATM   13  C   LIG     1      24.096  21.667  27.167  1.00  0.00     0.001 A 
HETATM   14  C   LIG     1      23.437  20.723  26.384  1.00  0.00     0.012 A 
HETATM   15  C   LIG     1      24.253  22.127  18.671  1.00  0.00     0.012 A 
HETATM   16  C   LIG     1      23.594  21.183  17.888  1.00  0.00     0.001 A 
HETATM   17  C   LIG     1      22.897  20.144  18.495  1.00  0.00     0.001 A 
HETATM   18  C   LIG     1      22.852  20.040  19.887  1.00  0.00     0.013 A 
ENDROOT
TORSDOF 0
ENDMDL
MODEL 14
REMARK VINA RESULT:      -5.7     15.989     16.845
REMARK  0 active torsions:
REMARK  status: ('A' for Active; 'I' for Inactive)
ROOT
HETATM    1  C   LIG     1      24.332  22.017  24.337  1.00  0.00    -0.015 A 
HETATM    2  C   LIG     1      23.590  21.015  25.019  1.00  0.00    -0.025 A 
HETATM    3  C   LIG     1      22.869  20.066  24.300  1.00  0.00     0.013 A 
HETATM    4  C   LIG     1      22.861  20.079  22.913  1.00  0.00     0.014 A 
HETATM    5  C   LIG     1      23.579  21.049  22.179  1.00  0.00    -0.014 A 
HETATM    6  C   LIG     1      24.327  22.035  22.903  1.00  0.00    -0.014 A 
HETATM    7  C   LIG     1      25.046  23.005  22.169  1.00  0.00     0.014 A 
HETATM    8  C   LIG     1      25.038  23.018  20.783  1.00  0.00     0.013 A 
HETATM    9  C   LIG     1      24.317  22.069  20.064  1.00  0.00    -0.025 A 
HETATM   10  C   LIG     1      23.575  21.067  20.745  1.00  0.00    -0.015 A 
HETATM   11  C   LIG     1      22.860  20.129  19.955  1.00  0.00     0.013 A 
HETATM   12  C   LIG     1      22.889  20.191  18.561  1.00  0.00     0.001 A 
HETATM   13  C   LIG     1      23.623  21.180  17.915  1.00  0.00     0.001 A 
HETATM   14  C   LIG     1      24.334  22.116  18.660  1.00  0.00     0.012 A 
HETATM   15  C   LIG     1      23.573  20.968  26.422  1.00  0.00     0.012 A 
HETATM   16  C   LIG     1      24.284  21.904  27.168  1.00  0.00     0.001 A 
HETATM   17  C   LIG     1      25.018  22.893  26.522  1.00  0.00     0.001 A 
HETATM   18  C   LIG     1      25.047  22.955  25.127  1.00  0.00     0.013 A 
ENDROOT
TORSDOF 0
ENDMDL
MODEL 15
REMARK VINA RESULT:      -5.5     15.602     17.564
REMARK  0 active torsions:
REMARK  status: ('A' for Active; 'I' for Inactive)
ROOT
HETATM    1  C   LIG     1      26.085  23.377  20.221  1.00  0.00    -0.015 A 
HETATM    2  C   LIG     1      26.062  24.215  19.073  1.00  0.00    -0.025 A 
HETATM    3  C   LIG     1      25.276  23.877  17.975  1.00  0.00     0.013 A 
HETATM    4  C   LIG     1      24.505  22.723  17.980  1.00  0.00     0.014 A 
HETATM    5  C   LIG     1      24.487  21.851  19.090  1.00  0.00    -0.014 A 
HETATM    6  C   LIG     1      25.291  22.184  20.231  1.00  0.00    -0.014 A 
HETATM    7  C   LIG     1      25.272  21.312  21.342  1.00  0.00     0.014 A 
HETATM    8  C   LIG     1      24.502  20.158  21.347  1.00  0.00     0.013 A 
HETATM    9  C   LIG     1      23.716  19.821  20.249  1.00  0.00    -0.025 A 
HETATM   10  C   LIG     1      23.692  20.658  19.101  1.00  0.00    -0.015 A 
HETATM   11  C   LIG     1      22.871  20.258  18.014  1.00  0.00     0.013 A 
HETATM   12  C   LIG     1      22.116  19.085  18.076  1.00  0.00     0.001 A 
HETATM   13  C   LIG     1      22.154  18.281  19.209  1.00  0.00     0.001 A 
HETATM   14  C   LIG     1      22.950  18.645  20.292  1.00  0.00     0.012 A 
HETATM   15  C   LIG     1      26.828  25.391  19.030  1.00  0.00     0.012 A 
HETATM   16  C   LIG     1      27.623  25.754  20.113  1.00  0.00     0.001 A 
HETATM   17  C   LIG     1      27.662  24.950  21.246  1.00  0.00     0.001 A 
HETATM   18  C   LIG     1      26.907  23.777  21.308  1.00  0.00     0.013 A 
ENDROOT
TORSDOF 0
ENDMDL
MODEL 16
REMARK VINA RESULT:      -5.5     16.437     18.052
REMARK  0 active torsions:
REMARK  status: ('A' for Active; 'I' for Inactive)
ROOT
HETATM    1  C   LIG     1      24.679  20.182  17.574  1.00  0.00    -0.015 A 
HETATM    2  C   LIG     1      23.352  20.423  18.020  1.00  0.00    -0.025 A 
HETATM    3  C   LIG     1      23.012  21.652  18.579  1.00  0.00     0.013 A 
HETATM    4  C   LIG     1      23.957  22.658  18.711  1.00  0.00     0.014 A 
HETATM    5  C   LIG     1      25.292  22.479  18.287  1.00  0.00    -0.014 A 
HETATM    6  C   LIG     1      25.660  21.219  17.708  1.00  0.00    -0.014 A 
HETATM    7  C   LIG     1      26.995  21.040  17.283  1.00  0.00     0.014 A 
HETATM    8  C   LIG     1      27.940  22.046  17.415  1.00  0.00     0.013 A 
HETATM    9  C   LIG     1      27.601  23.275  17.974  1.00  0.00    -0.025 A 
HETATM   10  C   LIG     1      26.273  23.516  18.420  1.00  0.00    -0.015 A 
HETATM   11  C   LIG     1      25.991  24.790  18.981  1.00  0.00     0.013 A 
HETATM   12  C   LIG     1      26.983  25.766  19.088  1.00  0.00     0.001 A 
HETATM   13  C   LIG     1      28.276  25.508  18.645  1.00  0.00     0.001 A 
HETATM   14  C   LIG     1      28.585  24.269  18.090  1.00  0.00     0.012 A 
HETATM   15  C   LIG     1      22.367  19.429  17.904  1.00  0.00     0.012 A 
HETATM   16  C   LIG     1      22.677  18.190  17.350  1.00  0.00     0.001 A 
HETATM   17  C   LIG     1      23.969  17.933  16.907  1.00  0.00     0.001 A 
HETATM   18  C   LIG     1      24.962  18.909  17.013  1.00  0.00     0.013 A 
ENDROOT
TORSDOF 0
ENDMDL
MODEL 17
REMARK VINA RESULT:      -5.5     15.565     16.689
REMARK  0 active torsions:
REMARK  status: ('A' for Active; 'I' for Inactive)
ROOT
HETATM    1  C   LIG     1      28.091  25.055  20.339  1.00  0.00    -0.015 A 
HETATM    2  C   LIG     1      27.736  25.409  19.009  1.00  0.00    -0.025 A 
HETATM    3  C   LIG     1      26.528  24.979  18.467  1.00  0.00     0.013 A 
HETATM    4  C   LIG     1      25.653  24.200  19.210  1.00  0.00     0.014 A 
HETATM    5  C   LIG     1      25.949  23.816  20.536  1.00  0.00    -0.014 A 
HETATM    6  C   LIG     1      27.190  24.251  21.111  1.00  0.00    -0.014 A 
HETATM    7  C   LIG     1      27.486  23.867  22.438  1.00  0.00     0.014 A 
HETATM    8  C   LIG     1      26.611  23.088  23.181  1.00  0.00     0.013 A 
HETATM    9  C   LIG     1      25.402  22.658  22.639  1.00  0.00    -0.025 A 
HETATM   10  C   LIG     1      25.048  23.012  21.309  1.00  0.00    -0.015 A 
HETATM   11  C   LIG     1      23.803  22.542  20.815  1.00  0.00     0.013 A 
HETATM   12  C   LIG     1      22.961  21.761  21.610  1.00  0.00     0.001 A 
HETATM   13  C   LIG     1      23.328  21.427  22.908  1.00  0.00     0.001 A 
HETATM   14  C   LIG     1      24.543  21.872  23.423  1.00  0.00     0.012 A 
HETATM   15  C   LIG     1      28.596  26.196  18.225  1.00  0.00     0.012 A 
HETATM   16  C   LIG     1      29.810  26.641  18.740  1.00  0.00     0.001 A 
HETATM   17  C   LIG     1      30.178  26.306  20.038  1.00  0.00     0.001 A 
HETATM   18  C   LIG     1      29.336  25.525  20.833  1.00  0.00     0.013 A 
ENDROOT
TORSDOF 0
ENDMDL
MODEL 18
REMARK VINA RESULT:      -5.4     16.447     18.241
REMARK  0 active torsions:
REMARK  status: ('A' for Active; 'I' for Inactive)
ROOT
HETATM    1  C   LIG     1      26.325  23.548  18.378  1.00  0.00    -0.015 A 
HETATM    2  C   LIG     1      27.646  23.309  17.912  1.00  0.00    -0.025 A 
HETATM    3  C   LIG     1      27.983  22.074  17.363  1.00  0.00     0.013 A 
HETATM    4  C   LIG     1      27.042  21.061  17.261  1.00  0.00     0.014 A 
HETATM    5  C   LIG     1      25.713  21.238  17.706  1.00  0.00    -0.014 A 
HETATM    6  C   LIG     1      25.349  22.503  18.275  1.00  0.00    -0.014 A 
HETATM    7  C   LIG     1      24.019  22.681  18.719  1.00  0.00     0.014 A 
HETATM    8  C   LIG     1      23.078  21.667  18.617  1.00  0.00     0.013 A 
HETATM    9  C   LIG     1      23.415  20.433  18.068  1.00  0.00    -0.025 A 
HETATM   10  C   LIG     1      24.736  20.194  17.602  1.00  0.00    -0.015 A 
HETATM   11  C   LIG     1      25.017  18.915  17.053  1.00  0.00     0.013 A 
HETATM   12  C   LIG     1      24.028  17.933  16.975  1.00  0.00     0.001 A 
HETATM   13  C   LIG     1      22.742  18.189  17.437  1.00  0.00     0.001 A 
HETATM   14  C   LIG     1      22.434  19.432  17.981  1.00  0.00     0.012 A 
HETATM   15  C   LIG     1      28.627  24.309  17.999  1.00  0.00     0.012 A 
HETATM   16  C   LIG     1      28.320  25.553  18.543  1.00  0.00     0.001 A 
HETATM   17  C   LIG     1      27.034  25.809  19.005  1.00  0.00     0.001 A 
HETATM   18  C   LIG     1      26.045  24.827  18.927  1.00  0.00     0.013 A 
ENDROOT
TORSDOF 0
ENDMDL
MODEL 19
REMARK VINA RESULT:      -5.4     15.701     17.227
REMARK  0 active torsions:
REMARK  status: ('A' for Active; 'I' for Inactive)
ROOT
HETATM    1  C   LIG     1      26.244  23.792  20.617  1.00  0.00    -0.015 A 
HETATM    2  C   LIG     1      25.788  23.605  19.284  1.00  0.00    -0.025 A 
HETATM    3  C   LIG     1      24.771  22.693  19.013  1.00  0.00     0.013 A 
HETATM    4  C   LIG     1      24.187  21.954  20.031  1.00  0.00     0.014 A 
HETATM    5  C   LIG     1      24.598  22.096  21.376  1.00  0.00    -0.014 A 
HETATM    6  C   LIG     1      25.644  23.031  21.674  1.00  0.00    -0.014 A 
HETATM    7  C   LIG     1      26.054  23.174  23.018  1.00  0.00     0.014 A 
HETATM    8  C   LIG     1      25.470  22.435  24.037  1.00  0.00     0.013 A 
HETATM    9  C   LIG     1      24.453  21.524  23.765  1.00  0.00    -0.025 A 
HETATM   10  C   LIG     1      23.997  21.336  22.433  1.00  0.00    -0.015 A 
HETATM   11  C   LIG     1      22.958  20.392  22.222  1.00  0.00     0.013 A 
HETATM   12  C   LIG     1      22.408  19.677  23.287  1.00  0.00     0.001 A 
HETATM   13  C   LIG     1      22.870  19.877  24.584  1.00  0.00     0.001 A 
HETATM   14  C   LIG     1      23.888  20.795  24.824  1.00  0.00     0.012 A 
HETATM   15  C   LIG     1      26.354  24.333  18.226  1.00  0.00     0.012 A 
HETATM   16  C   LIG     1      27.371  25.252  18.466  1.00  0.00     0.001 A 
HETATM   17  C   LIG     1      27.833  25.451  19.762  1.00  0.00     0.001 A 
HETATM   18  C   LIG     1      27.283  24.736  20.828  1.00  0.00     0.013 A 
ENDROOT
TORSDOF 0
ENDMDL
