REMARK  10 active torsions:
REMARK  status: ('A' for Active; 'I' for Inactive)
REMARK    1  A    between atoms: C_2  and  C_12 
REMARK    2  A    between atoms: C_2  and  O_3 
REMARK    3  A    between atoms: O_3  and  C_4 
REMARK    4  A    between atoms: C_4  and  C_5 
REMARK    5  A    between atoms: C_5  and  N_6 
REMARK    6  A    between atoms: N_6  and  C_7 
REMARK    7  A    between atoms: C_7  and  C_8 
REMARK    8  A    between atoms: C_8  and  C_9 
REMARK    9  A    between atoms: C_9  and  C_10 
REMARK   10  A    between atoms: C_17  and  N_18 
ROOT
HETATM    1  O   LIG     1      -3.495  -3.639   0.275  1.00  0.00    -0.259 OA
HETATM    2  C   LIG     1      -2.957  -2.541   0.572  1.00  0.00     0.293 C 
ENDROOT
BRANCH   2   3
HETATM    3  C   LIG     1      -3.505  -1.299  -0.009  1.00  0.00     0.039 A 
HETATM    4  C   LIG     1      -3.847  -0.214   0.813  1.00  0.00     0.020 A 
HETATM    5  C   LIG     1      -4.380   0.953   0.257  1.00  0.00     0.030 A 
HETATM    6  C   LIG     1      -4.590   1.043  -1.126  1.00  0.00     0.025 A 
HETATM    7  C   LIG     1      -4.271  -0.049  -1.946  1.00  0.00     0.030 A 
HETATM    8  C   LIG     1      -3.739  -1.216  -1.390  1.00  0.00     0.020 A 
BRANCH   6   9
HETATM    9  N   LIG     1      -5.134   2.236  -1.696  1.00  0.00    -0.399 N 
HETATM   10  H   LIG     1      -5.297   2.312  -2.724  1.00  0.00     0.156 HD
HETATM   11  H   LIG     1      -5.377   3.054  -1.093  1.00  0.00     0.156 HD
ENDBRANCH   6   9
ENDBRANCH   2   3
BRANCH   2  12
HETATM   12  O   LIG     1      -1.854  -2.548   1.439  1.00  0.00    -0.316 OA
BRANCH  12  13
HETATM   13  C   LIG     1      -0.888  -1.500   1.543  1.00  0.00     0.209 C 
BRANCH  13  14
HETATM   14  C   LIG     1      -0.042  -1.411   0.262  1.00  0.00     0.296 C 
BRANCH  14  15
HETATM   15  N   LIG     1       0.882  -0.267   0.275  1.00  0.00     0.085 N 
HETATM   16  H   LIG     1       0.357   0.601   0.535  1.00  0.00     0.315 HD
BRANCH  15  17
HETATM   17  C   LIG     1       1.996  -0.458   1.215  1.00  0.00     0.269 C 
BRANCH  17  18
HETATM   18  C   LIG     1       3.098   0.575   0.954  1.00  0.00     0.030 C 
BRANCH  18  19
HETATM   19  C   LIG     1       3.770   0.359  -0.412  1.00  0.00     0.001 C 
BRANCH  19  20
HETATM   20  C   LIG     1       4.813   1.440  -0.733  1.00  0.00    -0.005 C 
HETATM   21  C   LIG     1       6.072   1.322   0.127  1.00  0.00     0.005 C 
ENDBRANCH  19  20
ENDBRANCH  18  19
ENDBRANCH  17  18
ENDBRANCH  15  17
ENDBRANCH  14  15
ENDBRANCH  13  14
ENDBRANCH  12  13
ENDBRANCH   2  12
TORSDOF 10
