REMARK  0 active torsions:
REMARK  status: ('A' for Active; 'I' for Inactive)
ROOT
HETATM    1  C   LIG     1       1.588   1.655  -0.514  1.00  0.00     0.010 C 
HETATM    2  C   LIG     1       0.514   0.786   0.162  1.00  0.00    -0.015 C 
HETATM    3  C   LIG     1       0.569  -0.694  -0.319  1.00  0.00    -0.015 C 
HETATM    4  C   LIG     1       1.918  -1.358   0.005  1.00  0.00     0.010 C 
HETATM    5  C   LIG     1      -0.570  -1.513   0.325  1.00  0.00     0.004 C 
HETATM    6  C   LIG     1      -1.939  -0.890   0.039  1.00  0.00     0.000 C 
HETATM    7  C   LIG     1      -1.990   0.558   0.531  1.00  0.00     0.000 C 
HETATM    8  C   LIG     1      -0.879   1.391  -0.115  1.00  0.00     0.004 C 
ENDROOT
TORSDOF 0
