MODEL 1
REMARK VINA RESULT:      -6.0      0.000      0.000
REMARK  0 active torsions:
REMARK  status: ('A' for Active; 'I' for Inactive)
ROOT
HETATM    1  C   LIG     1      16.850  35.273  22.568  1.00  0.00     0.010 C 
HETATM    2  C   LIG     1      16.874  35.827  24.002  1.00  0.00    -0.015 C 
HETATM    3  C   LIG     1      17.535  37.234  24.076  1.00  0.00    -0.015 C 
HETATM    4  C   LIG     1      16.779  38.274  23.232  1.00  0.00     0.010 C 
HETATM    5  C   LIG     1      17.606  37.720  25.540  1.00  0.00     0.004 C 
HETATM    6  C   LIG     1      18.345  36.716  26.429  1.00  0.00     0.000 C 
HETATM    7  C   LIG     1      17.678  35.340  26.364  1.00  0.00     0.000 C 
HETATM    8  C   LIG     1      17.618  34.833  24.920  1.00  0.00     0.004 C 
ENDROOT
TORSDOF 0
ENDMDL
MODEL 2
REMARK VINA RESULT:      -6.0      0.056      2.396
REMARK  0 active torsions:
REMARK  status: ('A' for Active; 'I' for Inactive)
ROOT
HETATM    1  C   LIG     1      16.762  38.271  23.169  1.00  0.00     0.010 C 
HETATM    2  C   LIG     1      17.524  37.241  24.020  1.00  0.00    -0.015 C 
HETATM    3  C   LIG     1      16.875  35.827  23.950  1.00  0.00    -0.015 C 
HETATM    4  C   LIG     1      16.862  35.267  22.517  1.00  0.00     0.010 C 
HETATM    5  C   LIG     1      17.624  34.843  24.874  1.00  0.00     0.004 C 
HETATM    6  C   LIG     1      17.674  35.357  26.316  1.00  0.00     0.000 C 
HETATM    7  C   LIG     1      18.329  36.738  26.378  1.00  0.00     0.000 C 
HETATM    8  C   LIG     1      17.585  37.733  25.482  1.00  0.00     0.004 C 
ENDROOT
TORSDOF 0
ENDMDL
MODEL 3
REMARK VINA RESULT:      -5.9      3.000      5.157
REMARK  0 active torsions:
REMARK  status: ('A' for Active; 'I' for Inactive)
ROOT
HETATM    1  C   LIG     1      17.033  37.767  23.078  1.00  0.00     0.010 C 
HETATM    2  C   LIG     1      17.526  38.022  21.644  1.00  0.00    -0.015 C 
HETATM    3  C   LIG     1      17.992  36.713  20.942  1.00  0.00    -0.015 C 
HETATM    4  C   LIG     1      16.854  35.684  20.823  1.00  0.00     0.010 C 
HETATM    5  C   LIG     1      18.548  37.023  19.536  1.00  0.00     0.004 C 
HETATM    6  C   LIG     1      19.681  38.051  19.596  1.00  0.00     0.000 C 
HETATM    7  C   LIG     1      19.210  39.340  20.271  1.00  0.00     0.000 C 
HETATM    8  C   LIG     1      18.674  39.054  21.677  1.00  0.00     0.004 C 
ENDROOT
TORSDOF 0
ENDMDL
MODEL 4
REMARK VINA RESULT:      -5.9      3.006      4.696
REMARK  0 active torsions:
REMARK  status: ('A' for Active; 'I' for Inactive)
ROOT
HETATM    1  C   LIG     1      16.822  35.694  20.860  1.00  0.00     0.010 C 
HETATM    2  C   LIG     1      17.978  36.704  20.963  1.00  0.00    -0.015 C 
HETATM    3  C   LIG     1      17.528  38.046  21.613  1.00  0.00    -0.015 C 
HETATM    4  C   LIG     1      17.007  37.848  23.047  1.00  0.00     0.010 C 
HETATM    5  C   LIG     1      18.696  39.055  21.629  1.00  0.00     0.004 C 
HETATM    6  C   LIG     1      19.258  39.284  20.224  1.00  0.00     0.000 C 
HETATM    7  C   LIG     1      19.714  37.963  19.600  1.00  0.00     0.000 C 
HETATM    8  C   LIG     1      18.561  36.956  19.556  1.00  0.00     0.004 C 
ENDROOT
TORSDOF 0
ENDMDL
MODEL 5
REMARK VINA RESULT:      -5.7      2.770      3.868
REMARK  0 active torsions:
REMARK  status: ('A' for Active; 'I' for Inactive)
ROOT
HETATM    1  C   LIG     1      19.206  36.723  19.589  1.00  0.00     0.010 C 
HETATM    2  C   LIG     1      17.993  37.193  20.410  1.00  0.00    -0.015 C 
HETATM    3  C   LIG     1      18.355  38.360  21.375  1.00  0.00    -0.015 C 
HETATM    4  C   LIG     1      18.863  39.600  20.620  1.00  0.00     0.010 C 
HETATM    5  C   LIG     1      17.132  38.750  22.232  1.00  0.00     0.004 C 
HETATM    6  C   LIG     1      16.580  37.546  23.002  1.00  0.00     0.000 C 
HETATM    7  C   LIG     1      16.210  36.412  22.044  1.00  0.00     0.000 C 
HETATM    8  C   LIG     1      17.419  35.997  21.200  1.00  0.00     0.004 C 
ENDROOT
TORSDOF 0
ENDMDL
MODEL 6
REMARK VINA RESULT:      -5.7      2.783      4.521
REMARK  0 active torsions:
REMARK  status: ('A' for Active; 'I' for Inactive)
ROOT
HETATM    1  C   LIG     1      18.856  39.624  20.777  1.00  0.00     0.010 C 
HETATM    2  C   LIG     1      18.328  38.341  21.441  1.00  0.00    -0.015 C 
HETATM    3  C   LIG     1      17.992  37.235  20.398  1.00  0.00    -0.015 C 
HETATM    4  C   LIG     1      19.228  36.814  19.584  1.00  0.00     0.010 C 
HETATM    5  C   LIG     1      17.396  35.996  21.098  1.00  0.00     0.004 C 
HETATM    6  C   LIG     1      16.165  36.361  21.931  1.00  0.00     0.000 C 
HETATM    7  C   LIG     1      16.508  37.435  22.966  1.00  0.00     0.000 C 
HETATM    8  C   LIG     1      17.081  38.681  22.285  1.00  0.00     0.004 C 
ENDROOT
TORSDOF 0
ENDMDL
MODEL 7
REMARK VINA RESULT:      -5.7      0.900      3.728
REMARK  0 active torsions:
REMARK  status: ('A' for Active; 'I' for Inactive)
ROOT
HETATM    1  C   LIG     1      17.515  37.979  25.767  1.00  0.00     0.010 C 
HETATM    2  C   LIG     1      16.904  37.166  24.613  1.00  0.00    -0.015 C 
HETATM    3  C   LIG     1      17.543  35.751  24.490  1.00  0.00    -0.015 C 
HETATM    4  C   LIG     1      17.333  34.909  25.760  1.00  0.00     0.010 C 
HETATM    5  C   LIG     1      16.957  34.998  23.276  1.00  0.00     0.004 C 
HETATM    6  C   LIG     1      17.133  35.798  21.983  1.00  0.00     0.000 C 
HETATM    7  C   LIG     1      16.487  37.179  22.106  1.00  0.00     0.000 C 
HETATM    8  C   LIG     1      17.073  37.949  23.293  1.00  0.00     0.004 C 
ENDROOT
TORSDOF 0
ENDMDL
MODEL 8
REMARK VINA RESULT:      -5.7      0.896      2.959
REMARK  0 active torsions:
REMARK  status: ('A' for Active; 'I' for Inactive)
ROOT
HETATM    1  C   LIG     1      17.305  34.920  25.720  1.00  0.00     0.010 C 
HETATM    2  C   LIG     1      17.531  35.763  24.454  1.00  0.00    -0.015 C 
HETATM    3  C   LIG     1      16.896  37.180  24.572  1.00  0.00    -0.015 C 
HETATM    4  C   LIG     1      17.498  37.989  25.733  1.00  0.00     0.010 C 
HETATM    5  C   LIG     1      17.079  37.964  23.255  1.00  0.00     0.004 C 
HETATM    6  C   LIG     1      16.502  37.198  22.062  1.00  0.00     0.000 C 
HETATM    7  C   LIG     1      17.144  35.815  21.943  1.00  0.00     0.000 C 
HETATM    8  C   LIG     1      16.953  35.014  23.234  1.00  0.00     0.004 C 
ENDROOT
TORSDOF 0
ENDMDL
MODEL 9
REMARK VINA RESULT:      -5.5      2.809      4.360
REMARK  0 active torsions:
REMARK  status: ('A' for Active; 'I' for Inactive)
ROOT
HETATM    1  C   LIG     1      18.624  36.739  19.265  1.00  0.00     0.010 C 
HETATM    2  C   LIG     1      18.441  37.289  20.689  1.00  0.00    -0.015 C 
HETATM    3  C   LIG     1      17.112  36.801  21.340  1.00  0.00    -0.015 C 
HETATM    4  C   LIG     1      17.057  35.269  21.465  1.00  0.00     0.010 C 
HETATM    5  C   LIG     1      16.931  37.434  22.736  1.00  0.00     0.004 C 
HETATM    6  C   LIG     1      16.985  38.963  22.669  1.00  0.00     0.000 C 
HETATM    7  C   LIG     1      18.301  39.433  22.046  1.00  0.00     0.000 C 
HETATM    8  C   LIG     1      18.487  38.831  20.650  1.00  0.00     0.004 C 
ENDROOT
TORSDOF 0
ENDMDL
MODEL 10
REMARK VINA RESULT:      -5.3      1.775      3.586
REMARK  0 active torsions:
REMARK  status: ('A' for Active; 'I' for Inactive)
ROOT
HETATM    1  C   LIG     1      17.200  38.150  24.593  1.00  0.00     0.010 C 
HETATM    2  C   LIG     1      17.609  37.272  23.398  1.00  0.00    -0.015 C 
HETATM    3  C   LIG     1      17.456  38.020  22.041  1.00  0.00    -0.015 C 
HETATM    4  C   LIG     1      18.344  39.275  21.969  1.00  0.00     0.010 C 
HETATM    5  C   LIG     1      17.804  37.082  20.866  1.00  0.00     0.004 C 
HETATM    6  C   LIG     1      16.952  35.810  20.894  1.00  0.00     0.000 C 
HETATM    7  C   LIG     1      17.121  35.072  22.223  1.00  0.00     0.000 C 
HETATM    8  C   LIG     1      16.760  35.982  23.401  1.00  0.00     0.004 C 
ENDROOT
TORSDOF 0
ENDMDL
MODEL 11
REMARK VINA RESULT:      -5.3      1.797      3.774
REMARK  0 active torsions:
REMARK  status: ('A' for Active; 'I' for Inactive)
ROOT
HETATM    1  C   LIG     1      18.353  39.301  21.961  1.00  0.00     0.010 C 
HETATM    2  C   LIG     1      17.467  38.046  22.020  1.00  0.00    -0.015 C 
HETATM    3  C   LIG     1      17.610  37.290  23.374  1.00  0.00    -0.015 C 
HETATM    4  C   LIG     1      17.192  38.162  24.571  1.00  0.00     0.010 C 
HETATM    5  C   LIG     1      16.764  35.999  23.364  1.00  0.00     0.004 C 
HETATM    6  C   LIG     1      17.136  35.095  22.186  1.00  0.00     0.000 C 
HETATM    7  C   LIG     1      16.974  35.840  20.858  1.00  0.00     0.000 C 
HETATM    8  C   LIG     1      17.825  37.114  20.843  1.00  0.00     0.004 C 
ENDROOT
TORSDOF 0
ENDMDL
MODEL 12
REMARK VINA RESULT:      -4.6      9.312     10.849
REMARK  0 active torsions:
REMARK  status: ('A' for Active; 'I' for Inactive)
ROOT
HETATM    1  C   LIG     1      14.192  29.673  14.101  1.00  0.00     0.010 C 
HETATM    2  C   LIG     1      14.871  30.583  15.138  1.00  0.00    -0.015 C 
HETATM    3  C   LIG     1      13.840  31.441  15.930  1.00  0.00    -0.015 C 
HETATM    4  C   LIG     1      12.845  30.570  16.715  1.00  0.00     0.010 C 
HETATM    5  C   LIG     1      14.566  32.391  16.906  1.00  0.00     0.004 C 
HETATM    6  C   LIG     1      15.577  33.279  16.175  1.00  0.00     0.000 C 
HETATM    7  C   LIG     1      16.597  32.428  15.415  1.00  0.00     0.000 C 
HETATM    8  C   LIG     1      15.894  31.493  14.426  1.00  0.00     0.004 C 
ENDROOT
TORSDOF 0
ENDMDL
MODEL 13
REMARK VINA RESULT:      -3.7     19.501     20.980
REMARK  0 active torsions:
REMARK  status: ('A' for Active; 'I' for Inactive)
ROOT
HETATM    1  C   LIG     1      14.811  18.695  17.119  1.00  0.00     0.010 C 
HETATM    2  C   LIG     1      14.877  18.122  15.693  1.00  0.00    -0.015 C 
HETATM    3  C   LIG     1      16.118  18.641  14.910  1.00  0.00    -0.015 C 
HETATM    4  C   LIG     1      17.440  18.244  15.589  1.00  0.00     0.010 C 
HETATM    5  C   LIG     1      16.107  18.102  13.463  1.00  0.00     0.004 C 
HETATM    6  C   LIG     1      14.807  18.464  12.741  1.00  0.00     0.000 C 
HETATM    7  C   LIG     1      13.594  17.934  13.508  1.00  0.00     0.000 C 
HETATM    8  C   LIG     1      13.577  18.477  14.940  1.00  0.00     0.004 C 
ENDROOT
TORSDOF 0
ENDMDL
MODEL 14
REMARK VINA RESULT:      -3.7     19.730     20.962
REMARK  0 active torsions:
REMARK  status: ('A' for Active; 'I' for Inactive)
ROOT
HETATM    1  C   LIG     1      12.394  18.304  14.124  1.00  0.00     0.010 C 
HETATM    2  C   LIG     1      13.834  18.670  14.521  1.00  0.00    -0.015 C 
HETATM    3  C   LIG     1      14.889  17.957  13.625  1.00  0.00    -0.015 C 
HETATM    4  C   LIG     1      14.745  18.345  12.143  1.00  0.00     0.010 C 
HETATM    5  C   LIG     1      16.318  18.292  14.103  1.00  0.00     0.004 C 
HETATM    6  C   LIG     1      16.513  17.933  15.578  1.00  0.00     0.000 C 
HETATM    7  C   LIG     1      15.484  18.651  16.454  1.00  0.00     0.000 C 
HETATM    8  C   LIG     1      14.059  18.313  16.006  1.00  0.00     0.004 C 
ENDROOT
TORSDOF 0
ENDMDL
MODEL 15
REMARK VINA RESULT:      -3.6     15.166     16.542
REMARK  0 active torsions:
REMARK  status: ('A' for Active; 'I' for Inactive)
ROOT
HETATM    1  C   LIG     1      29.228  31.742  37.681  1.00  0.00     0.010 C 
HETATM    2  C   LIG     1      28.198  31.601  36.548  1.00  0.00    -0.015 C 
HETATM    3  C   LIG     1      26.865  30.965  37.042  1.00  0.00    -0.015 C 
HETATM    4  C   LIG     1      26.186  31.815  38.129  1.00  0.00     0.010 C 
HETATM    5  C   LIG     1      25.889  30.772  35.862  1.00  0.00     0.004 C 
HETATM    6  C   LIG     1      26.519  29.936  34.744  1.00  0.00     0.000 C 
HETATM    7  C   LIG     1      27.818  30.578  34.253  1.00  0.00     0.000 C 
HETATM    8  C   LIG     1      28.807  30.757  35.408  1.00  0.00     0.004 C 
ENDROOT
TORSDOF 0
ENDMDL
MODEL 16
REMARK VINA RESULT:      -3.6      8.960     10.903
REMARK  0 active torsions:
REMARK  status: ('A' for Active; 'I' for Inactive)
ROOT
HETATM    1  C   LIG     1      14.613  30.735  14.644  1.00  0.00     0.010 C 
HETATM    2  C   LIG     1      15.872  31.614  14.725  1.00  0.00    -0.015 C 
HETATM    3  C   LIG     1      15.670  32.844  15.658  1.00  0.00    -0.015 C 
HETATM    4  C   LIG     1      15.350  32.426  17.104  1.00  0.00     0.010 C 
HETATM    5  C   LIG     1      16.928  33.738  15.652  1.00  0.00     0.004 C 
HETATM    6  C   LIG     1      17.296  34.177  14.233  1.00  0.00     0.000 C 
HETATM    7  C   LIG     1      17.511  32.963  13.327  1.00  0.00     0.000 C 
HETATM    8  C   LIG     1      16.264  32.075  13.304  1.00  0.00     0.004 C 
ENDROOT
TORSDOF 0
ENDMDL
MODEL 17
REMARK VINA RESULT:      -3.6     15.109     16.583
REMARK  0 active torsions:
REMARK  status: ('A' for Active; 'I' for Inactive)
ROOT
HETATM    1  C   LIG     1      27.114  32.480  38.084  1.00  0.00     0.010 C 
HETATM    2  C   LIG     1      27.283  31.343  37.062  1.00  0.00    -0.015 C 
HETATM    3  C   LIG     1      28.574  31.511  36.207  1.00  0.00    -0.015 C 
HETATM    4  C   LIG     1      29.846  31.499  37.071  1.00  0.00     0.010 C 
HETATM    5  C   LIG     1      28.667  30.393  35.146  1.00  0.00     0.004 C 
HETATM    6  C   LIG     1      27.418  30.355  34.261  1.00  0.00     0.000 C 
HETATM    7  C   LIG     1      26.157  30.172  35.108  1.00  0.00     0.000 C 
HETATM    8  C   LIG     1      26.037  31.285  36.152  1.00  0.00     0.004 C 
ENDROOT
TORSDOF 0
ENDMDL
MODEL 18
REMARK VINA RESULT:      -3.4     15.186     16.857
REMARK  0 active torsions:
REMARK  status: ('A' for Active; 'I' for Inactive)
ROOT
HETATM    1  C   LIG     1      29.749  30.765  35.399  1.00  0.00     0.010 C 
HETATM    2  C   LIG     1      28.464  31.439  35.911  1.00  0.00    -0.015 C 
HETATM    3  C   LIG     1      28.466  31.606  37.459  1.00  0.00    -0.015 C 
HETATM    4  C   LIG     1      29.630  32.487  37.945  1.00  0.00     0.010 C 
HETATM    5  C   LIG     1      27.131  32.215  37.938  1.00  0.00     0.004 C 
HETATM    6  C   LIG     1      25.936  31.379  37.474  1.00  0.00     0.000 C 
HETATM    7  C   LIG     1      25.931  31.236  35.951  1.00  0.00     0.000 C 
HETATM    8  C   LIG     1      27.241  30.612  35.460  1.00  0.00     0.004 C 
ENDROOT
TORSDOF 0
ENDMDL
MODEL 19
REMARK VINA RESULT:      -3.4     15.126     16.384
REMARK  0 active torsions:
REMARK  status: ('A' for Active; 'I' for Inactive)
ROOT
HETATM    1  C   LIG     1      30.130  31.410  35.930  1.00  0.00     0.010 C 
HETATM    2  C   LIG     1      28.689  30.926  36.165  1.00  0.00    -0.015 C 
HETATM    3  C   LIG     1      27.840  30.957  34.860  1.00  0.00    -0.015 C 
HETATM    4  C   LIG     1      28.423  30.042  33.769  1.00  0.00     0.010 C 
HETATM    5  C   LIG     1      26.384  30.537  35.153  1.00  0.00     0.004 C 
HETATM    6  C   LIG     1      25.757  31.413  36.240  1.00  0.00     0.000 C 
HETATM    7  C   LIG     1      26.587  31.363  37.524  1.00  0.00     0.000 C 
HETATM    8  C   LIG     1      28.030  31.798  37.256  1.00  0.00     0.004 C 
ENDROOT
TORSDOF 0
ENDMDL
MODEL 20
REMARK VINA RESULT:      -3.4     15.036     16.610
REMARK  0 active torsions:
REMARK  status: ('A' for Active; 'I' for Inactive)
ROOT
HETATM    1  C   LIG     1      24.985  22.795  22.143  1.00  0.00     0.010 C 
HETATM    2  C   LIG     1      24.516  22.767  20.679  1.00  0.00    -0.015 C 
HETATM    3  C   LIG     1      23.123  22.089  20.522  1.00  0.00    -0.015 C 
HETATM    4  C   LIG     1      22.026  22.831  21.305  1.00  0.00     0.010 C 
HETATM    5  C   LIG     1      22.724  22.014  19.033  1.00  0.00     0.004 C 
HETATM    6  C   LIG     1      23.787  21.289  18.204  1.00  0.00     0.000 C 
HETATM    7  C   LIG     1      25.148  21.972  18.349  1.00  0.00     0.000 C 
HETATM    8  C   LIG     1      25.570  22.036  19.820  1.00  0.00     0.004 C 
ENDROOT
TORSDOF 0
ENDMDL
