REMARK  5 active torsions:
REMARK  status: ('A' for Active; 'I' for Inactive)
REMARK    1  A    between atoms: C_2  and  C_3 
REMARK    2  A    between atoms: C_2  and  C_9 
REMARK    3  A    between atoms: C_13  and  C_14 
REMARK    4  A    between atoms: C_14  and  C_15 
REMARK    5  A    between atoms: C_15  and  O_16 
ROOT
HETATM    1  C   LIG     1       0.169  -0.260   0.340  1.00  0.00     0.015 A 
HETATM    2  C   LIG     1       0.517  -1.528  -0.155  1.00  0.00     0.015 A 
HETATM    3  C   LIG     1      -0.417  -2.293  -0.854  1.00  0.00     0.002 A 
HETATM    4  C   LIG     1      -1.710  -1.809  -1.061  1.00  0.00     0.008 A 
HETATM    5  C   LIG     1      -2.087  -0.548  -0.567  1.00  0.00    -0.043 A 
HETATM    6  C   LIG     1      -1.139   0.215   0.144  1.00  0.00     0.023 A 
ENDROOT
BRANCH   1   7
HETATM    7  C   LIG     1       1.146   0.553   1.104  1.00  0.00     0.192 C 
HETATM    8  O   LIG     1       0.726   1.286   2.042  1.00  0.00    -0.287 OA
BRANCH   7   9
HETATM    9  C   LIG     1       2.599   0.537   0.805  1.00  0.00     0.015 A 
HETATM   10  C   LIG     1       3.066   0.364  -0.511  1.00  0.00     0.015 A 
HETATM   11  C   LIG     1       4.438   0.368  -0.781  1.00  0.00     0.001 A 
HETATM   12  C   LIG     1       5.356   0.557   0.256  1.00  0.00     0.000 A 
HETATM   13  C   LIG     1       4.902   0.746   1.563  1.00  0.00     0.001 A 
HETATM   14  C   LIG     1       3.531   0.743   1.838  1.00  0.00     0.015 A 
ENDBRANCH   7   9
ENDBRANCH   1   7
BRANCH   5  15
HETATM   15  C   LIG     1      -3.501  -0.043  -0.786  1.00  0.00     0.112 C 
HETATM   16  C   LIG     1      -3.519   1.309  -1.509  1.00  0.00     0.026 C 
BRANCH  15  17
HETATM   17  C   LIG     1      -4.256   0.024   0.513  1.00  0.00     0.148 C 
HETATM   18  O   LIG     1      -3.921   0.844   1.410  1.00  0.00    -0.649 OA
BRANCH  17  19
HETATM   19  O   LIG     1      -5.335  -0.829   0.727  1.00  0.00    -0.776 OA
HETATM   20  H   LIG     1      -5.857  -0.800   1.595  1.00  0.00     0.167 HD
ENDBRANCH  17  19
ENDBRANCH  15  17
ENDBRANCH   5  15
TORSDOF 5
