MODEL 1
REMARK VINA RESULT:      -9.4      0.000      0.000
REMARK  5 active torsions:
REMARK  status: ('A' for Active; 'I' for Inactive)
REMARK    1  A    between atoms: C_2  and  C_3 
REMARK    2  A    between atoms: C_2  and  C_9 
REMARK    3  A    between atoms: C_13  and  C_14 
REMARK    4  A    between atoms: C_14  and  C_15 
REMARK    5  A    between atoms: C_15  and  O_16 
ROOT
HETATM    1  C   LIG     1      16.605  36.703  22.225  1.00  0.00     0.015 A 
HETATM    2  C   LIG     1      15.711  35.791  21.640  1.00  0.00     0.015 A 
HETATM    3  C   LIG     1      15.893  35.371  20.323  1.00  0.00     0.002 A 
HETATM    4  C   LIG     1      16.961  35.859  19.569  1.00  0.00     0.008 A 
HETATM    5  C   LIG     1      17.865  36.781  20.126  1.00  0.00    -0.043 A 
HETATM    6  C   LIG     1      17.669  37.205  21.456  1.00  0.00     0.023 A 
ENDROOT
BRANCH   1   7
HETATM    7  C   LIG     1      16.410  37.175  23.617  1.00  0.00     0.192 C 
HETATM    8  O   LIG     1      15.546  38.068  23.841  1.00  0.00    -0.287 OA
BRANCH   7   9
HETATM    9  C   LIG     1      17.194  36.638  24.755  1.00  0.00     0.015 A 
HETATM   10  C   LIG     1      17.230  35.256  25.022  1.00  0.00     0.015 A 
HETATM   11  C   LIG     1      17.987  34.762  26.089  1.00  0.00     0.001 A 
HETATM   12  C   LIG     1      18.725  35.637  26.891  1.00  0.00     0.000 A 
HETATM   13  C   LIG     1      18.709  37.008  26.624  1.00  0.00     0.001 A 
HETATM   14  C   LIG     1      17.953  37.507  25.559  1.00  0.00     0.015 A 
ENDBRANCH   7   9
ENDBRANCH   1   7
BRANCH   5  15
HETATM   15  C   LIG     1      19.012  37.315  19.289  1.00  0.00     0.112 C 
HETATM   16  C   LIG     1      20.311  36.538  19.537  1.00  0.00     0.026 C 
BRANCH  15  17
HETATM   17  C   LIG     1      19.206  38.788  19.519  1.00  0.00     0.148 C 
HETATM   18  O   LIG     1      18.570  39.635  18.835  1.00  0.00    -0.649 OA
BRANCH  17  19
HETATM   19  O   LIG     1      20.098  39.221  20.496  1.00  0.00    -0.776 OA
HETATM   20  H   LIG     1      20.261  38.671  21.332  1.00  0.00     0.167 HD
ENDBRANCH  17  19
ENDBRANCH  15  17
ENDBRANCH   5  15
TORSDOF 5
ENDMDL
MODEL 2
REMARK VINA RESULT:      -8.2      2.441      3.744
REMARK  5 active torsions:
REMARK  status: ('A' for Active; 'I' for Inactive)
REMARK    1  A    between atoms: C_2  and  C_3 
REMARK    2  A    between atoms: C_2  and  C_9 
REMARK    3  A    between atoms: C_13  and  C_14 
REMARK    4  A    between atoms: C_14  and  C_15 
REMARK    5  A    between atoms: C_15  and  O_16 
ROOT
HETATM    1  C   LIG     1      16.576  36.583  22.000  1.00  0.00     0.015 A 
HETATM    2  C   LIG     1      17.597  37.130  21.206  1.00  0.00     0.015 A 
HETATM    3  C   LIG     1      17.820  36.651  19.915  1.00  0.00     0.002 A 
HETATM    4  C   LIG     1      17.035  35.617  19.403  1.00  0.00     0.008 A 
HETATM    5  C   LIG     1      16.013  35.045  20.181  1.00  0.00    -0.043 A 
HETATM    6  C   LIG     1      15.800  35.531  21.486  1.00  0.00     0.023 A 
ENDROOT
BRANCH   1   7
HETATM    7  C   LIG     1      16.344  37.069  23.382  1.00  0.00     0.192 C 
HETATM    8  O   LIG     1      15.437  37.924  23.583  1.00  0.00    -0.287 OA
BRANCH   7   9
HETATM    9  C   LIG     1      17.140  36.587  24.537  1.00  0.00     0.015 A 
HETATM   10  C   LIG     1      17.868  37.485  25.340  1.00  0.00     0.015 A 
HETATM   11  C   LIG     1      18.601  37.020  26.437  1.00  0.00     0.001 A 
HETATM   12  C   LIG     1      18.605  35.657  26.750  1.00  0.00     0.000 A 
HETATM   13  C   LIG     1      17.872  34.761  25.969  1.00  0.00     0.001 A 
HETATM   14  C   LIG     1      17.138  35.221  24.872  1.00  0.00     0.015 A 
ENDBRANCH   7   9
ENDBRANCH   1   7
BRANCH   5  15
HETATM   15  C   LIG     1      15.179  33.910  19.616  1.00  0.00     0.112 C 
HETATM   16  C   LIG     1      15.599  32.552  20.190  1.00  0.00     0.026 C 
BRANCH  15  17
HETATM   17  C   LIG     1      15.226  33.904  18.112  1.00  0.00     0.148 C 
HETATM   18  O   LIG     1      15.855  33.004  17.492  1.00  0.00    -0.649 OA
BRANCH  17  19
HETATM   19  O   LIG     1      14.569  34.902  17.399  1.00  0.00    -0.776 OA
HETATM   20  H   LIG     1      13.757  35.369  17.785  1.00  0.00     0.167 HD
ENDBRANCH  17  19
ENDBRANCH  15  17
ENDBRANCH   5  15
TORSDOF 5
ENDMDL
MODEL 3
REMARK VINA RESULT:      -7.7      2.640      5.075
REMARK  5 active torsions:
REMARK  status: ('A' for Active; 'I' for Inactive)
REMARK    1  A    between atoms: C_2  and  C_3 
REMARK    2  A    between atoms: C_2  and  C_9 
REMARK    3  A    between atoms: C_13  and  C_14 
REMARK    4  A    between atoms: C_14  and  C_15 
REMARK    5  A    between atoms: C_15  and  O_16 
ROOT
HETATM    1  C   LIG     1      16.849  36.241  21.323  1.00  0.00     0.015 A 
HETATM    2  C   LIG     1      16.752  37.161  22.381  1.00  0.00     0.015 A 
HETATM    3  C   LIG     1      17.487  38.346  22.354  1.00  0.00     0.002 A 
HETATM    4  C   LIG     1      18.334  38.626  21.280  1.00  0.00     0.008 A 
HETATM    5  C   LIG     1      18.457  37.718  20.214  1.00  0.00    -0.043 A 
HETATM    6  C   LIG     1      17.715  36.520  20.252  1.00  0.00     0.023 A 
ENDROOT
BRANCH   1   7
HETATM    7  C   LIG     1      16.090  34.968  21.350  1.00  0.00     0.192 C 
HETATM    8  O   LIG     1      15.762  34.478  22.466  1.00  0.00    -0.287 OA
BRANCH   7   9
HETATM    9  C   LIG     1      15.702  34.247  20.112  1.00  0.00     0.015 A 
HETATM   10  C   LIG     1      15.528  34.936  18.897  1.00  0.00     0.015 A 
HETATM   11  C   LIG     1      15.179  34.242  17.735  1.00  0.00     0.001 A 
HETATM   12  C   LIG     1      15.013  32.855  17.769  1.00  0.00     0.000 A 
HETATM   13  C   LIG     1      15.200  32.160  18.966  1.00  0.00     0.001 A 
HETATM   14  C   LIG     1      15.549  32.849  20.132  1.00  0.00     0.015 A 
ENDBRANCH   7   9
ENDBRANCH   1   7
BRANCH   5  15
HETATM   15  C   LIG     1      19.393  38.029  19.061  1.00  0.00     0.112 C 
HETATM   16  C   LIG     1      20.739  38.577  19.551  1.00  0.00     0.026 C 
BRANCH  15  17
HETATM   17  C   LIG     1      18.747  38.968  18.081  1.00  0.00     0.148 C 
HETATM   18  O   LIG     1      18.447  40.145  18.420  1.00  0.00    -0.649 OA
BRANCH  17  19
HETATM   19  O   LIG     1      18.476  38.534  16.787  1.00  0.00    -0.776 OA
HETATM   20  H   LIG     1      17.529  38.525  16.428  1.00  0.00     0.167 HD
ENDBRANCH  17  19
ENDBRANCH  15  17
ENDBRANCH   5  15
TORSDOF 5
ENDMDL
MODEL 4
REMARK VINA RESULT:      -7.6      4.824      8.433
REMARK  5 active torsions:
REMARK  status: ('A' for Active; 'I' for Inactive)
REMARK    1  A    between atoms: C_2  and  C_3 
REMARK    2  A    between atoms: C_2  and  C_9 
REMARK    3  A    between atoms: C_13  and  C_14 
REMARK    4  A    between atoms: C_14  and  C_15 
REMARK    5  A    between atoms: C_15  and  O_16 
ROOT
HETATM    1  C   LIG     1      15.214  33.179  18.094  1.00  0.00     0.015 A 
HETATM    2  C   LIG     1      14.761  32.041  18.783  1.00  0.00     0.015 A 
HETATM    3  C   LIG     1      14.788  32.004  20.177  1.00  0.00     0.002 A 
HETATM    4  C   LIG     1      15.274  33.094  20.901  1.00  0.00     0.008 A 
HETATM    5  C   LIG     1      15.743  34.240  20.236  1.00  0.00    -0.043 A 
HETATM    6  C   LIG     1      15.719  34.266  18.827  1.00  0.00     0.023 A 
ENDROOT
BRANCH   1   7
HETATM    7  C   LIG     1      15.212  33.222  16.612  1.00  0.00     0.192 C 
HETATM    8  O   LIG     1      15.486  34.311  16.034  1.00  0.00    -0.287 OA
BRANCH   7   9
HETATM    9  C   LIG     1      14.897  32.033  15.783  1.00  0.00     0.015 A 
HETATM   10  C   LIG     1      13.741  31.268  16.023  1.00  0.00     0.015 A 
HETATM   11  C   LIG     1      13.447  30.159  15.223  1.00  0.00     0.001 A 
HETATM   12  C   LIG     1      14.297  29.810  14.169  1.00  0.00     0.000 A 
HETATM   13  C   LIG     1      15.438  30.573  13.912  1.00  0.00     0.001 A 
HETATM   14  C   LIG     1      15.736  31.683  14.709  1.00  0.00     0.015 A 
ENDBRANCH   7   9
ENDBRANCH   1   7
BRANCH   5  15
HETATM   15  C   LIG     1      16.284  35.410  21.037  1.00  0.00     0.112 C 
HETATM   16  C   LIG     1      17.227  34.949  22.155  1.00  0.00     0.026 C 
BRANCH  15  17
HETATM   17  C   LIG     1      15.163  36.252  21.582  1.00  0.00     0.148 C 
HETATM   18  O   LIG     1      15.393  37.159  22.427  1.00  0.00    -0.649 OA
BRANCH  17  19
HETATM   19  O   LIG     1      13.859  36.027  21.150  1.00  0.00    -0.776 OA
HETATM   20  H   LIG     1      13.068  36.291  21.725  1.00  0.00     0.167 HD
ENDBRANCH  17  19
ENDBRANCH  15  17
ENDBRANCH   5  15
TORSDOF 5
ENDMDL
MODEL 5
REMARK VINA RESULT:      -7.5      7.270     10.671
REMARK  5 active torsions:
REMARK  status: ('A' for Active; 'I' for Inactive)
REMARK    1  A    between atoms: C_2  and  C_3 
REMARK    2  A    between atoms: C_2  and  C_9 
REMARK    3  A    between atoms: C_13  and  C_14 
REMARK    4  A    between atoms: C_14  and  C_15 
REMARK    5  A    between atoms: C_15  and  O_16 
ROOT
HETATM    1  C   LIG     1      16.708  33.009  14.138  1.00  0.00     0.015 A 
HETATM    2  C   LIG     1      16.480  32.021  13.165  1.00  0.00     0.015 A 
HETATM    3  C   LIG     1      15.609  30.962  13.426  1.00  0.00     0.002 A 
HETATM    4  C   LIG     1      14.964  30.869  14.660  1.00  0.00     0.008 A 
HETATM    5  C   LIG     1      15.183  31.838  15.655  1.00  0.00    -0.043 A 
HETATM    6  C   LIG     1      16.069  32.901  15.385  1.00  0.00     0.023 A 
ENDROOT
BRANCH   1   7
HETATM    7  C   LIG     1      17.648  34.127  13.882  1.00  0.00     0.192 C 
HETATM    8  O   LIG     1      17.559  35.171  14.586  1.00  0.00    -0.287 OA
BRANCH   7   9
HETATM    9  C   LIG     1      18.689  34.063  12.826  1.00  0.00     0.015 A 
HETATM   10  C   LIG     1      18.434  34.542  11.528  1.00  0.00     0.015 A 
HETATM   11  C   LIG     1      19.430  34.492  10.547  1.00  0.00     0.001 A 
HETATM   12  C   LIG     1      20.692  33.976  10.856  1.00  0.00     0.000 A 
HETATM   13  C   LIG     1      20.960  33.513  12.146  1.00  0.00     0.001 A 
HETATM   14  C   LIG     1      19.967  33.562  13.130  1.00  0.00     0.015 A 
ENDBRANCH   7   9
ENDBRANCH   1   7
BRANCH   5  15
HETATM   15  C   LIG     1      14.486  31.714  16.997  1.00  0.00     0.112 C 
HETATM   16  C   LIG     1      12.962  31.806  16.860  1.00  0.00     0.026 C 
BRANCH  15  17
HETATM   17  C   LIG     1      15.008  32.735  17.971  1.00  0.00     0.148 C 
HETATM   18  O   LIG     1      15.738  32.387  18.938  1.00  0.00    -0.649 OA
BRANCH  17  19
HETATM   19  O   LIG     1      14.680  34.077  17.802  1.00  0.00    -0.776 OA
HETATM   20  H   LIG     1      14.048  34.370  17.066  1.00  0.00     0.167 HD
ENDBRANCH  17  19
ENDBRANCH  15  17
ENDBRANCH   5  15
TORSDOF 5
ENDMDL
MODEL 6
REMARK VINA RESULT:      -7.4      3.404      5.301
REMARK  5 active torsions:
REMARK  status: ('A' for Active; 'I' for Inactive)
REMARK    1  A    between atoms: C_2  and  C_3 
REMARK    2  A    between atoms: C_2  and  C_9 
REMARK    3  A    between atoms: C_13  and  C_14 
REMARK    4  A    between atoms: C_14  and  C_15 
REMARK    5  A    between atoms: C_15  and  O_16 
ROOT
HETATM    1  C   LIG     1      16.054  35.070  20.489  1.00  0.00     0.015 A 
HETATM    2  C   LIG     1      15.984  33.841  21.166  1.00  0.00     0.015 A 
HETATM    3  C   LIG     1      15.615  32.681  20.484  1.00  0.00     0.002 A 
HETATM    4  C   LIG     1      15.303  32.732  19.124  1.00  0.00     0.008 A 
HETATM    5  C   LIG     1      15.355  33.951  18.426  1.00  0.00    -0.043 A 
HETATM    6  C   LIG     1      15.722  35.119  19.124  1.00  0.00     0.023 A 
ENDROOT
BRANCH   1   7
HETATM    7  C   LIG     1      16.423  36.314  21.207  1.00  0.00     0.192 C 
HETATM    8  O   LIG     1      15.711  36.689  22.179  1.00  0.00    -0.287 OA
BRANCH   7   9
HETATM    9  C   LIG     1      17.599  37.133  20.824  1.00  0.00     0.015 A 
HETATM   10  C   LIG     1      18.507  36.685  19.846  1.00  0.00     0.015 A 
HETATM   11  C   LIG     1      19.601  37.476  19.483  1.00  0.00     0.001 A 
HETATM   12  C   LIG     1      19.794  38.724  20.081  1.00  0.00     0.000 A 
HETATM   13  C   LIG     1      18.890  39.185  21.040  1.00  0.00     0.001 A 
HETATM   14  C   LIG     1      17.794  38.398  21.407  1.00  0.00     0.015 A 
ENDBRANCH   7   9
ENDBRANCH   1   7
BRANCH   5  15
HETATM   15  C   LIG     1      14.998  33.994  16.952  1.00  0.00     0.112 C 
HETATM   16  C   LIG     1      13.978  32.910  16.581  1.00  0.00     0.026 C 
BRANCH  15  17
HETATM   17  C   LIG     1      16.230  33.898  16.096  1.00  0.00     0.148 C 
HETATM   18  O   LIG     1      16.770  34.937  15.628  1.00  0.00    -0.649 OA
BRANCH  17  19
HETATM   19  O   LIG     1      16.780  32.650  15.818  1.00  0.00    -0.776 OA
HETATM   20  H   LIG     1      16.338  31.801  16.150  1.00  0.00     0.167 HD
ENDBRANCH  17  19
ENDBRANCH  15  17
ENDBRANCH   5  15
TORSDOF 5
ENDMDL
MODEL 7
REMARK VINA RESULT:      -7.3      2.617      6.391
REMARK  5 active torsions:
REMARK  status: ('A' for Active; 'I' for Inactive)
REMARK    1  A    between atoms: C_2  and  C_3 
REMARK    2  A    between atoms: C_2  and  C_9 
REMARK    3  A    between atoms: C_13  and  C_14 
REMARK    4  A    between atoms: C_14  and  C_15 
REMARK    5  A    between atoms: C_15  and  O_16 
ROOT
HETATM    1  C   LIG     1      16.183  34.942  21.071  1.00  0.00     0.015 A 
HETATM    2  C   LIG     1      16.833  35.743  20.117  1.00  0.00     0.015 A 
HETATM    3  C   LIG     1      17.726  36.736  20.521  1.00  0.00     0.002 A 
HETATM    4  C   LIG     1      17.976  36.949  21.878  1.00  0.00     0.008 A 
HETATM    5  C   LIG     1      17.331  36.169  22.853  1.00  0.00    -0.043 A 
HETATM    6  C   LIG     1      16.425  35.172  22.436  1.00  0.00     0.023 A 
ENDROOT
BRANCH   1   7
HETATM    7  C   LIG     1      15.215  33.898  20.656  1.00  0.00     0.192 C 
HETATM    8  O   LIG     1      14.460  33.387  21.529  1.00  0.00    -0.287 OA
BRANCH   7   9
HETATM    9  C   LIG     1      15.102  33.433  19.252  1.00  0.00     0.015 A 
HETATM   10  C   LIG     1      14.829  32.085  18.956  1.00  0.00     0.015 A 
HETATM   11  C   LIG     1      14.709  31.663  17.628  1.00  0.00     0.001 A 
HETATM   12  C   LIG     1      14.847  32.583  16.585  1.00  0.00     0.000 A 
HETATM   13  C   LIG     1      15.102  33.926  16.869  1.00  0.00     0.001 A 
HETATM   14  C   LIG     1      15.223  34.353  18.195  1.00  0.00     0.015 A 
ENDBRANCH   7   9
ENDBRANCH   1   7
BRANCH   5  15
HETATM   15  C   LIG     1      17.601  36.423  24.324  1.00  0.00     0.112 C 
HETATM   16  C   LIG     1      17.231  35.214  25.190  1.00  0.00     0.026 C 
BRANCH  15  17
HETATM   17  C   LIG     1      16.895  37.666  24.794  1.00  0.00     0.148 C 
HETATM   18  O   LIG     1      15.828  38.047  24.242  1.00  0.00    -0.649 OA
BRANCH  17  19
HETATM   19  O   LIG     1      17.428  38.403  25.847  1.00  0.00    -0.776 OA
HETATM   20  H   LIG     1      17.822  39.323  25.691  1.00  0.00     0.167 HD
ENDBRANCH  17  19
ENDBRANCH  15  17
ENDBRANCH   5  15
TORSDOF 5
ENDMDL
MODEL 8
REMARK VINA RESULT:      -7.1      8.572     11.743
REMARK  5 active torsions:
REMARK  status: ('A' for Active; 'I' for Inactive)
REMARK    1  A    between atoms: C_2  and  C_3 
REMARK    2  A    between atoms: C_2  and  C_9 
REMARK    3  A    between atoms: C_13  and  C_14 
REMARK    4  A    between atoms: C_14  and  C_15 
REMARK    5  A    between atoms: C_15  and  O_16 
ROOT
HETATM    1  C   LIG     1      16.858  33.127  13.850  1.00  0.00     0.015 A 
HETATM    2  C   LIG     1      16.883  33.437  15.220  1.00  0.00     0.015 A 
HETATM    3  C   LIG     1      16.162  32.664  16.131  1.00  0.00     0.002 A 
HETATM    4  C   LIG     1      15.401  31.581  15.688  1.00  0.00     0.008 A 
HETATM    5  C   LIG     1      15.351  31.256  14.321  1.00  0.00    -0.043 A 
HETATM    6  C   LIG     1      16.077  32.046  13.407  1.00  0.00     0.023 A 
ENDROOT
BRANCH   1   7
HETATM    7  C   LIG     1      17.602  33.954  12.869  1.00  0.00     0.192 C 
HETATM    8  O   LIG     1      17.093  35.042  12.480  1.00  0.00    -0.287 OA
BRANCH   7   9
HETATM    9  C   LIG     1      18.923  33.549  12.328  1.00  0.00     0.015 A 
HETATM   10  C   LIG     1      19.019  32.666  11.237  1.00  0.00     0.015 A 
HETATM   11  C   LIG     1      20.270  32.306  10.727  1.00  0.00     0.001 A 
HETATM   12  C   LIG     1      21.435  32.833  11.291  1.00  0.00     0.000 A 
HETATM   13  C   LIG     1      21.350  33.723  12.363  1.00  0.00     0.001 A 
HETATM   14  C   LIG     1      20.102  34.086  12.877  1.00  0.00     0.015 A 
ENDBRANCH   7   9
ENDBRANCH   1   7
BRANCH   5  15
HETATM   15  C   LIG     1      14.507  30.085  13.853  1.00  0.00     0.112 C 
HETATM   16  C   LIG     1      13.290  29.861  14.759  1.00  0.00     0.026 C 
BRANCH  15  17
HETATM   17  C   LIG     1      15.336  28.836  13.737  1.00  0.00     0.148 C 
HETATM   18  O   LIG     1      16.343  28.661  14.475  1.00  0.00    -0.649 OA
BRANCH  17  19
HETATM   19  O   LIG     1      14.989  27.864  12.803  1.00  0.00    -0.776 OA
HETATM   20  H   LIG     1      14.268  27.181  13.006  1.00  0.00     0.167 HD
ENDBRANCH  17  19
ENDBRANCH  15  17
ENDBRANCH   5  15
TORSDOF 5
ENDMDL
MODEL 9
REMARK VINA RESULT:      -7.0      4.911      8.505
REMARK  5 active torsions:
REMARK  status: ('A' for Active; 'I' for Inactive)
REMARK    1  A    between atoms: C_2  and  C_3 
REMARK    2  A    between atoms: C_2  and  C_9 
REMARK    3  A    between atoms: C_13  and  C_14 
REMARK    4  A    between atoms: C_14  and  C_15 
REMARK    5  A    between atoms: C_15  and  O_16 
ROOT
HETATM    1  C   LIG     1      15.169  32.971  18.173  1.00  0.00     0.015 A 
HETATM    2  C   LIG     1      14.859  31.669  18.601  1.00  0.00     0.015 A 
HETATM    3  C   LIG     1      14.703  31.390  19.959  1.00  0.00     0.002 A 
HETATM    4  C   LIG     1      14.861  32.402  20.907  1.00  0.00     0.008 A 
HETATM    5  C   LIG     1      15.182  33.711  20.507  1.00  0.00    -0.043 A 
HETATM    6  C   LIG     1      15.345  33.982  19.134  1.00  0.00     0.023 A 
ENDROOT
BRANCH   1   7
HETATM    7  C   LIG     1      15.361  33.274  16.735  1.00  0.00     0.192 C 
HETATM    8  O   LIG     1      15.661  34.453  16.396  1.00  0.00    -0.287 OA
BRANCH   7   9
HETATM    9  C   LIG     1      15.210  32.244  15.678  1.00  0.00     0.015 A 
HETATM   10  C   LIG     1      16.038  32.246  14.540  1.00  0.00     0.015 A 
HETATM   11  C   LIG     1      15.897  31.259  13.561  1.00  0.00     0.001 A 
HETATM   12  C   LIG     1      14.939  30.252  13.713  1.00  0.00     0.000 A 
HETATM   13  C   LIG     1      14.124  30.231  14.846  1.00  0.00     0.001 A 
HETATM   14  C   LIG     1      14.261  31.217  15.829  1.00  0.00     0.015 A 
ENDBRANCH   7   9
ENDBRANCH   1   7
BRANCH   5  15
HETATM   15  C   LIG     1      15.367  34.796  21.552  1.00  0.00     0.112 C 
HETATM   16  C   LIG     1      14.587  36.068  21.199  1.00  0.00     0.026 C 
BRANCH  15  17
HETATM   17  C   LIG     1      16.826  35.094  21.766  1.00  0.00     0.148 C 
HETATM   18  O   LIG     1      17.537  35.537  20.824  1.00  0.00    -0.649 OA
BRANCH  17  19
HETATM   19  O   LIG     1      17.396  34.878  23.017  1.00  0.00    -0.776 OA
HETATM   20  H   LIG     1      17.124  34.082  23.583  1.00  0.00     0.167 HD
ENDBRANCH  17  19
ENDBRANCH  15  17
ENDBRANCH   5  15
TORSDOF 5
ENDMDL
MODEL 10
REMARK VINA RESULT:      -6.9      8.362     10.453
REMARK  5 active torsions:
REMARK  status: ('A' for Active; 'I' for Inactive)
REMARK    1  A    between atoms: C_2  and  C_3 
REMARK    2  A    between atoms: C_2  and  C_9 
REMARK    3  A    between atoms: C_13  and  C_14 
REMARK    4  A    between atoms: C_14  and  C_15 
REMARK    5  A    between atoms: C_15  and  O_16 
ROOT
HETATM    1  C   LIG     1      14.242  31.091  15.647  1.00  0.00     0.015 A 
HETATM    2  C   LIG     1      15.198  31.778  14.880  1.00  0.00     0.015 A 
HETATM    3  C   LIG     1      15.802  31.157  13.786  1.00  0.00     0.002 A 
HETATM    4  C   LIG     1      15.468  29.844  13.449  1.00  0.00     0.008 A 
HETATM    5  C   LIG     1      14.522  29.132  14.206  1.00  0.00    -0.043 A 
HETATM    6  C   LIG     1      13.922  29.764  15.314  1.00  0.00     0.023 A 
ENDROOT
BRANCH   1   7
HETATM    7  C   LIG     1      13.609  31.732  16.826  1.00  0.00     0.192 C 
HETATM    8  O   LIG     1      12.359  31.640  16.971  1.00  0.00    -0.287 OA
BRANCH   7   9
HETATM    9  C   LIG     1      14.393  32.479  17.840  1.00  0.00     0.015 A 
HETATM   10  C   LIG     1      14.765  33.819  17.626  1.00  0.00     0.015 A 
HETATM   11  C   LIG     1      15.490  34.516  18.597  1.00  0.00     0.001 A 
HETATM   12  C   LIG     1      15.839  33.889  19.796  1.00  0.00     0.000 A 
HETATM   13  C   LIG     1      15.460  32.564  20.026  1.00  0.00     0.001 A 
HETATM   14  C   LIG     1      14.735  31.863  19.057  1.00  0.00     0.015 A 
ENDBRANCH   7   9
ENDBRANCH   1   7
BRANCH   5  15
HETATM   15  C   LIG     1      14.182  27.700  13.837  1.00  0.00     0.112 C 
HETATM   16  C   LIG     1      15.056  27.184  12.687  1.00  0.00     0.026 C 
BRANCH  15  17
HETATM   17  C   LIG     1      12.720  27.560  13.514  1.00  0.00     0.148 C 
HETATM   18  O   LIG     1      12.201  26.421  13.361  1.00  0.00    -0.649 OA
BRANCH  17  19
HETATM   19  O   LIG     1      11.932  28.700  13.382  1.00  0.00    -0.776 OA
HETATM   20  H   LIG     1      11.674  29.051  12.468  1.00  0.00     0.167 HD
ENDBRANCH  17  19
ENDBRANCH  15  17
ENDBRANCH   5  15
TORSDOF 5
ENDMDL
MODEL 11
REMARK VINA RESULT:      -6.6      3.580      5.058
REMARK  5 active torsions:
REMARK  status: ('A' for Active; 'I' for Inactive)
REMARK    1  A    between atoms: C_2  and  C_3 
REMARK    2  A    between atoms: C_2  and  C_9 
REMARK    3  A    between atoms: C_13  and  C_14 
REMARK    4  A    between atoms: C_14  and  C_15 
REMARK    5  A    between atoms: C_15  and  O_16 
ROOT
HETATM    1  C   LIG     1      16.015  34.469  20.015  1.00  0.00     0.015 A 
HETATM    2  C   LIG     1      15.472  33.526  20.904  1.00  0.00     0.015 A 
HETATM    3  C   LIG     1      14.774  32.420  20.418  1.00  0.00     0.002 A 
HETATM    4  C   LIG     1      14.601  32.244  19.044  1.00  0.00     0.008 A 
HETATM    5  C   LIG     1      15.125  33.179  18.134  1.00  0.00    -0.043 A 
HETATM    6  C   LIG     1      15.823  34.297  18.634  1.00  0.00     0.023 A 
ENDROOT
BRANCH   1   7
HETATM    7  C   LIG     1      16.739  35.661  20.520  1.00  0.00     0.192 C 
HETATM    8  O   LIG     1      17.313  36.420  19.690  1.00  0.00    -0.287 OA
BRANCH   7   9
HETATM    9  C   LIG     1      16.814  35.993  21.964  1.00  0.00     0.015 A 
HETATM   10  C   LIG     1      16.509  37.286  22.427  1.00  0.00     0.015 A 
HETATM   11  C   LIG     1      16.567  37.581  23.792  1.00  0.00     0.001 A 
HETATM   12  C   LIG     1      16.917  36.586  24.710  1.00  0.00     0.000 A 
HETATM   13  C   LIG     1      17.205  35.295  24.262  1.00  0.00     0.001 A 
HETATM   14  C   LIG     1      17.148  34.995  22.897  1.00  0.00     0.015 A 
ENDBRANCH   7   9
ENDBRANCH   1   7
BRANCH   5  15
HETATM   15  C   LIG     1      14.914  32.982  16.644  1.00  0.00     0.112 C 
HETATM   16  C   LIG     1      14.345  31.595  16.326  1.00  0.00     0.026 C 
BRANCH  15  17
HETATM   17  C   LIG     1      16.186  33.237  15.883  1.00  0.00     0.148 C 
HETATM   18  O   LIG     1      16.971  32.289  15.607  1.00  0.00    -0.649 OA
BRANCH  17  19
HETATM   19  O   LIG     1      16.499  34.531  15.479  1.00  0.00    -0.776 OA
HETATM   20  H   LIG     1      15.902  35.034  14.833  1.00  0.00     0.167 HD
ENDBRANCH  17  19
ENDBRANCH  15  17
ENDBRANCH   5  15
TORSDOF 5
ENDMDL
