REMARK  4 active torsions:
REMARK  status: ('A' for Active; 'I' for Inactive)
REMARK    1  A    between atoms: O_2  and  C_3 
REMARK    2  A    between atoms: C_10  and  C_11 
REMARK    3  A    between atoms: C_11  and  C_13 
REMARK    4  A    between atoms: C_13  and  O_14 
ROOT
HETATM    1  C   LIG     1       3.184  -0.381  -0.367  1.00  0.00     0.069 A 
HETATM    2  C   LIG     1       3.006   0.005   0.975  1.00  0.00     0.037 A 
HETATM    3  C   LIG     1       1.725   0.259   1.474  1.00  0.00     0.015 A 
HETATM    4  C   LIG     1       0.604   0.130   0.642  1.00  0.00    -0.025 A 
HETATM    5  C   LIG     1       0.776  -0.257  -0.707  1.00  0.00    -0.023 A 
HETATM    6  C   LIG     1      -0.343  -0.383  -1.541  1.00  0.00     0.013 A 
HETATM    7  C   LIG     1      -1.623  -0.130  -1.043  1.00  0.00     0.009 A 
HETATM    8  C   LIG     1      -1.808   0.249   0.300  1.00  0.00    -0.043 A 
HETATM    9  C   LIG     1      -0.686   0.383   1.135  1.00  0.00     0.020 A 
HETATM   10  C   LIG     1       2.066  -0.509  -1.199  1.00  0.00     0.049 A 
ENDROOT
BRANCH   8  11
HETATM   11  C   LIG     1      -3.195   0.539   0.838  1.00  0.00     0.112 C 
HETATM   12  C   LIG     1      -3.753   1.827   0.215  1.00  0.00     0.026 C 
BRANCH  11  13
HETATM   13  C   LIG     1      -4.100  -0.649   0.630  1.00  0.00     0.148 C 
HETATM   14  O   LIG     1      -5.125  -0.569  -0.101  1.00  0.00    -0.649 OA
BRANCH  13  15
HETATM   15  O   LIG     1      -3.795  -1.854   1.255  1.00  0.00    -0.776 OA
HETATM   16  H   LIG     1      -4.384  -2.668   1.130  1.00  0.00     0.167 HD
ENDBRANCH  13  15
ENDBRANCH  11  13
ENDBRANCH   8  11
BRANCH   1  17
HETATM   17  O   LIG     1       4.451  -0.645  -0.910  1.00  0.00    -0.356 OA
HETATM   18  C   LIG     1       5.672  -0.556  -0.184  1.00  0.00     0.210 C 
ENDBRANCH   1  17
TORSDOF 4
