MODEL 1
REMARK VINA RESULT:      -6.8      0.000      0.000
REMARK  4 active torsions:
REMARK  status: ('A' for Active; 'I' for Inactive)
REMARK    1  A    between atoms: O_2  and  C_3 
REMARK    2  A    between atoms: C_10  and  C_11 
REMARK    3  A    between atoms: C_11  and  C_13 
REMARK    4  A    between atoms: C_13  and  O_14 
ROOT
HETATM    1  C   LIG     1      13.031  27.495  13.524  1.00  0.00     0.069 A 
HETATM    2  C   LIG     1      14.398  27.438  13.193  1.00  0.00     0.037 A 
HETATM    3  C   LIG     1      15.275  28.434  13.634  1.00  0.00     0.015 A 
HETATM    4  C   LIG     1      14.800  29.499  14.411  1.00  0.00    -0.025 A 
HETATM    5  C   LIG     1      13.428  29.563  14.746  1.00  0.00    -0.023 A 
HETATM    6  C   LIG     1      12.951  30.629  15.521  1.00  0.00     0.013 A 
HETATM    7  C   LIG     1      13.826  31.624  15.962  1.00  0.00     0.009 A 
HETATM    8  C   LIG     1      15.196  31.568  15.641  1.00  0.00    -0.043 A 
HETATM    9  C   LIG     1      15.674  30.504  14.858  1.00  0.00     0.020 A 
HETATM   10  C   LIG     1      12.556  28.559  14.299  1.00  0.00     0.049 A 
ENDROOT
BRANCH   8  11
HETATM   11  C   LIG     1      16.144  32.655  16.106  1.00  0.00     0.112 C 
HETATM   12  C   LIG     1      16.885  33.268  14.908  1.00  0.00     0.026 C 
BRANCH  11  13
HETATM   13  C   LIG     1      15.406  33.685  16.923  1.00  0.00     0.148 C 
HETATM   14  O   LIG     1      14.929  34.723  16.389  1.00  0.00    -0.649 OA
BRANCH  13  15
HETATM   15  O   LIG     1      15.247  33.481  18.290  1.00  0.00    -0.776 OA
HETATM   16  H   LIG     1      16.021  33.168  18.863  1.00  0.00     0.167 HD
ENDBRANCH  13  15
ENDBRANCH  11  13
ENDBRANCH   8  11
BRANCH   1  17
HETATM   17  O   LIG     1      12.116  26.518  13.102  1.00  0.00    -0.356 OA
HETATM   18  C   LIG     1      12.155  25.872  11.834  1.00  0.00     0.210 C 
ENDBRANCH   1  17
TORSDOF 4
ENDMDL
MODEL 2
REMARK VINA RESULT:      -6.7      6.369      9.584
REMARK  4 active torsions:
REMARK  status: ('A' for Active; 'I' for Inactive)
REMARK    1  A    between atoms: O_2  and  C_3 
REMARK    2  A    between atoms: C_10  and  C_11 
REMARK    3  A    between atoms: C_11  and  C_13 
REMARK    4  A    between atoms: C_13  and  O_14 
ROOT
HETATM    1  C   LIG     1      15.795  34.667  18.879  1.00  0.00     0.069 A 
HETATM    2  C   LIG     1      15.250  33.685  19.727  1.00  0.00     0.037 A 
HETATM    3  C   LIG     1      15.403  33.783  21.113  1.00  0.00     0.015 A 
HETATM    4  C   LIG     1      16.101  34.863  21.673  1.00  0.00    -0.025 A 
HETATM    5  C   LIG     1      16.652  35.852  20.826  1.00  0.00    -0.023 A 
HETATM    6  C   LIG     1      17.353  36.930  21.383  1.00  0.00     0.013 A 
HETATM    7  C   LIG     1      17.506  37.030  22.768  1.00  0.00     0.009 A 
HETATM    8  C   LIG     1      16.956  36.055  23.621  1.00  0.00    -0.043 A 
HETATM    9  C   LIG     1      16.259  34.969  23.063  1.00  0.00     0.020 A 
HETATM   10  C   LIG     1      16.494  35.745  19.436  1.00  0.00     0.049 A 
ENDROOT
BRANCH   8  11
HETATM   11  C   LIG     1      17.134  36.152  25.123  1.00  0.00     0.112 C 
HETATM   12  C   LIG     1      17.920  34.942  25.650  1.00  0.00     0.026 C 
BRANCH  11  13
HETATM   13  C   LIG     1      17.771  37.468  25.494  1.00  0.00     0.148 C 
HETATM   14  O   LIG     1      17.106  38.540  25.491  1.00  0.00    -0.649 OA
BRANCH  13  15
HETATM   15  O   LIG     1      19.117  37.496  25.847  1.00  0.00    -0.776 OA
HETATM   16  H   LIG     1      19.473  38.200  26.481  1.00  0.00     0.167 HD
ENDBRANCH  13  15
ENDBRANCH  11  13
ENDBRANCH   8  11
BRANCH   1  17
HETATM   17  O   LIG     1      15.667  34.608  17.483  1.00  0.00    -0.356 OA
HETATM   18  C   LIG     1      15.112  33.507  16.772  1.00  0.00     0.210 C 
ENDBRANCH   1  17
TORSDOF 4
ENDMDL
MODEL 3
REMARK VINA RESULT:      -6.6      1.432      6.471
REMARK  4 active torsions:
REMARK  status: ('A' for Active; 'I' for Inactive)
REMARK    1  A    between atoms: O_2  and  C_3 
REMARK    2  A    between atoms: C_10  and  C_11 
REMARK    3  A    between atoms: C_11  and  C_13 
REMARK    4  A    between atoms: C_13  and  O_14 
ROOT
HETATM    1  C   LIG     1      15.264  33.594  17.454  1.00  0.00     0.069 A 
HETATM    2  C   LIG     1      14.438  32.632  18.066  1.00  0.00     0.037 A 
HETATM    3  C   LIG     1      14.095  31.459  17.388  1.00  0.00     0.015 A 
HETATM    4  C   LIG     1      14.572  31.229  16.090  1.00  0.00    -0.025 A 
HETATM    5  C   LIG     1      15.402  32.191  15.469  1.00  0.00    -0.023 A 
HETATM    6  C   LIG     1      15.877  31.963  14.170  1.00  0.00     0.013 A 
HETATM    7  C   LIG     1      15.535  30.791  13.492  1.00  0.00     0.009 A 
HETATM    8  C   LIG     1      14.716  29.823  14.102  1.00  0.00    -0.043 A 
HETATM    9  C   LIG     1      14.233  30.053  15.401  1.00  0.00     0.020 A 
HETATM   10  C   LIG     1      15.740  33.365  16.158  1.00  0.00     0.049 A 
ENDROOT
BRANCH   8  11
HETATM   11  C   LIG     1      14.331  28.557  13.361  1.00  0.00     0.112 C 
HETATM   12  C   LIG     1      15.362  27.449  13.622  1.00  0.00     0.026 C 
BRANCH  11  13
HETATM   13  C   LIG     1      12.926  28.143  13.720  1.00  0.00     0.148 C 
HETATM   14  O   LIG     1      12.669  26.969  14.102  1.00  0.00    -0.649 OA
BRANCH  13  15
HETATM   15  O   LIG     1      11.898  29.076  13.630  1.00  0.00    -0.776 OA
HETATM   16  H   LIG     1      11.203  29.015  12.895  1.00  0.00     0.167 HD
ENDBRANCH  13  15
ENDBRANCH  11  13
ENDBRANCH   8  11
BRANCH   1  17
HETATM   17  O   LIG     1      15.633  34.785  18.098  1.00  0.00    -0.356 OA
HETATM   18  C   LIG     1      15.649  34.965  19.509  1.00  0.00     0.210 C 
ENDBRANCH   1  17
TORSDOF 4
ENDMDL
MODEL 4
REMARK VINA RESULT:      -6.3      5.561     10.224
REMARK  4 active torsions:
REMARK  status: ('A' for Active; 'I' for Inactive)
REMARK    1  A    between atoms: O_2  and  C_3 
REMARK    2  A    between atoms: C_10  and  C_11 
REMARK    3  A    between atoms: C_11  and  C_13 
REMARK    4  A    between atoms: C_13  and  O_14 
ROOT
HETATM    1  C   LIG     1      16.562  37.227  23.651  1.00  0.00     0.069 A 
HETATM    2  C   LIG     1      17.196  36.060  24.119  1.00  0.00     0.037 A 
HETATM    3  C   LIG     1      17.131  34.875  23.380  1.00  0.00     0.015 A 
HETATM    4  C   LIG     1      16.434  34.837  22.164  1.00  0.00    -0.025 A 
HETATM    5  C   LIG     1      15.795  36.005  21.689  1.00  0.00    -0.023 A 
HETATM    6  C   LIG     1      15.095  35.969  20.475  1.00  0.00     0.013 A 
HETATM    7  C   LIG     1      15.031  34.785  19.737  1.00  0.00     0.009 A 
HETATM    8  C   LIG     1      15.669  33.618  20.196  1.00  0.00    -0.043 A 
HETATM    9  C   LIG     1      16.364  33.651  21.416  1.00  0.00     0.020 A 
HETATM   10  C   LIG     1      15.865  37.190  22.438  1.00  0.00     0.049 A 
ENDROOT
BRANCH   8  11
HETATM   11  C   LIG     1      15.587  32.328  19.403  1.00  0.00     0.112 C 
HETATM   12  C   LIG     1      14.821  31.259  20.197  1.00  0.00     0.026 C 
BRANCH  11  13
HETATM   13  C   LIG     1      14.990  32.583  18.042  1.00  0.00     0.148 C 
HETATM   14  O   LIG     1      15.683  33.066  17.105  1.00  0.00    -0.649 OA
BRANCH  13  15
HETATM   15  O   LIG     1      13.651  32.278  17.818  1.00  0.00    -0.776 OA
HETATM   16  H   LIG     1      13.317  31.324  17.888  1.00  0.00     0.167 HD
ENDBRANCH  13  15
ENDBRANCH  11  13
ENDBRANCH   8  11
BRANCH   1  17
HETATM   17  O   LIG     1      16.600  38.438  24.360  1.00  0.00    -0.356 OA
HETATM   18  C   LIG     1      17.324  38.640  25.568  1.00  0.00     0.210 C 
ENDBRANCH   1  17
TORSDOF 4
ENDMDL
MODEL 5
REMARK VINA RESULT:      -6.2      3.063      7.570
REMARK  4 active torsions:
REMARK  status: ('A' for Active; 'I' for Inactive)
REMARK    1  A    between atoms: O_2  and  C_3 
REMARK    2  A    between atoms: C_10  and  C_11 
REMARK    3  A    between atoms: C_11  and  C_13 
REMARK    4  A    between atoms: C_13  and  O_14 
ROOT
HETATM    1  C   LIG     1      15.613  35.024  20.570  1.00  0.00     0.069 A 
HETATM    2  C   LIG     1      15.276  33.785  21.147  1.00  0.00     0.037 A 
HETATM    3  C   LIG     1      14.969  32.688  20.337  1.00  0.00     0.015 A 
HETATM    4  C   LIG     1      14.996  32.812  18.940  1.00  0.00    -0.025 A 
HETATM    5  C   LIG     1      15.333  34.054  18.355  1.00  0.00    -0.023 A 
HETATM    6  C   LIG     1      15.356  34.180  16.960  1.00  0.00     0.013 A 
HETATM    7  C   LIG     1      15.050  33.084  16.149  1.00  0.00     0.009 A 
HETATM    8  C   LIG     1      14.720  31.840  16.720  1.00  0.00    -0.043 A 
HETATM    9  C   LIG     1      14.689  31.715  18.119  1.00  0.00     0.020 A 
HETATM   10  C   LIG     1      15.638  35.149  19.177  1.00  0.00     0.049 A 
ENDROOT
BRANCH   8  11
HETATM   11  C   LIG     1      14.373  30.654  15.842  1.00  0.00     0.112 C 
HETATM   12  C   LIG     1      12.868  30.634  15.540  1.00  0.00     0.026 C 
BRANCH  11  13
HETATM   13  C   LIG     1      15.219  30.657  14.594  1.00  0.00     0.148 C 
HETATM   14  O   LIG     1      16.433  30.996  14.629  1.00  0.00    -0.649 OA
BRANCH  13  15
HETATM   15  O   LIG     1      14.647  30.275  13.384  1.00  0.00    -0.776 OA
HETATM   16  H   LIG     1      13.685  29.964  13.340  1.00  0.00     0.167 HD
ENDBRANCH  13  15
ENDBRANCH  11  13
ENDBRANCH   8  11
BRANCH   1  17
HETATM   17  O   LIG     1      15.927  36.152  21.345  1.00  0.00    -0.356 OA
HETATM   18  C   LIG     1      17.206  36.775  21.378  1.00  0.00     0.210 C 
ENDBRANCH   1  17
TORSDOF 4
ENDMDL
MODEL 6
REMARK VINA RESULT:      -6.1      4.157      8.754
REMARK  4 active torsions:
REMARK  status: ('A' for Active; 'I' for Inactive)
REMARK    1  A    between atoms: O_2  and  C_3 
REMARK    2  A    between atoms: C_10  and  C_11 
REMARK    3  A    between atoms: C_11  and  C_13 
REMARK    4  A    between atoms: C_13  and  O_14 
ROOT
HETATM    1  C   LIG     1      16.777  35.640  22.341  1.00  0.00     0.069 A 
HETATM    2  C   LIG     1      17.032  36.516  21.269  1.00  0.00     0.037 A 
HETATM    3  C   LIG     1      16.679  36.158  19.965  1.00  0.00     0.015 A 
HETATM    4  C   LIG     1      16.065  34.923  19.712  1.00  0.00    -0.025 A 
HETATM    5  C   LIG     1      15.806  34.039  20.784  1.00  0.00    -0.023 A 
HETATM    6  C   LIG     1      15.196  32.803  20.533  1.00  0.00     0.013 A 
HETATM    7  C   LIG     1      14.842  32.446  19.230  1.00  0.00     0.009 A 
HETATM    8  C   LIG     1      15.088  33.320  18.155  1.00  0.00    -0.043 A 
HETATM    9  C   LIG     1      15.707  34.557  18.405  1.00  0.00     0.020 A 
HETATM   10  C   LIG     1      16.165  34.407  22.090  1.00  0.00     0.049 A 
ENDROOT
BRANCH   8  11
HETATM   11  C   LIG     1      14.719  32.927  16.738  1.00  0.00     0.112 C 
HETATM   12  C   LIG     1      15.973  32.517  15.952  1.00  0.00     0.026 C 
BRANCH  11  13
HETATM   13  C   LIG     1      13.660  31.854  16.748  1.00  0.00     0.148 C 
HETATM   14  O   LIG     1      13.932  30.665  16.425  1.00  0.00    -0.649 OA
BRANCH  13  15
HETATM   15  O   LIG     1      12.361  32.183  17.122  1.00  0.00    -0.776 OA
HETATM   16  H   LIG     1      11.898  31.695  17.879  1.00  0.00     0.167 HD
ENDBRANCH  13  15
ENDBRANCH  11  13
ENDBRANCH   8  11
BRANCH   1  17
HETATM   17  O   LIG     1      17.115  35.958  23.666  1.00  0.00    -0.356 OA
HETATM   18  C   LIG     1      17.097  37.274  24.208  1.00  0.00     0.210 C 
ENDBRANCH   1  17
TORSDOF 4
ENDMDL
MODEL 7
REMARK VINA RESULT:      -6.1      1.628      2.682
REMARK  4 active torsions:
REMARK  status: ('A' for Active; 'I' for Inactive)
REMARK    1  A    between atoms: O_2  and  C_3 
REMARK    2  A    between atoms: C_10  and  C_11 
REMARK    3  A    between atoms: C_11  and  C_13 
REMARK    4  A    between atoms: C_13  and  O_14 
ROOT
HETATM    1  C   LIG     1      15.061  27.351  12.617  1.00  0.00     0.069 A 
HETATM    2  C   LIG     1      13.805  27.157  13.223  1.00  0.00     0.037 A 
HETATM    3  C   LIG     1      13.302  28.099  14.125  1.00  0.00     0.015 A 
HETATM    4  C   LIG     1      14.044  29.247  14.436  1.00  0.00    -0.025 A 
HETATM    5  C   LIG     1      15.306  29.447  13.831  1.00  0.00    -0.023 A 
HETATM    6  C   LIG     1      16.051  30.593  14.143  1.00  0.00     0.013 A 
HETATM    7  C   LIG     1      15.549  31.534  15.044  1.00  0.00     0.009 A 
HETATM    8  C   LIG     1      14.290  31.349  15.647  1.00  0.00    -0.043 A 
HETATM    9  C   LIG     1      13.546  30.198  15.341  1.00  0.00     0.020 A 
HETATM   10  C   LIG     1      15.803  28.496  12.927  1.00  0.00     0.049 A 
ENDROOT
BRANCH   8  11
HETATM   11  C   LIG     1      13.751  32.362  16.637  1.00  0.00     0.112 C 
HETATM   12  C   LIG     1      12.234  32.192  16.805  1.00  0.00     0.026 C 
BRANCH  11  13
HETATM   13  C   LIG     1      14.496  32.270  17.945  1.00  0.00     0.148 C 
HETATM   14  O   LIG     1      15.487  33.012  18.185  1.00  0.00    -0.649 OA
BRANCH  13  15
HETATM   15  O   LIG     1      14.079  31.349  18.901  1.00  0.00    -0.776 OA
HETATM   16  H   LIG     1      13.754  30.430  18.631  1.00  0.00     0.167 HD
ENDBRANCH  13  15
ENDBRANCH  11  13
ENDBRANCH   8  11
BRANCH   1  17
HETATM   17  O   LIG     1      15.604  26.432  11.706  1.00  0.00    -0.356 OA
HETATM   18  C   LIG     1      15.106  26.212  10.391  1.00  0.00     0.210 C 
ENDBRANCH   1  17
TORSDOF 4
ENDMDL
MODEL 8
REMARK VINA RESULT:      -5.7      5.586      8.682
REMARK  4 active torsions:
REMARK  status: ('A' for Active; 'I' for Inactive)
REMARK    1  A    between atoms: O_2  and  C_3 
REMARK    2  A    between atoms: C_10  and  C_11 
REMARK    3  A    between atoms: C_11  and  C_13 
REMARK    4  A    between atoms: C_13  and  O_14 
ROOT
HETATM    1  C   LIG     1      15.137  33.200  19.194  1.00  0.00     0.069 A 
HETATM    2  C   LIG     1      14.726  32.958  20.519  1.00  0.00     0.037 A 
HETATM    3  C   LIG     1      15.142  33.801  21.554  1.00  0.00     0.015 A 
HETATM    4  C   LIG     1      15.972  34.898  21.281  1.00  0.00    -0.025 A 
HETATM    5  C   LIG     1      16.389  35.146  19.953  1.00  0.00    -0.023 A 
HETATM    6  C   LIG     1      17.222  36.239  19.680  1.00  0.00     0.013 A 
HETATM    7  C   LIG     1      17.637  37.082  20.713  1.00  0.00     0.009 A 
HETATM    8  C   LIG     1      17.223  36.850  22.038  1.00  0.00    -0.043 A 
HETATM    9  C   LIG     1      16.395  35.749  22.315  1.00  0.00     0.020 A 
HETATM   10  C   LIG     1      15.967  34.293  18.921  1.00  0.00     0.049 A 
ENDROOT
BRANCH   8  11
HETATM   11  C   LIG     1      17.686  37.754  23.163  1.00  0.00     0.112 C 
HETATM   12  C   LIG     1      18.302  39.042  22.596  1.00  0.00     0.026 C 
BRANCH  11  13
HETATM   13  C   LIG     1      16.554  38.023  24.123  1.00  0.00     0.148 C 
HETATM   14  O   LIG     1      16.769  38.191  25.354  1.00  0.00    -0.649 OA
BRANCH  13  15
HETATM   15  O   LIG     1      15.252  38.087  23.638  1.00  0.00    -0.776 OA
HETATM   16  H   LIG     1      14.462  38.121  24.271  1.00  0.00     0.167 HD
ENDBRANCH  13  15
ENDBRANCH  11  13
ENDBRANCH   8  11
BRANCH   1  17
HETATM   17  O   LIG     1      14.744  32.380  18.125  1.00  0.00    -0.356 OA
HETATM   18  C   LIG     1      14.224  32.861  16.891  1.00  0.00     0.210 C 
ENDBRANCH   1  17
TORSDOF 4
ENDMDL
MODEL 9
REMARK VINA RESULT:      -5.4      4.123      6.494
REMARK  4 active torsions:
REMARK  status: ('A' for Active; 'I' for Inactive)
REMARK    1  A    between atoms: O_2  and  C_3 
REMARK    2  A    between atoms: C_10  and  C_11 
REMARK    3  A    between atoms: C_11  and  C_13 
REMARK    4  A    between atoms: C_13  and  O_14 
ROOT
HETATM    1  C   LIG     1      14.571  31.887  17.218  1.00  0.00     0.069 A 
HETATM    2  C   LIG     1      14.325  31.147  18.389  1.00  0.00     0.037 A 
HETATM    3  C   LIG     1      14.578  31.706  19.646  1.00  0.00     0.015 A 
HETATM    4  C   LIG     1      15.077  33.012  19.751  1.00  0.00    -0.025 A 
HETATM    5  C   LIG     1      15.326  33.761  18.578  1.00  0.00    -0.023 A 
HETATM    6  C   LIG     1      15.828  35.065  18.680  1.00  0.00     0.013 A 
HETATM    7  C   LIG     1      16.080  35.624  19.935  1.00  0.00     0.009 A 
HETATM    8  C   LIG     1      15.829  34.891  21.110  1.00  0.00    -0.043 A 
HETATM    9  C   LIG     1      15.333  33.581  21.008  1.00  0.00     0.020 A 
HETATM   10  C   LIG     1      15.070  33.191  17.321  1.00  0.00     0.049 A 
ENDROOT
BRANCH   8  11
HETATM   11  C   LIG     1      16.116  35.491  22.472  1.00  0.00     0.112 C 
HETATM   12  C   LIG     1      17.393  34.881  23.068  1.00  0.00     0.026 C 
BRANCH  11  13
HETATM   13  C   LIG     1      16.175  36.995  22.384  1.00  0.00     0.148 C 
HETATM   14  O   LIG     1      17.245  37.590  22.080  1.00  0.00    -0.649 OA
BRANCH  13  15
HETATM   15  O   LIG     1      15.027  37.737  22.641  1.00  0.00    -0.776 OA
HETATM   16  H   LIG     1      14.940  38.691  22.313  1.00  0.00     0.167 HD
ENDBRANCH  13  15
ENDBRANCH  11  13
ENDBRANCH   8  11
BRANCH   1  17
HETATM   17  O   LIG     1      14.333  31.366  15.937  1.00  0.00    -0.356 OA
HETATM   18  C   LIG     1      13.205  30.571  15.588  1.00  0.00     0.210 C 
ENDBRANCH   1  17
TORSDOF 4
ENDMDL
MODEL 10
REMARK VINA RESULT:      -5.4      1.417      6.324
REMARK  4 active torsions:
REMARK  status: ('A' for Active; 'I' for Inactive)
REMARK    1  A    between atoms: O_2  and  C_3 
REMARK    2  A    between atoms: C_10  and  C_11 
REMARK    3  A    between atoms: C_11  and  C_13 
REMARK    4  A    between atoms: C_13  and  O_14 
ROOT
HETATM    1  C   LIG     1      15.507  33.439  16.440  1.00  0.00     0.069 A 
HETATM    2  C   LIG     1      16.418  32.938  15.491  1.00  0.00     0.037 A 
HETATM    3  C   LIG     1      16.151  31.741  14.818  1.00  0.00     0.015 A 
HETATM    4  C   LIG     1      14.972  31.030  15.082  1.00  0.00    -0.025 A 
HETATM    5  C   LIG     1      14.054  31.529  16.034  1.00  0.00    -0.023 A 
HETATM    6  C   LIG     1      12.876  30.817  16.301  1.00  0.00     0.013 A 
HETATM    7  C   LIG     1      12.609  29.623  15.629  1.00  0.00     0.009 A 
HETATM    8  C   LIG     1      13.512  29.120  14.674  1.00  0.00    -0.043 A 
HETATM    9  C   LIG     1      14.696  29.828  14.411  1.00  0.00     0.020 A 
HETATM   10  C   LIG     1      14.330  32.730  16.705  1.00  0.00     0.049 A 
ENDROOT
BRANCH   8  11
HETATM   11  C   LIG     1      13.231  27.815  13.955  1.00  0.00     0.112 C 
HETATM   12  C   LIG     1      12.052  27.981  12.984  1.00  0.00     0.026 C 
BRANCH  11  13
HETATM   13  C   LIG     1      14.478  27.308  13.276  1.00  0.00     0.148 C 
HETATM   14  O   LIG     1      15.590  27.304  13.871  1.00  0.00    -0.649 OA
BRANCH  13  15
HETATM   15  O   LIG     1      14.397  26.836  11.970  1.00  0.00    -0.776 OA
HETATM   16  H   LIG     1      14.499  27.464  11.182  1.00  0.00     0.167 HD
ENDBRANCH  13  15
ENDBRANCH  11  13
ENDBRANCH   8  11
BRANCH   1  17
HETATM   17  O   LIG     1      15.735  34.635  17.139  1.00  0.00    -0.356 OA
HETATM   18  C   LIG     1      15.581  34.786  18.546  1.00  0.00     0.210 C 
ENDBRANCH   1  17
TORSDOF 4
ENDMDL
MODEL 11
REMARK VINA RESULT:      -5.3      1.548      2.897
REMARK  4 active torsions:
REMARK  status: ('A' for Active; 'I' for Inactive)
REMARK    1  A    between atoms: O_2  and  C_3 
REMARK    2  A    between atoms: C_10  and  C_11 
REMARK    3  A    between atoms: C_11  and  C_13 
REMARK    4  A    between atoms: C_13  and  O_14 
ROOT
HETATM    1  C   LIG     1      12.482  26.203  12.324  1.00  0.00     0.069 A 
HETATM    2  C   LIG     1      11.365  26.982  12.681  1.00  0.00     0.037 A 
HETATM    3  C   LIG     1      11.532  28.177  13.386  1.00  0.00     0.015 A 
HETATM    4  C   LIG     1      12.816  28.614  13.742  1.00  0.00    -0.025 A 
HETATM    5  C   LIG     1      13.942  27.836  13.387  1.00  0.00    -0.023 A 
HETATM    6  C   LIG     1      15.226  28.268  13.746  1.00  0.00     0.013 A 
HETATM    7  C   LIG     1      15.394  29.463  14.449  1.00  0.00     0.009 A 
HETATM    8  C   LIG     1      14.281  30.250  14.803  1.00  0.00    -0.043 A 
HETATM    9  C   LIG     1      12.993  29.813  14.450  1.00  0.00     0.020 A 
HETATM   10  C   LIG     1      13.764  26.636  12.680  1.00  0.00     0.049 A 
ENDROOT
BRANCH   8  11
HETATM   11  C   LIG     1      14.461  31.539  15.579  1.00  0.00     0.112 C 
HETATM   12  C   LIG     1      14.344  31.276  17.088  1.00  0.00     0.026 C 
BRANCH  11  13
HETATM   13  C   LIG     1      15.760  32.205  15.203  1.00  0.00     0.148 C 
HETATM   14  O   LIG     1      16.691  32.342  16.043  1.00  0.00    -0.649 OA
BRANCH  13  15
HETATM   15  O   LIG     1      15.933  32.673  13.904  1.00  0.00    -0.776 OA
HETATM   16  H   LIG     1      16.703  32.348  13.332  1.00  0.00     0.167 HD
ENDBRANCH  13  15
ENDBRANCH  11  13
ENDBRANCH   8  11
BRANCH   1  17
HETATM   17  O   LIG     1      12.360  24.996  11.618  1.00  0.00    -0.356 OA
HETATM   18  C   LIG     1      13.189  24.616  10.525  1.00  0.00     0.210 C 
ENDBRANCH   1  17
TORSDOF 4
ENDMDL
MODEL 12
REMARK VINA RESULT:      -5.1     13.173     15.231
REMARK  4 active torsions:
REMARK  status: ('A' for Active; 'I' for Inactive)
REMARK    1  A    between atoms: O_2  and  C_3 
REMARK    2  A    between atoms: C_10  and  C_11 
REMARK    3  A    between atoms: C_11  and  C_13 
REMARK    4  A    between atoms: C_13  and  O_14 
ROOT
HETATM    1  C   LIG     1      26.802  23.265  18.458  1.00  0.00     0.069 A 
HETATM    2  C   LIG     1      27.475  22.169  17.885  1.00  0.00     0.037 A 
HETATM    3  C   LIG     1      26.769  21.021  17.513  1.00  0.00     0.015 A 
HETATM    4  C   LIG     1      25.382  20.951  17.705  1.00  0.00    -0.025 A 
HETATM    5  C   LIG     1      24.700  22.048  18.281  1.00  0.00    -0.023 A 
HETATM    6  C   LIG     1      23.315  21.979  18.477  1.00  0.00     0.013 A 
HETATM    7  C   LIG     1      22.608  20.833  18.105  1.00  0.00     0.009 A 
HETATM    8  C   LIG     1      23.274  19.737  17.525  1.00  0.00    -0.043 A 
HETATM    9  C   LIG     1      24.665  19.803  17.334  1.00  0.00     0.020 A 
HETATM   10  C   LIG     1      25.418  23.196  18.652  1.00  0.00     0.049 A 
ENDROOT
BRANCH   8  11
HETATM   11  C   LIG     1      22.512  18.486  17.135  1.00  0.00     0.112 C 
HETATM   12  C   LIG     1      21.588  18.043  18.279  1.00  0.00     0.026 C 
BRANCH  11  13
HETATM   13  C   LIG     1      21.772  18.703  15.839  1.00  0.00     0.148 C 
HETATM   14  O   LIG     1      22.352  18.570  14.726  1.00  0.00    -0.649 OA
BRANCH  13  15
HETATM   15  O   LIG     1      20.427  19.054  15.874  1.00  0.00    -0.776 OA
HETATM   16  H   LIG     1      20.037  19.541  16.672  1.00  0.00     0.167 HD
ENDBRANCH  13  15
ENDBRANCH  11  13
ENDBRANCH   8  11
BRANCH   1  17
HETATM   17  O   LIG     1      27.471  24.436  18.847  1.00  0.00    -0.356 OA
HETATM   18  C   LIG     1      26.886  25.477  19.621  1.00  0.00     0.210 C 
ENDBRANCH   1  17
TORSDOF 4
ENDMDL
MODEL 13
REMARK VINA RESULT:      -4.9     21.182     23.075
REMARK  4 active torsions:
REMARK  status: ('A' for Active; 'I' for Inactive)
REMARK    1  A    between atoms: O_2  and  C_3 
REMARK    2  A    between atoms: C_10  and  C_11 
REMARK    3  A    between atoms: C_11  and  C_13 
REMARK    4  A    between atoms: C_13  and  O_14 
ROOT
HETATM    1  C   LIG     1      27.755  27.174  30.909  1.00  0.00     0.069 A 
HETATM    2  C   LIG     1      26.738  26.630  31.716  1.00  0.00     0.037 A 
HETATM    3  C   LIG     1      26.483  27.157  32.986  1.00  0.00     0.015 A 
HETATM    4  C   LIG     1      27.239  28.235  33.467  1.00  0.00    -0.025 A 
HETATM    5  C   LIG     1      28.262  28.786  32.662  1.00  0.00    -0.023 A 
HETATM    6  C   LIG     1      29.021  29.861  33.144  1.00  0.00     0.013 A 
HETATM    7  C   LIG     1      28.767  30.389  34.412  1.00  0.00     0.009 A 
HETATM    8  C   LIG     1      27.746  29.854  35.220  1.00  0.00    -0.043 A 
HETATM    9  C   LIG     1      26.990  28.771  34.741  1.00  0.00     0.020 A 
HETATM   10  C   LIG     1      28.511  28.249  31.390  1.00  0.00     0.049 A 
ENDROOT
BRANCH   8  11
HETATM   11  C   LIG     1      27.480  30.415  36.602  1.00  0.00     0.112 C 
HETATM   12  C   LIG     1      28.415  31.599  36.890  1.00  0.00     0.026 C 
BRANCH  11  13
HETATM   13  C   LIG     1      26.023  30.773  36.754  1.00  0.00     0.148 C 
HETATM   14  O   LIG     1      25.491  31.665  36.037  1.00  0.00    -0.649 OA
BRANCH  13  15
HETATM   15  O   LIG     1      25.253  30.104  37.700  1.00  0.00    -0.776 OA
HETATM   16  H   LIG     1      24.345  29.726  37.458  1.00  0.00     0.167 HD
ENDBRANCH  13  15
ENDBRANCH  11  13
ENDBRANCH   8  11
BRANCH   1  17
HETATM   17  O   LIG     1      28.045  26.676  29.630  1.00  0.00    -0.356 OA
HETATM   18  C   LIG     1      27.128  25.942  28.825  1.00  0.00     0.210 C 
ENDBRANCH   1  17
TORSDOF 4
ENDMDL
MODEL 14
REMARK VINA RESULT:      -4.9      3.466      7.911
REMARK  4 active torsions:
REMARK  status: ('A' for Active; 'I' for Inactive)
REMARK    1  A    between atoms: O_2  and  C_3 
REMARK    2  A    between atoms: C_10  and  C_11 
REMARK    3  A    between atoms: C_11  and  C_13 
REMARK    4  A    between atoms: C_13  and  O_14 
ROOT
HETATM    1  C   LIG     1      16.129  35.009  21.298  1.00  0.00     0.069 A 
HETATM    2  C   LIG     1      16.226  35.673  20.061  1.00  0.00     0.037 A 
HETATM    3  C   LIG     1      15.851  35.025  18.880  1.00  0.00     0.015 A 
HETATM    4  C   LIG     1      15.374  33.707  18.917  1.00  0.00    -0.025 A 
HETATM    5  C   LIG     1      15.275  33.035  20.157  1.00  0.00    -0.023 A 
HETATM    6  C   LIG     1      14.801  31.717  20.196  1.00  0.00     0.013 A 
HETATM    7  C   LIG     1      14.426  31.069  19.017  1.00  0.00     0.009 A 
HETATM    8  C   LIG     1      14.514  31.730  17.777  1.00  0.00    -0.043 A 
HETATM    9  C   LIG     1      14.996  33.049  17.736  1.00  0.00     0.020 A 
HETATM   10  C   LIG     1      15.654  33.694  21.337  1.00  0.00     0.049 A 
ENDROOT
BRANCH   8  11
HETATM   11  C   LIG     1      14.122  31.023  16.495  1.00  0.00     0.112 C 
HETATM   12  C   LIG     1      12.649  31.299  16.159  1.00  0.00     0.026 C 
BRANCH  11  13
HETATM   13  C   LIG     1      15.057  31.407  15.375  1.00  0.00     0.148 C 
HETATM   14  O   LIG     1      15.572  30.532  14.627  1.00  0.00    -0.649 OA
BRANCH  13  15
HETATM   15  O   LIG     1      15.353  32.750  15.166  1.00  0.00    -0.776 OA
HETATM   16  H   LIG     1      16.046  33.029  14.483  1.00  0.00     0.167 HD
ENDBRANCH  13  15
ENDBRANCH  11  13
ENDBRANCH   8  11
BRANCH   1  17
HETATM   17  O   LIG     1      16.494  35.621  22.508  1.00  0.00    -0.356 OA
HETATM   18  C   LIG     1      16.755  37.012  22.660  1.00  0.00     0.210 C 
ENDBRANCH   1  17
TORSDOF 4
ENDMDL
MODEL 15
REMARK VINA RESULT:      -4.8     20.400     22.140
REMARK  4 active torsions:
REMARK  status: ('A' for Active; 'I' for Inactive)
REMARK    1  A    between atoms: O_2  and  C_3 
REMARK    2  A    between atoms: C_10  and  C_11 
REMARK    3  A    between atoms: C_11  and  C_13 
REMARK    4  A    between atoms: C_13  and  O_14 
ROOT
HETATM    1  C   LIG     1      27.880  26.685  29.418  1.00  0.00     0.069 A 
HETATM    2  C   LIG     1      28.856  27.700  29.431  1.00  0.00     0.037 A 
HETATM    3  C   LIG     1      29.029  28.500  30.565  1.00  0.00     0.015 A 
HETATM    4  C   LIG     1      28.233  28.297  31.701  1.00  0.00    -0.025 A 
HETATM    5  C   LIG     1      27.251  27.280  31.694  1.00  0.00    -0.023 A 
HETATM    6  C   LIG     1      26.453  27.079  32.827  1.00  0.00     0.013 A 
HETATM    7  C   LIG     1      26.626  27.877  33.960  1.00  0.00     0.009 A 
HETATM    8  C   LIG     1      27.605  28.888  33.982  1.00  0.00    -0.043 A 
HETATM    9  C   LIG     1      28.401  29.096  32.843  1.00  0.00     0.020 A 
HETATM   10  C   LIG     1      27.084  26.483  30.551  1.00  0.00     0.049 A 
ENDROOT
BRANCH   8  11
HETATM   11  C   LIG     1      27.784  29.765  35.205  1.00  0.00     0.112 C 
HETATM   12  C   LIG     1      28.327  31.144  34.801  1.00  0.00     0.026 C 
BRANCH  11  13
HETATM   13  C   LIG     1      26.496  29.852  35.985  1.00  0.00     0.148 C 
HETATM   14  O   LIG     1      26.344  29.223  37.067  1.00  0.00    -0.649 OA
BRANCH  13  15
HETATM   15  O   LIG     1      25.459  30.643  35.500  1.00  0.00    -0.776 OA
HETATM   16  H   LIG     1      24.764  31.030  36.126  1.00  0.00     0.167 HD
ENDBRANCH  13  15
ENDBRANCH  11  13
ENDBRANCH   8  11
BRANCH   1  17
HETATM   17  O   LIG     1      27.671  25.860  28.302  1.00  0.00    -0.356 OA
HETATM   18  C   LIG     1      26.572  24.967  28.156  1.00  0.00     0.210 C 
ENDBRANCH   1  17
TORSDOF 4
ENDMDL
MODEL 16
REMARK VINA RESULT:      -4.7     13.492     15.294
REMARK  4 active torsions:
REMARK  status: ('A' for Active; 'I' for Inactive)
REMARK    1  A    between atoms: O_2  and  C_3 
REMARK    2  A    between atoms: C_10  and  C_11 
REMARK    3  A    between atoms: C_11  and  C_13 
REMARK    4  A    between atoms: C_13  and  O_14 
ROOT
HETATM    1  C   LIG     1      28.603  25.886  17.967  1.00  0.00     0.069 A 
HETATM    2  C   LIG     1      27.815  26.516  18.950  1.00  0.00     0.037 A 
HETATM    3  C   LIG     1      26.770  25.823  19.569  1.00  0.00     0.015 A 
HETATM    4  C   LIG     1      26.498  24.494  19.218  1.00  0.00    -0.025 A 
HETATM    5  C   LIG     1      27.285  23.856  18.232  1.00  0.00    -0.023 A 
HETATM    6  C   LIG     1      27.012  22.528  17.877  1.00  0.00     0.013 A 
HETATM    7  C   LIG     1      25.969  21.835  18.496  1.00  0.00     0.009 A 
HETATM    8  C   LIG     1      25.183  22.457  19.485  1.00  0.00    -0.043 A 
HETATM    9  C   LIG     1      25.451  23.791  19.835  1.00  0.00     0.020 A 
HETATM   10  C   LIG     1      28.331  24.559  17.615  1.00  0.00     0.049 A 
ENDROOT
BRANCH   8  11
HETATM   11  C   LIG     1      24.040  21.712  20.146  1.00  0.00     0.112 C 
HETATM   12  C   LIG     1      23.326  22.617  21.161  1.00  0.00     0.026 C 
BRANCH  11  13
HETATM   13  C   LIG     1      23.105  21.150  19.106  1.00  0.00     0.148 C 
HETATM   14  O   LIG     1      22.826  19.920  19.073  1.00  0.00    -0.649 OA
BRANCH  13  15
HETATM   15  O   LIG     1      22.538  22.007  18.168  1.00  0.00    -0.776 OA
HETATM   16  H   LIG     1      21.587  21.872  17.847  1.00  0.00     0.167 HD
ENDBRANCH  13  15
ENDBRANCH  11  13
ENDBRANCH   8  11
BRANCH   1  17
HETATM   17  O   LIG     1      29.660  26.543  17.319  1.00  0.00    -0.356 OA
HETATM   18  C   LIG     1      29.899  26.495  15.917  1.00  0.00     0.210 C 
ENDBRANCH   1  17
TORSDOF 4
ENDMDL
MODEL 17
REMARK VINA RESULT:      -4.5     13.391     14.498
REMARK  4 active torsions:
REMARK  status: ('A' for Active; 'I' for Inactive)
REMARK    1  A    between atoms: O_2  and  C_3 
REMARK    2  A    between atoms: C_10  and  C_11 
REMARK    3  A    between atoms: C_11  and  C_13 
REMARK    4  A    between atoms: C_13  and  O_14 
ROOT
HETATM    1  C   LIG     1      24.142  18.857  16.180  1.00  0.00     0.069 A 
HETATM    2  C   LIG     1      22.837  18.761  16.698  1.00  0.00     0.037 A 
HETATM    3  C   LIG     1      22.454  19.535  17.798  1.00  0.00     0.015 A 
HETATM    4  C   LIG     1      23.367  20.416  18.395  1.00  0.00    -0.025 A 
HETATM    5  C   LIG     1      24.679  20.516  17.879  1.00  0.00    -0.023 A 
HETATM    6  C   LIG     1      25.594  21.394  18.476  1.00  0.00     0.013 A 
HETATM    7  C   LIG     1      25.212  22.167  19.574  1.00  0.00     0.009 A 
HETATM    8  C   LIG     1      23.906  22.082  20.092  1.00  0.00    -0.043 A 
HETATM    9  C   LIG     1      22.990  21.197  19.499  1.00  0.00     0.020 A 
HETATM   10  C   LIG     1      25.055  19.735  16.776  1.00  0.00     0.049 A 
ENDROOT
BRANCH   8  11
HETATM   11  C   LIG     1      23.494  22.909  21.294  1.00  0.00     0.112 C 
HETATM   12  C   LIG     1      21.964  23.023  21.367  1.00  0.00     0.026 C 
BRANCH  11  13
HETATM   13  C   LIG     1      24.098  22.345  22.555  1.00  0.00     0.148 C 
HETATM   14  O   LIG     1      25.144  22.840  23.056  1.00  0.00    -0.649 OA
BRANCH  13  15
HETATM   15  O   LIG     1      23.487  21.260  23.175  1.00  0.00    -0.776 OA
HETATM   16  H   LIG     1      23.892  20.333  23.119  1.00  0.00     0.167 HD
ENDBRANCH  13  15
ENDBRANCH  11  13
ENDBRANCH   8  11
BRANCH   1  17
HETATM   17  O   LIG     1      24.570  18.099  15.079  1.00  0.00    -0.356 OA
HETATM   18  C   LIG     1      25.840  18.237  14.452  1.00  0.00     0.210 C 
ENDBRANCH   1  17
TORSDOF 4
ENDMDL
MODEL 18
REMARK VINA RESULT:      -4.5     13.246     14.271
REMARK  4 active torsions:
REMARK  status: ('A' for Active; 'I' for Inactive)
REMARK    1  A    between atoms: O_2  and  C_3 
REMARK    2  A    between atoms: C_10  and  C_11 
REMARK    3  A    between atoms: C_11  and  C_13 
REMARK    4  A    between atoms: C_13  and  O_14 
ROOT
HETATM    1  C   LIG     1      23.230  19.744  17.524  1.00  0.00     0.069 A 
HETATM    2  C   LIG     1      22.643  20.892  18.089  1.00  0.00     0.037 A 
HETATM    3  C   LIG     1      23.428  22.004  18.407  1.00  0.00     0.015 A 
HETATM    4  C   LIG     1      24.809  21.987  18.166  1.00  0.00    -0.025 A 
HETATM    5  C   LIG     1      25.405  20.836  17.600  1.00  0.00    -0.023 A 
HETATM    6  C   LIG     1      26.786  20.816  17.362  1.00  0.00     0.013 A 
HETATM    7  C   LIG     1      27.571  21.926  17.680  1.00  0.00     0.009 A 
HETATM    8  C   LIG     1      26.988  23.080  18.237  1.00  0.00    -0.043 A 
HETATM    9  C   LIG     1      25.605  23.099  18.484  1.00  0.00     0.020 A 
HETATM   10  C   LIG     1      24.609  19.725  17.284  1.00  0.00     0.049 A 
ENDROOT
BRANCH   8  11
HETATM   11  C   LIG     1      27.840  24.281  18.597  1.00  0.00     0.112 C 
HETATM   12  C   LIG     1      28.195  25.084  17.337  1.00  0.00     0.026 C 
BRANCH  11  13
HETATM   13  C   LIG     1      27.156  25.117  19.648  1.00  0.00     0.148 C 
HETATM   14  O   LIG     1      27.240  24.824  20.872  1.00  0.00    -0.649 OA
BRANCH  13  15
HETATM   15  O   LIG     1      26.421  26.232  19.258  1.00  0.00    -0.776 OA
HETATM   16  H   LIG     1      25.653  26.146  18.604  1.00  0.00     0.167 HD
ENDBRANCH  13  15
ENDBRANCH  11  13
ENDBRANCH   8  11
BRANCH   1  17
HETATM   17  O   LIG     1      22.481  18.605  17.189  1.00  0.00    -0.356 OA
HETATM   18  C   LIG     1      21.340  18.614  16.339  1.00  0.00     0.210 C 
ENDBRANCH   1  17
TORSDOF 4
ENDMDL
MODEL 19
REMARK VINA RESULT:      -4.4     15.929     17.461
REMARK  4 active torsions:
REMARK  status: ('A' for Active; 'I' for Inactive)
REMARK    1  A    between atoms: O_2  and  C_3 
REMARK    2  A    between atoms: C_10  and  C_11 
REMARK    3  A    between atoms: C_11  and  C_13 
REMARK    4  A    between atoms: C_13  and  O_14 
ROOT
HETATM    1  C   LIG     1      26.414  24.150  27.809  1.00  0.00     0.069 A 
HETATM    2  C   LIG     1      26.988  24.774  26.685  1.00  0.00     0.037 A 
HETATM    3  C   LIG     1      26.625  24.378  25.394  1.00  0.00     0.015 A 
HETATM    4  C   LIG     1      25.684  23.356  25.206  1.00  0.00    -0.025 A 
HETATM    5  C   LIG     1      25.104  22.726  26.331  1.00  0.00    -0.023 A 
HETATM    6  C   LIG     1      24.166  21.702  26.145  1.00  0.00     0.013 A 
HETATM    7  C   LIG     1      23.803  21.306  24.856  1.00  0.00     0.009 A 
HETATM    8  C   LIG     1      24.368  21.931  23.728  1.00  0.00    -0.043 A 
HETATM    9  C   LIG     1      25.314  22.953  23.913  1.00  0.00     0.020 A 
HETATM   10  C   LIG     1      25.475  23.129  27.623  1.00  0.00     0.049 A 
ENDROOT
BRANCH   8  11
HETATM   11  C   LIG     1      23.987  21.493  22.328  1.00  0.00     0.112 C 
HETATM   12  C   LIG     1      22.824  20.491  22.379  1.00  0.00     0.026 C 
BRANCH  11  13
HETATM   13  C   LIG     1      23.686  22.691  21.464  1.00  0.00     0.148 C 
HETATM   14  O   LIG     1      24.493  23.071  20.572  1.00  0.00    -0.649 OA
BRANCH  13  15
HETATM   15  O   LIG     1      22.497  23.387  21.655  1.00  0.00    -0.776 OA
HETATM   16  H   LIG     1      22.503  24.368  21.906  1.00  0.00     0.167 HD
ENDBRANCH  13  15
ENDBRANCH  11  13
ENDBRANCH   8  11
BRANCH   1  17
HETATM   17  O   LIG     1      26.748  24.515  29.122  1.00  0.00    -0.356 OA
HETATM   18  C   LIG     1      27.302  25.773  29.491  1.00  0.00     0.210 C 
ENDBRANCH   1  17
TORSDOF 4
ENDMDL
MODEL 20
REMARK VINA RESULT:      -4.4     13.207     14.016
REMARK  4 active torsions:
REMARK  status: ('A' for Active; 'I' for Inactive)
REMARK    1  A    between atoms: O_2  and  C_3 
REMARK    2  A    between atoms: C_10  and  C_11 
REMARK    3  A    between atoms: C_11  and  C_13 
REMARK    4  A    between atoms: C_13  and  O_14 
ROOT
HETATM    1  C   LIG     1      23.018  19.697  17.901  1.00  0.00     0.069 A 
HETATM    2  C   LIG     1      24.230  19.799  17.193  1.00  0.00     0.037 A 
HETATM    3  C   LIG     1      25.205  20.719  17.589  1.00  0.00     0.015 A 
HETATM    4  C   LIG     1      24.985  21.549  18.698  1.00  0.00    -0.025 A 
HETATM    5  C   LIG     1      23.769  21.451  19.413  1.00  0.00    -0.023 A 
HETATM    6  C   LIG     1      23.546  22.282  20.519  1.00  0.00     0.013 A 
HETATM    7  C   LIG     1      24.520  23.201  20.916  1.00  0.00     0.009 A 
HETATM    8  C   LIG     1      25.737  23.303  20.216  1.00  0.00    -0.043 A 
HETATM    9  C   LIG     1      25.959  22.476  19.103  1.00  0.00     0.020 A 
HETATM   10  C   LIG     1      22.796  20.525  19.007  1.00  0.00     0.049 A 
ENDROOT
BRANCH   8  11
HETATM   11  C   LIG     1      26.789  24.310  20.636  1.00  0.00     0.112 C 
HETATM   12  C   LIG     1      28.078  23.593  21.064  1.00  0.00     0.026 C 
BRANCH  11  13
HETATM   13  C   LIG     1      27.019  25.320  19.540  1.00  0.00     0.148 C 
HETATM   14  O   LIG     1      28.124  25.387  18.936  1.00  0.00    -0.649 OA
BRANCH  13  15
HETATM   15  O   LIG     1      25.991  26.190  19.190  1.00  0.00    -0.776 OA
HETATM   16  H   LIG     1      25.037  26.009  19.476  1.00  0.00     0.167 HD
ENDBRANCH  13  15
ENDBRANCH  11  13
ENDBRANCH   8  11
BRANCH   1  17
HETATM   17  O   LIG     1      22.012  18.788  17.538  1.00  0.00    -0.356 OA
HETATM   18  C   LIG     1      21.248  18.870  16.339  1.00  0.00     0.210 C 
ENDBRANCH   1  17
TORSDOF 4
ENDMDL
