MODEL 1
REMARK VINA RESULT:      -7.0      0.000      0.000
REMARK  4 active torsions:
REMARK  status: ('A' for Active; 'I' for Inactive)
REMARK       I    between atoms: N_2  and  C_3 
REMARK    1  A    between atoms: C_3  and  O_4 
REMARK    2  A    between atoms: O_4  and  C_5 
REMARK    3  A    between atoms: C_7  and  N_8 
REMARK    4  A    between atoms: C_9  and  N_10 
ROOT
HETATM    1  C   LIG     1      18.202  37.111  20.525  1.00  0.00     0.083 A 
HETATM    2  C   LIG     1      17.842  37.722  21.733  1.00  0.00     0.069 A 
HETATM    3  C   LIG     1      16.707  37.292  22.445  1.00  0.00     0.060 A 
HETATM    4  C   LIG     1      15.912  36.271  21.913  1.00  0.00     0.032 A 
HETATM    5  C   LIG     1      16.275  35.643  20.719  1.00  0.00     0.005 A 
HETATM    6  C   LIG     1      17.421  36.050  20.032  1.00  0.00     0.037 A 
ENDROOT
BRANCH   1   7
HETATM    7  O   LIG     1      19.357  37.562  19.868  1.00  0.00    -0.262 OA
BRANCH   7   8
HETATM    8  C   LIG     1      19.422  38.668  19.010  1.00  0.00     0.365 C 
HETATM    9  N   LIG     1      18.638  38.664  17.813  1.00  0.00    -0.341 N 
HETATM   10  C   LIG     1      18.673  39.771  16.866  1.00  0.00     0.151 C 
HETATM   11  H   LIG     1      18.020  37.846  17.615  1.00  0.00     0.164 HD
HETATM   12  O   LIG     1      20.197  39.632  19.255  1.00  0.00    -0.238 OA
ENDBRANCH   7   8
ENDBRANCH   1   7
BRANCH   3  13
HETATM   13  N   LIG     1      16.293  37.927  23.666  1.00  0.00    -0.244 NA
HETATM   14  C   LIG     1      16.743  37.689  24.865  1.00  0.00     0.204 C 
BRANCH  14  15
HETATM   15  N   LIG     1      17.650  36.612  25.152  1.00  0.00    -0.384 N 
HETATM   16  C   LIG     1      17.202  35.226  25.011  1.00  0.00     0.149 C 
HETATM   17  C   LIG     1      18.775  36.883  26.044  1.00  0.00     0.149 C 
ENDBRANCH  14  15
ENDBRANCH   3  13
TORSDOF 4
ENDMDL
MODEL 2
REMARK VINA RESULT:      -7.0      2.340      5.656
REMARK  4 active torsions:
REMARK  status: ('A' for Active; 'I' for Inactive)
REMARK       I    between atoms: N_2  and  C_3 
REMARK    1  A    between atoms: C_3  and  O_4 
REMARK    2  A    between atoms: O_4  and  C_5 
REMARK    3  A    between atoms: C_7  and  N_8 
REMARK    4  A    between atoms: C_9  and  N_10 
ROOT
HETATM    1  C   LIG     1      16.119  37.060  22.525  1.00  0.00     0.083 A 
HETATM    2  C   LIG     1      17.356  37.051  21.869  1.00  0.00     0.069 A 
HETATM    3  C   LIG     1      17.534  36.321  20.680  1.00  0.00     0.060 A 
HETATM    4  C   LIG     1      16.470  35.565  20.175  1.00  0.00     0.032 A 
HETATM    5  C   LIG     1      15.227  35.585  20.810  1.00  0.00     0.005 A 
HETATM    6  C   LIG     1      15.044  36.337  21.974  1.00  0.00     0.037 A 
ENDROOT
BRANCH   1   7
HETATM    7  O   LIG     1      15.989  37.823  23.694  1.00  0.00    -0.262 OA
BRANCH   7   8
HETATM    8  C   LIG     1      16.843  37.761  24.803  1.00  0.00     0.365 C 
HETATM    9  N   LIG     1      17.225  36.480  25.314  1.00  0.00    -0.341 N 
HETATM   10  C   LIG     1      18.094  36.342  26.475  1.00  0.00     0.151 C 
HETATM   11  H   LIG     1      16.873  35.620  24.836  1.00  0.00     0.164 HD
HETATM   12  O   LIG     1      17.232  38.813  25.379  1.00  0.00    -0.238 OA
ENDBRANCH   7   8
ENDBRANCH   1   7
BRANCH   3  13
HETATM   13  N   LIG     1      18.804  36.263  20.008  1.00  0.00    -0.244 NA
HETATM   14  C   LIG     1      19.454  37.257  19.474  1.00  0.00     0.204 C 
BRANCH  14  15
HETATM   15  N   LIG     1      18.893  38.575  19.356  1.00  0.00    -0.384 N 
HETATM   16  C   LIG     1      18.652  39.147  18.030  1.00  0.00     0.149 C 
HETATM   17  C   LIG     1      19.058  39.493  20.480  1.00  0.00     0.149 C 
ENDBRANCH  14  15
ENDBRANCH   3  13
TORSDOF 4
ENDMDL
MODEL 3
REMARK VINA RESULT:      -6.6      2.674      4.151
REMARK  4 active torsions:
REMARK  status: ('A' for Active; 'I' for Inactive)
REMARK       I    between atoms: N_2  and  C_3 
REMARK    1  A    between atoms: C_3  and  O_4 
REMARK    2  A    between atoms: O_4  and  C_5 
REMARK    3  A    between atoms: C_7  and  N_8 
REMARK    4  A    between atoms: C_9  and  N_10 
ROOT
HETATM    1  C   LIG     1      17.032  36.141  20.455  1.00  0.00     0.083 A 
HETATM    2  C   LIG     1      16.410  36.530  21.648  1.00  0.00     0.069 A 
HETATM    3  C   LIG     1      16.897  37.621  22.390  1.00  0.00     0.060 A 
HETATM    4  C   LIG     1      18.041  38.294  21.947  1.00  0.00     0.032 A 
HETATM    5  C   LIG     1      18.656  37.926  20.747  1.00  0.00     0.005 A 
HETATM    6  C   LIG     1      18.149  36.862  19.996  1.00  0.00     0.037 A 
ENDROOT
BRANCH   1   7
HETATM    7  O   LIG     1      16.491  35.061  19.742  1.00  0.00    -0.262 OA
BRANCH   7   8
HETATM    8  C   LIG     1      15.741  34.016  20.297  1.00  0.00     0.365 C 
HETATM    9  N   LIG     1      15.625  32.785  19.577  1.00  0.00    -0.341 N 
HETATM   10  C   LIG     1      14.845  31.665  20.086  1.00  0.00     0.151 C 
HETATM   11  H   LIG     1      16.119  32.687  18.662  1.00  0.00     0.164 HD
HETATM   12  O   LIG     1      15.130  34.168  21.391  1.00  0.00    -0.238 OA
ENDBRANCH   7   8
ENDBRANCH   1   7
BRANCH   3  13
HETATM   13  N   LIG     1      16.302  38.016  23.637  1.00  0.00    -0.244 NA
HETATM   14  C   LIG     1      16.651  37.628  24.831  1.00  0.00     0.204 C 
BRANCH  14  15
HETATM   15  N   LIG     1      17.627  36.597  25.055  1.00  0.00    -0.384 N 
HETATM   16  C   LIG     1      17.257  35.193  24.873  1.00  0.00     0.149 C 
HETATM   17  C   LIG     1      18.756  36.901  25.930  1.00  0.00     0.149 C 
ENDBRANCH  14  15
ENDBRANCH   3  13
TORSDOF 4
ENDMDL
MODEL 4
REMARK VINA RESULT:      -6.2      2.366      5.212
REMARK  4 active torsions:
REMARK  status: ('A' for Active; 'I' for Inactive)
REMARK       I    between atoms: N_2  and  C_3 
REMARK    1  A    between atoms: C_3  and  O_4 
REMARK    2  A    between atoms: O_4  and  C_5 
REMARK    3  A    between atoms: C_7  and  N_8 
REMARK    4  A    between atoms: C_9  and  N_10 
ROOT
HETATM    1  C   LIG     1      18.257  38.790  22.046  1.00  0.00     0.083 A 
HETATM    2  C   LIG     1      17.676  37.655  21.467  1.00  0.00     0.069 A 
HETATM    3  C   LIG     1      18.100  37.192  20.208  1.00  0.00     0.060 A 
HETATM    4  C   LIG     1      19.085  37.904  19.514  1.00  0.00     0.032 A 
HETATM    5  C   LIG     1      19.685  39.026  20.092  1.00  0.00     0.005 A 
HETATM    6  C   LIG     1      19.284  39.463  21.357  1.00  0.00     0.037 A 
ENDROOT
BRANCH   1   7
HETATM    7  O   LIG     1      17.813  39.194  23.314  1.00  0.00    -0.262 OA
BRANCH   7   8
HETATM    8  C   LIG     1      17.433  38.334  24.352  1.00  0.00     0.365 C 
HETATM    9  N   LIG     1      18.445  37.775  25.195  1.00  0.00    -0.341 N 
HETATM   10  C   LIG     1      18.122  36.858  26.281  1.00  0.00     0.151 C 
HETATM   11  H   LIG     1      19.442  38.036  25.030  1.00  0.00     0.164 HD
HETATM   12  O   LIG     1      16.225  38.012  24.515  1.00  0.00    -0.238 OA
ENDBRANCH   7   8
ENDBRANCH   1   7
BRANCH   3  13
HETATM   13  N   LIG     1      17.494  36.054  19.575  1.00  0.00    -0.244 NA
HETATM   14  C   LIG     1      16.515  35.329  20.036  1.00  0.00     0.204 C 
BRANCH  14  15
HETATM   15  N   LIG     1      15.985  35.496  21.361  1.00  0.00    -0.384 N 
HETATM   16  C   LIG     1      16.641  34.840  22.494  1.00  0.00     0.149 C 
HETATM   17  C   LIG     1      14.576  35.852  21.497  1.00  0.00     0.149 C 
ENDBRANCH  14  15
ENDBRANCH   3  13
TORSDOF 4
ENDMDL
MODEL 5
REMARK VINA RESULT:      -6.0      3.070      5.500
REMARK  4 active torsions:
REMARK  status: ('A' for Active; 'I' for Inactive)
REMARK       I    between atoms: N_2  and  C_3 
REMARK    1  A    between atoms: C_3  and  O_4 
REMARK    2  A    between atoms: O_4  and  C_5 
REMARK    3  A    between atoms: C_7  and  N_8 
REMARK    4  A    between atoms: C_9  and  N_10 
ROOT
HETATM    1  C   LIG     1      16.873  35.766  21.422  1.00  0.00     0.083 A 
HETATM    2  C   LIG     1      17.297  37.043  21.037  1.00  0.00     0.069 A 
HETATM    3  C   LIG     1      17.708  37.984  21.998  1.00  0.00     0.060 A 
HETATM    4  C   LIG     1      17.649  37.646  23.355  1.00  0.00     0.032 A 
HETATM    5  C   LIG     1      17.246  36.367  23.747  1.00  0.00     0.005 A 
HETATM    6  C   LIG     1      16.870  35.425  22.787  1.00  0.00     0.037 A 
ENDROOT
BRANCH   1   7
HETATM    7  O   LIG     1      16.497  34.858  20.420  1.00  0.00    -0.262 OA
BRANCH   7   8
HETATM    8  C   LIG     1      15.590  33.802  20.581  1.00  0.00     0.365 C 
HETATM    9  N   LIG     1      15.752  32.621  19.790  1.00  0.00    -0.341 N 
HETATM   10  C   LIG     1      14.834  31.494  19.892  1.00  0.00     0.151 C 
HETATM   11  H   LIG     1      16.554  32.565  19.123  1.00  0.00     0.164 HD
HETATM   12  O   LIG     1      14.613  33.904  21.372  1.00  0.00    -0.238 OA
ENDBRANCH   7   8
ENDBRANCH   1   7
BRANCH   3  13
HETATM   13  N   LIG     1      18.112  39.315  21.634  1.00  0.00    -0.244 NA
HETATM   14  C   LIG     1      18.757  39.672  20.560  1.00  0.00     0.204 C 
BRANCH  14  15
HETATM   15  N   LIG     1      19.298  38.721  19.629  1.00  0.00    -0.384 N 
HETATM   16  C   LIG     1      20.638  38.173  19.845  1.00  0.00     0.149 C 
HETATM   17  C   LIG     1      18.763  38.711  18.270  1.00  0.00     0.149 C 
ENDBRANCH  14  15
ENDBRANCH   3  13
TORSDOF 4
ENDMDL
MODEL 6
REMARK VINA RESULT:      -6.0      1.757      3.244
REMARK  4 active torsions:
REMARK  status: ('A' for Active; 'I' for Inactive)
REMARK       I    between atoms: N_2  and  C_3 
REMARK    1  A    between atoms: C_3  and  O_4 
REMARK    2  A    between atoms: O_4  and  C_5 
REMARK    3  A    between atoms: C_7  and  N_8 
REMARK    4  A    between atoms: C_9  and  N_10 
ROOT
HETATM    1  C   LIG     1      18.471  38.957  22.143  1.00  0.00     0.083 A 
HETATM    2  C   LIG     1      17.209  38.455  21.803  1.00  0.00     0.069 A 
HETATM    3  C   LIG     1      16.395  37.839  22.772  1.00  0.00     0.060 A 
HETATM    4  C   LIG     1      16.877  37.693  24.078  1.00  0.00     0.032 A 
HETATM    5  C   LIG     1      18.127  38.208  24.430  1.00  0.00     0.005 A 
HETATM    6  C   LIG     1      18.918  38.849  23.473  1.00  0.00     0.037 A 
ENDROOT
BRANCH   1   7
HETATM    7  O   LIG     1      19.232  39.583  21.145  1.00  0.00    -0.262 OA
BRANCH   7   8
HETATM    8  C   LIG     1      19.416  39.100  19.843  1.00  0.00     0.365 C 
HETATM    9  N   LIG     1      18.755  39.757  18.758  1.00  0.00    -0.341 N 
HETATM   10  C   LIG     1      18.886  39.296  17.382  1.00  0.00     0.151 C 
HETATM   11  H   LIG     1      18.164  40.595  18.959  1.00  0.00     0.164 HD
HETATM   12  O   LIG     1      20.112  38.069  19.628  1.00  0.00    -0.238 OA
ENDBRANCH   7   8
ENDBRANCH   1   7
BRANCH   3  13
HETATM   13  N   LIG     1      15.113  37.281  22.441  1.00  0.00    -0.244 NA
HETATM   14  C   LIG     1      14.882  36.199  21.754  1.00  0.00     0.204 C 
BRANCH  14  15
HETATM   15  N   LIG     1      15.924  35.469  21.086  1.00  0.00    -0.384 N 
HETATM   16  C   LIG     1      15.765  35.098  19.679  1.00  0.00     0.149 C 
HETATM   17  C   LIG     1      16.842  34.681  21.905  1.00  0.00     0.149 C 
ENDBRANCH  14  15
ENDBRANCH   3  13
TORSDOF 4
ENDMDL
MODEL 7
REMARK VINA RESULT:      -5.6      1.789      3.187
REMARK  4 active torsions:
REMARK  status: ('A' for Active; 'I' for Inactive)
REMARK       I    between atoms: N_2  and  C_3 
REMARK    1  A    between atoms: C_3  and  O_4 
REMARK    2  A    between atoms: O_4  and  C_5 
REMARK    3  A    between atoms: C_7  and  N_8 
REMARK    4  A    between atoms: C_9  and  N_10 
ROOT
HETATM    1  C   LIG     1      18.477  37.899  20.386  1.00  0.00     0.083 A 
HETATM    2  C   LIG     1      18.025  36.732  21.014  1.00  0.00     0.069 A 
HETATM    3  C   LIG     1      17.426  36.786  22.286  1.00  0.00     0.060 A 
HETATM    4  C   LIG     1      17.322  38.018  22.941  1.00  0.00     0.032 A 
HETATM    5  C   LIG     1      17.751  39.190  22.314  1.00  0.00     0.005 A 
HETATM    6  C   LIG     1      18.315  39.136  21.037  1.00  0.00     0.037 A 
ENDROOT
BRANCH   1   7
HETATM    7  O   LIG     1      19.044  37.792  19.107  1.00  0.00    -0.262 OA
BRANCH   7   8
HETATM    8  C   LIG     1      19.323  38.865  18.251  1.00  0.00     0.365 C 
HETATM    9  N   LIG     1      18.465  39.100  17.130  1.00  0.00    -0.341 N 
HETATM   10  C   LIG     1      18.708  40.185  16.188  1.00  0.00     0.151 C 
HETATM   11  H   LIG     1      17.639  38.477  16.986  1.00  0.00     0.164 HD
HETATM   12  O   LIG     1      20.343  39.586  18.428  1.00  0.00    -0.238 OA
ENDBRANCH   7   8
ENDBRANCH   1   7
BRANCH   3  13
HETATM   13  N   LIG     1      16.990  35.600  22.970  1.00  0.00    -0.244 NA
HETATM   14  C   LIG     1      16.217  34.663  22.499  1.00  0.00     0.204 C 
BRANCH  14  15
HETATM   15  N   LIG     1      15.555  34.771  21.228  1.00  0.00    -0.384 N 
HETATM   16  C   LIG     1      14.462  35.729  21.056  1.00  0.00     0.149 C 
HETATM   17  C   LIG     1      15.609  33.623  20.327  1.00  0.00     0.149 C 
ENDBRANCH  14  15
ENDBRANCH   3  13
TORSDOF 4
ENDMDL
MODEL 8
REMARK VINA RESULT:      -5.6      1.185      1.812
REMARK  4 active torsions:
REMARK  status: ('A' for Active; 'I' for Inactive)
REMARK       I    between atoms: N_2  and  C_3 
REMARK    1  A    between atoms: C_3  and  O_4 
REMARK    2  A    between atoms: O_4  and  C_5 
REMARK    3  A    between atoms: C_7  and  N_8 
REMARK    4  A    between atoms: C_9  and  N_10 
ROOT
HETATM    1  C   LIG     1      18.294  37.762  20.973  1.00  0.00     0.083 A 
HETATM    2  C   LIG     1      17.887  36.561  21.568  1.00  0.00     0.069 A 
HETATM    3  C   LIG     1      16.937  36.559  22.605  1.00  0.00     0.060 A 
HETATM    4  C   LIG     1      16.429  37.777  23.071  1.00  0.00     0.032 A 
HETATM    5  C   LIG     1      16.814  38.978  22.470  1.00  0.00     0.005 A 
HETATM    6  C   LIG     1      17.733  38.973  21.417  1.00  0.00     0.037 A 
ENDROOT
BRANCH   1   7
HETATM    7  O   LIG     1      19.226  37.705  19.926  1.00  0.00    -0.262 OA
BRANCH   7   8
HETATM    8  C   LIG     1      19.439  38.711  18.974  1.00  0.00     0.365 C 
HETATM    9  N   LIG     1      18.640  38.725  17.788  1.00  0.00    -0.341 N 
HETATM   10  C   LIG     1      18.821  39.730  16.749  1.00  0.00     0.151 C 
HETATM   11  H   LIG     1      17.901  37.996  17.668  1.00  0.00     0.164 HD
HETATM   12  O   LIG     1      20.356  39.564  19.129  1.00  0.00    -0.238 OA
ENDBRANCH   7   8
ENDBRANCH   1   7
BRANCH   3  13
HETATM   13  N   LIG     1      16.530  35.346  23.259  1.00  0.00    -0.244 NA
HETATM   14  C   LIG     1      16.824  34.972  24.472  1.00  0.00     0.204 C 
BRANCH  14  15
HETATM   15  N   LIG     1      17.751  35.692  25.300  1.00  0.00    -0.384 N 
HETATM   16  C   LIG     1      18.655  34.958  26.187  1.00  0.00     0.149 C 
HETATM   17  C   LIG     1      17.440  37.079  25.634  1.00  0.00     0.149 C 
ENDBRANCH  14  15
ENDBRANCH   3  13
TORSDOF 4
ENDMDL
MODEL 9
REMARK VINA RESULT:      -5.5      3.170      5.095
REMARK  4 active torsions:
REMARK  status: ('A' for Active; 'I' for Inactive)
REMARK       I    between atoms: N_2  and  C_3 
REMARK    1  A    between atoms: C_3  and  O_4 
REMARK    2  A    between atoms: O_4  and  C_5 
REMARK    3  A    between atoms: C_7  and  N_8 
REMARK    4  A    between atoms: C_9  and  N_10 
ROOT
HETATM    1  C   LIG     1      16.785  35.267  22.249  1.00  0.00     0.083 A 
HETATM    2  C   LIG     1      16.653  36.657  22.134  1.00  0.00     0.069 A 
HETATM    3  C   LIG     1      16.798  37.488  23.259  1.00  0.00     0.060 A 
HETATM    4  C   LIG     1      17.035  36.909  24.512  1.00  0.00     0.032 A 
HETATM    5  C   LIG     1      17.189  35.526  24.632  1.00  0.00     0.005 A 
HETATM    6  C   LIG     1      17.077  34.706  23.506  1.00  0.00     0.037 A 
ENDROOT
BRANCH   1   7
HETATM    7  O   LIG     1      16.655  34.487  21.090  1.00  0.00    -0.262 OA
BRANCH   7   8
HETATM    8  C   LIG     1      15.579  33.637  20.802  1.00  0.00     0.365 C 
HETATM    9  N   LIG     1      15.718  32.672  19.754  1.00  0.00    -0.341 N 
HETATM   10  C   LIG     1      14.633  31.771  19.387  1.00  0.00     0.151 C 
HETATM   11  H   LIG     1      16.626  32.610  19.241  1.00  0.00     0.164 HD
HETATM   12  O   LIG     1      14.483  33.749  21.416  1.00  0.00    -0.238 OA
ENDBRANCH   7   8
ENDBRANCH   1   7
BRANCH   3  13
HETATM   13  N   LIG     1      16.628  38.913  23.177  1.00  0.00    -0.244 NA
HETATM   14  C   LIG     1      17.394  39.758  22.548  1.00  0.00     0.204 C 
BRANCH  14  15
HETATM   15  N   LIG     1      18.642  39.374  21.948  1.00  0.00    -0.384 N 
HETATM   16  C   LIG     1      19.848  39.284  22.772  1.00  0.00     0.149 C 
HETATM   17  C   LIG     1      18.806  39.586  20.512  1.00  0.00     0.149 C 
ENDBRANCH  14  15
ENDBRANCH   3  13
TORSDOF 4
ENDMDL
MODEL 10
REMARK VINA RESULT:      -5.5      9.075     11.411
REMARK  4 active torsions:
REMARK  status: ('A' for Active; 'I' for Inactive)
REMARK       I    between atoms: N_2  and  C_3 
REMARK    1  A    between atoms: C_3  and  O_4 
REMARK    2  A    between atoms: O_4  and  C_5 
REMARK    3  A    between atoms: C_7  and  N_8 
REMARK    4  A    between atoms: C_9  and  N_10 
ROOT
HETATM    1  C   LIG     1      16.081  32.086  13.688  1.00  0.00     0.083 A 
HETATM    2  C   LIG     1      16.680  32.884  12.706  1.00  0.00     0.069 A 
HETATM    3  C   LIG     1      17.645  33.847  13.053  1.00  0.00     0.060 A 
HETATM    4  C   LIG     1      17.972  34.033  14.401  1.00  0.00     0.032 A 
HETATM    5  C   LIG     1      17.394  33.228  15.385  1.00  0.00     0.005 A 
HETATM    6  C   LIG     1      16.461  32.249  15.033  1.00  0.00     0.037 A 
ENDROOT
BRANCH   1   7
HETATM    7  O   LIG     1      15.143  31.123  13.285  1.00  0.00    -0.262 OA
BRANCH   7   8
HETATM    8  C   LIG     1      15.005  29.843  13.837  1.00  0.00     0.365 C 
HETATM    9  N   LIG     1      15.450  28.711  13.085  1.00  0.00    -0.341 N 
HETATM   10  C   LIG     1      15.319  27.350  13.590  1.00  0.00     0.151 C 
HETATM   11  H   LIG     1      15.886  28.866  12.149  1.00  0.00     0.164 HD
HETATM   12  O   LIG     1      14.450  29.679  14.958  1.00  0.00    -0.238 OA
ENDBRANCH   7   8
ENDBRANCH   1   7
BRANCH   3  13
HETATM   13  N   LIG     1      18.247  34.706  12.070  1.00  0.00    -0.244 NA
HETATM   14  C   LIG     1      19.359  34.499  11.424  1.00  0.00     0.204 C 
BRANCH  14  15
HETATM   15  N   LIG     1      20.239  33.404  11.728  1.00  0.00    -0.384 N 
HETATM   16  C   LIG     1      21.357  33.605  12.651  1.00  0.00     0.149 C 
HETATM   17  C   LIG     1      20.333  32.311  10.764  1.00  0.00     0.149 C 
ENDBRANCH  14  15
ENDBRANCH   3  13
TORSDOF 4
ENDMDL
MODEL 11
REMARK VINA RESULT:      -5.4      7.037      9.115
REMARK  4 active torsions:
REMARK  status: ('A' for Active; 'I' for Inactive)
REMARK       I    between atoms: N_2  and  C_3 
REMARK    1  A    between atoms: C_3  and  O_4 
REMARK    2  A    between atoms: O_4  and  C_5 
REMARK    3  A    between atoms: C_7  and  N_8 
REMARK    4  A    between atoms: C_9  and  N_10 
ROOT
HETATM    1  C   LIG     1      15.239  33.334  16.951  1.00  0.00     0.083 A 
HETATM    2  C   LIG     1      14.464  32.598  16.046  1.00  0.00     0.069 A 
HETATM    3  C   LIG     1      13.781  31.440  16.460  1.00  0.00     0.060 A 
HETATM    4  C   LIG     1      13.917  31.002  17.782  1.00  0.00     0.032 A 
HETATM    5  C   LIG     1      14.671  31.740  18.697  1.00  0.00     0.005 A 
HETATM    6  C   LIG     1      15.321  32.908  18.290  1.00  0.00     0.037 A 
ENDROOT
BRANCH   1   7
HETATM    7  O   LIG     1      15.879  34.495  16.492  1.00  0.00    -0.262 OA
BRANCH   7   8
HETATM    8  C   LIG     1      16.813  34.547  15.448  1.00  0.00     0.365 C 
HETATM    9  N   LIG     1      17.519  33.356  15.088  1.00  0.00    -0.341 N 
HETATM   10  C   LIG     1      18.517  33.344  14.027  1.00  0.00     0.151 C 
HETATM   11  H   LIG     1      17.309  32.470  15.599  1.00  0.00     0.164 HD
HETATM   12  O   LIG     1      17.070  35.636  14.865  1.00  0.00    -0.238 OA
ENDBRANCH   7   8
ENDBRANCH   1   7
BRANCH   3  13
HETATM   13  N   LIG     1      13.011  30.645  15.543  1.00  0.00    -0.244 NA
HETATM   14  C   LIG     1      13.468  29.893  14.583  1.00  0.00     0.204 C 
BRANCH  14  15
HETATM   15  N   LIG     1      14.855  29.873  14.208  1.00  0.00    -0.384 N 
HETATM   16  C   LIG     1      15.402  30.952  13.385  1.00  0.00     0.149 C 
HETATM   17  C   LIG     1      15.543  28.585  14.197  1.00  0.00     0.149 C 
ENDBRANCH  14  15
ENDBRANCH   3  13
TORSDOF 4
ENDMDL
MODEL 12
REMARK VINA RESULT:      -4.9      7.012      8.345
REMARK  4 active torsions:
REMARK  status: ('A' for Active; 'I' for Inactive)
REMARK       I    between atoms: N_2  and  C_3 
REMARK    1  A    between atoms: C_3  and  O_4 
REMARK    2  A    between atoms: O_4  and  C_5 
REMARK    3  A    between atoms: C_7  and  N_8 
REMARK    4  A    between atoms: C_9  and  N_10 
ROOT
HETATM    1  C   LIG     1      16.213  32.575  14.564  1.00  0.00     0.083 A 
HETATM    2  C   LIG     1      15.420  32.380  15.702  1.00  0.00     0.069 A 
HETATM    3  C   LIG     1      14.556  31.274  15.794  1.00  0.00     0.060 A 
HETATM    4  C   LIG     1      14.462  30.387  14.716  1.00  0.00     0.032 A 
HETATM    5  C   LIG     1      15.264  30.562  13.586  1.00  0.00     0.005 A 
HETATM    6  C   LIG     1      16.145  31.644  13.511  1.00  0.00     0.037 A 
ENDROOT
BRANCH   1   7
HETATM    7  O   LIG     1      17.075  33.681  14.533  1.00  0.00    -0.262 OA
BRANCH   7   8
HETATM    8  C   LIG     1      17.801  34.113  13.415  1.00  0.00     0.365 C 
HETATM    9  N   LIG     1      19.141  33.644  13.234  1.00  0.00    -0.341 N 
HETATM   10  C   LIG     1      19.960  34.068  12.106  1.00  0.00     0.151 C 
HETATM   11  H   LIG     1      19.541  32.975  13.929  1.00  0.00     0.164 HD
HETATM   12  O   LIG     1      17.307  34.943  12.605  1.00  0.00    -0.238 OA
ENDBRANCH   7   8
ENDBRANCH   1   7
BRANCH   3  13
HETATM   13  N   LIG     1      13.703  31.071  16.933  1.00  0.00    -0.244 NA
HETATM   14  C   LIG     1      13.856  31.571  18.126  1.00  0.00     0.204 C 
BRANCH  14  15
HETATM   15  N   LIG     1      15.028  32.308  18.512  1.00  0.00    -0.384 N 
HETATM   16  C   LIG     1      15.897  31.790  19.570  1.00  0.00     0.149 C 
HETATM   17  C   LIG     1      15.054  33.744  18.244  1.00  0.00     0.149 C 
ENDBRANCH  14  15
ENDBRANCH   3  13
TORSDOF 4
ENDMDL
MODEL 13
REMARK VINA RESULT:      -4.8      8.068     10.512
REMARK  4 active torsions:
REMARK  status: ('A' for Active; 'I' for Inactive)
REMARK       I    between atoms: N_2  and  C_3 
REMARK    1  A    between atoms: C_3  and  O_4 
REMARK    2  A    between atoms: O_4  and  C_5 
REMARK    3  A    between atoms: C_7  and  N_8 
REMARK    4  A    between atoms: C_9  and  N_10 
ROOT
HETATM    1  C   LIG     1      15.353  31.097  14.823  1.00  0.00     0.083 A 
HETATM    2  C   LIG     1      16.151  32.248  14.841  1.00  0.00     0.069 A 
HETATM    3  C   LIG     1      15.925  33.264  15.787  1.00  0.00     0.060 A 
HETATM    4  C   LIG     1      14.863  33.135  16.690  1.00  0.00     0.032 A 
HETATM    5  C   LIG     1      14.075  31.982  16.693  1.00  0.00     0.005 A 
HETATM    6  C   LIG     1      14.324  30.960  15.773  1.00  0.00     0.037 A 
ENDROOT
BRANCH   1   7
HETATM    7  O   LIG     1      15.637  30.104  13.875  1.00  0.00    -0.262 OA
BRANCH   7   8
HETATM    8  C   LIG     1      15.061  28.827  13.840  1.00  0.00     0.365 C 
HETATM    9  N   LIG     1      13.644  28.709  13.682  1.00  0.00    -0.341 N 
HETATM   10  C   LIG     1      12.976  27.414  13.658  1.00  0.00     0.151 C 
HETATM   11  H   LIG     1      13.072  29.577  13.578  1.00  0.00     0.164 HD
HETATM   12  O   LIG     1      15.768  27.794  13.996  1.00  0.00    -0.238 OA
ENDBRANCH   7   8
ENDBRANCH   1   7
BRANCH   3  13
HETATM   13  N   LIG     1      16.703  34.473  15.803  1.00  0.00    -0.244 NA
HETATM   14  C   LIG     1      17.468  34.925  14.851  1.00  0.00     0.204 C 
BRANCH  14  15
HETATM   15  N   LIG     1      17.758  34.167  13.665  1.00  0.00    -0.384 N 
HETATM   16  C   LIG     1      19.010  33.415  13.570  1.00  0.00     0.149 C 
HETATM   17  C   LIG     1      17.096  34.558  12.423  1.00  0.00     0.149 C 
ENDBRANCH  14  15
ENDBRANCH   3  13
TORSDOF 4
ENDMDL
MODEL 14
REMARK VINA RESULT:      -4.7      2.118      3.849
REMARK  4 active torsions:
REMARK  status: ('A' for Active; 'I' for Inactive)
REMARK       I    between atoms: N_2  and  C_3 
REMARK    1  A    between atoms: C_3  and  O_4 
REMARK    2  A    between atoms: O_4  and  C_5 
REMARK    3  A    between atoms: C_7  and  N_8 
REMARK    4  A    between atoms: C_9  and  N_10 
ROOT
HETATM    1  C   LIG     1      17.763  38.665  22.799  1.00  0.00     0.083 A 
HETATM    2  C   LIG     1      17.577  37.344  22.374  1.00  0.00     0.069 A 
HETATM    3  C   LIG     1      17.230  36.336  23.292  1.00  0.00     0.060 A 
HETATM    4  C   LIG     1      17.112  36.657  24.649  1.00  0.00     0.032 A 
HETATM    5  C   LIG     1      17.276  37.976  25.079  1.00  0.00     0.005 A 
HETATM    6  C   LIG     1      17.588  38.980  24.160  1.00  0.00     0.037 A 
ENDROOT
BRANCH   1   7
HETATM    7  O   LIG     1      18.084  39.636  21.839  1.00  0.00    -0.262 OA
BRANCH   7   8
HETATM    8  C   LIG     1      18.707  39.386  20.609  1.00  0.00     0.365 C 
HETATM    9  N   LIG     1      20.063  38.931  20.598  1.00  0.00    -0.341 N 
HETATM   10  C   LIG     1      20.778  38.671  19.355  1.00  0.00     0.151 C 
HETATM   11  H   LIG     1      20.553  38.778  21.507  1.00  0.00     0.164 HD
HETATM   12  O   LIG     1      18.104  39.605  19.523  1.00  0.00    -0.238 OA
ENDBRANCH   7   8
ENDBRANCH   1   7
BRANCH   3  13
HETATM   13  N   LIG     1      17.071  34.966  22.889  1.00  0.00    -0.244 NA
HETATM   14  C   LIG     1      16.467  34.527  21.821  1.00  0.00     0.204 C 
BRANCH  14  15
HETATM   15  N   LIG     1      15.725  35.388  20.942  1.00  0.00    -0.384 N 
HETATM   16  C   LIG     1      14.492  36.020  21.414  1.00  0.00     0.149 C 
HETATM   17  C   LIG     1      15.900  35.214  19.503  1.00  0.00     0.149 C 
ENDBRANCH  14  15
ENDBRANCH   3  13
TORSDOF 4
ENDMDL
MODEL 15
REMARK VINA RESULT:      -4.4      7.609      8.908
REMARK  4 active torsions:
REMARK  status: ('A' for Active; 'I' for Inactive)
REMARK       I    between atoms: N_2  and  C_3 
REMARK    1  A    between atoms: C_3  and  O_4 
REMARK    2  A    between atoms: O_4  and  C_5 
REMARK    3  A    between atoms: C_7  and  N_8 
REMARK    4  A    between atoms: C_9  and  N_10 
ROOT
HETATM    1  C   LIG     1      17.330  33.467  13.860  1.00  0.00     0.083 A 
HETATM    2  C   LIG     1      17.007  33.474  15.223  1.00  0.00     0.069 A 
HETATM    3  C   LIG     1      16.117  32.524  15.755  1.00  0.00     0.060 A 
HETATM    4  C   LIG     1      15.520  31.591  14.899  1.00  0.00     0.032 A 
HETATM    5  C   LIG     1      15.853  31.563  13.543  1.00  0.00     0.005 A 
HETATM    6  C   LIG     1      16.762  32.488  13.024  1.00  0.00     0.037 A 
ENDROOT
BRANCH   1   7
HETATM    7  O   LIG     1      18.242  34.422  13.386  1.00  0.00    -0.262 OA
BRANCH   7   8
HETATM    8  C   LIG     1      18.971  34.326  12.193  1.00  0.00     0.365 C 
HETATM    9  N   LIG     1      20.105  33.455  12.141  1.00  0.00    -0.341 N 
HETATM   10  C   LIG     1      20.919  33.322  10.940  1.00  0.00     0.151 C 
HETATM   11  H   LIG     1      20.352  32.895  12.988  1.00  0.00     0.164 HD
HETATM   12  O   LIG     1      18.670  35.033  11.193  1.00  0.00    -0.238 OA
ENDBRANCH   7   8
ENDBRANCH   1   7
BRANCH   3  13
HETATM   13  N   LIG     1      15.737  32.533  17.141  1.00  0.00    -0.244 NA
HETATM   14  C   LIG     1      14.592  32.168  17.642  1.00  0.00     0.204 C 
BRANCH  14  15
HETATM   15  N   LIG     1      13.460  31.830  16.823  1.00  0.00    -0.384 N 
HETATM   16  C   LIG     1      12.402  32.817  16.602  1.00  0.00     0.149 C 
HETATM   17  C   LIG     1      13.125  30.417  16.667  1.00  0.00     0.149 C 
ENDBRANCH  14  15
ENDBRANCH   3  13
TORSDOF 4
ENDMDL
MODEL 16
REMARK VINA RESULT:      -4.4      3.376      4.633
REMARK  4 active torsions:
REMARK  status: ('A' for Active; 'I' for Inactive)
REMARK       I    between atoms: N_2  and  C_3 
REMARK    1  A    between atoms: C_3  and  O_4 
REMARK    2  A    between atoms: O_4  and  C_5 
REMARK    3  A    between atoms: C_7  and  N_8 
REMARK    4  A    between atoms: C_9  and  N_10 
ROOT
HETATM    1  C   LIG     1      15.901  35.046  19.823  1.00  0.00     0.083 A 
HETATM    2  C   LIG     1      16.761  36.151  19.829  1.00  0.00     0.069 A 
HETATM    3  C   LIG     1      17.479  36.497  20.989  1.00  0.00     0.060 A 
HETATM    4  C   LIG     1      17.295  35.747  22.157  1.00  0.00     0.032 A 
HETATM    5  C   LIG     1      16.455  34.631  22.154  1.00  0.00     0.005 A 
HETATM    6  C   LIG     1      15.769  34.272  20.991  1.00  0.00     0.037 A 
ENDROOT
BRANCH   1   7
HETATM    7  O   LIG     1      15.228  34.731  18.633  1.00  0.00    -0.262 OA
BRANCH   7   8
HETATM    8  C   LIG     1      15.422  33.570  17.874  1.00  0.00     0.365 C 
HETATM    9  N   LIG     1      15.910  33.691  16.535  1.00  0.00    -0.341 N 
HETATM   10  C   LIG     1      16.116  32.527  15.682  1.00  0.00     0.151 C 
HETATM   11  H   LIG     1      16.130  34.641  16.160  1.00  0.00     0.164 HD
HETATM   12  O   LIG     1      15.124  32.436  18.339  1.00  0.00    -0.238 OA
ENDBRANCH   7   8
ENDBRANCH   1   7
BRANCH   3  13
HETATM   13  N   LIG     1      18.338  37.648  21.034  1.00  0.00    -0.244 NA
HETATM   14  C   LIG     1      18.303  38.618  21.903  1.00  0.00     0.204 C 
BRANCH  14  15
HETATM   15  N   LIG     1      17.263  38.739  22.887  1.00  0.00    -0.384 N 
HETATM   16  C   LIG     1      17.479  38.223  24.240  1.00  0.00     0.149 C 
HETATM   17  C   LIG     1      15.888  38.881  22.418  1.00  0.00     0.149 C 
ENDBRANCH  14  15
ENDBRANCH   3  13
TORSDOF 4
ENDMDL
MODEL 17
REMARK VINA RESULT:      -4.3      8.933     10.786
REMARK  4 active torsions:
REMARK  status: ('A' for Active; 'I' for Inactive)
REMARK       I    between atoms: N_2  and  C_3 
REMARK    1  A    between atoms: C_3  and  O_4 
REMARK    2  A    between atoms: O_4  and  C_5 
REMARK    3  A    between atoms: C_7  and  N_8 
REMARK    4  A    between atoms: C_9  and  N_10 
ROOT
HETATM    1  C   LIG     1      16.093  31.934  13.832  1.00  0.00     0.083 A 
HETATM    2  C   LIG     1      15.237  30.868  13.525  1.00  0.00     0.069 A 
HETATM    3  C   LIG     1      14.318  30.389  14.476  1.00  0.00     0.060 A 
HETATM    4  C   LIG     1      14.293  30.960  15.753  1.00  0.00     0.032 A 
HETATM    5  C   LIG     1      15.129  32.037  16.061  1.00  0.00     0.005 A 
HETATM    6  C   LIG     1      16.018  32.532  15.104  1.00  0.00     0.037 A 
ENDROOT
BRANCH   1   7
HETATM    7  O   LIG     1      16.974  32.389  12.839  1.00  0.00    -0.262 OA
BRANCH   7   8
HETATM    8  C   LIG     1      17.868  33.459  12.977  1.00  0.00     0.365 C 
HETATM    9  N   LIG     1      19.226  33.286  12.560  1.00  0.00    -0.341 N 
HETATM   10  C   LIG     1      20.213  34.349  12.692  1.00  0.00     0.151 C 
HETATM   11  H   LIG     1      19.515  32.372  12.144  1.00  0.00     0.164 HD
HETATM   12  O   LIG     1      17.502  34.543  13.507  1.00  0.00    -0.238 OA
ENDBRANCH   7   8
ENDBRANCH   1   7
BRANCH   3  13
HETATM   13  N   LIG     1      13.456  29.272  14.201  1.00  0.00    -0.244 NA
HETATM   14  C   LIG     1      13.810  28.097  13.766  1.00  0.00     0.204 C 
BRANCH  14  15
HETATM   15  N   LIG     1      15.152  27.797  13.349  1.00  0.00    -0.384 N 
HETATM   16  C   LIG     1      15.387  27.167  12.049  1.00  0.00     0.149 C 
HETATM   17  C   LIG     1      16.172  27.638  14.383  1.00  0.00     0.149 C 
ENDBRANCH  14  15
ENDBRANCH   3  13
TORSDOF 4
ENDMDL
MODEL 18
REMARK VINA RESULT:      -4.2      7.656      9.430
REMARK  4 active torsions:
REMARK  status: ('A' for Active; 'I' for Inactive)
REMARK       I    between atoms: N_2  and  C_3 
REMARK    1  A    between atoms: C_3  and  O_4 
REMARK    2  A    between atoms: O_4  and  C_5 
REMARK    3  A    between atoms: C_7  and  N_8 
REMARK    4  A    between atoms: C_9  and  N_10 
ROOT
HETATM    1  C   LIG     1      16.052  32.100  13.875  1.00  0.00     0.083 A 
HETATM    2  C   LIG     1      15.464  32.788  14.943  1.00  0.00     0.069 A 
HETATM    3  C   LIG     1      16.147  33.838  15.585  1.00  0.00     0.060 A 
HETATM    4  C   LIG     1      17.444  34.163  15.173  1.00  0.00     0.032 A 
HETATM    5  C   LIG     1      18.031  33.495  14.095  1.00  0.00     0.005 A 
HETATM    6  C   LIG     1      17.336  32.476  13.439  1.00  0.00     0.037 A 
ENDROOT
BRANCH   1   7
HETATM    7  O   LIG     1      15.318  31.077  13.255  1.00  0.00    -0.262 OA
BRANCH   7   8
HETATM    8  C   LIG     1      15.099  29.799  13.786  1.00  0.00     0.365 C 
HETATM    9  N   LIG     1      15.505  28.655  13.029  1.00  0.00    -0.341 N 
HETATM   10  C   LIG     1      15.290  27.297  13.512  1.00  0.00     0.151 C 
HETATM   11  H   LIG     1      15.974  28.798  12.107  1.00  0.00     0.164 HD
HETATM   12  O   LIG     1      14.507  29.650  14.889  1.00  0.00    -0.238 OA
ENDBRANCH   7   8
ENDBRANCH   1   7
BRANCH   3  13
HETATM   13  N   LIG     1      15.582  34.535  16.708  1.00  0.00    -0.244 NA
HETATM   14  C   LIG     1      15.113  34.008  17.802  1.00  0.00     0.204 C 
BRANCH  14  15
HETATM   15  N   LIG     1      14.961  32.589  17.976  1.00  0.00    -0.384 N 
HETATM   16  C   LIG     1      13.820  31.901  17.369  1.00  0.00     0.149 C 
HETATM   17  C   LIG     1      15.604  31.966  19.129  1.00  0.00     0.149 C 
ENDBRANCH  14  15
ENDBRANCH   3  13
TORSDOF 4
ENDMDL
