MODEL 1
REMARK VINA RESULT:      -8.4      0.000      0.000
REMARK  4 active torsions:
REMARK  status: ('A' for Active; 'I' for Inactive)
REMARK    1  A    between atoms: N_1  and  C_2 
REMARK    2  A    between atoms: C_2  and  C_3 
REMARK    3  A    between atoms: C_2  and  C_5 
REMARK    4  A    between atoms: C_5  and  C_6 
ROOT
HETATM    1  C   LIG     1      16.970  37.077  22.303  1.00  0.00    -0.028 A 
HETATM    2  C   LIG     1      16.677  35.838  21.740  1.00  0.00     0.096 A 
HETATM    3  N   LIG     1      17.323  35.690  20.562  1.00  0.00    -0.365 N 
HETATM    4  C   LIG     1      18.025  36.822  20.379  1.00  0.00     0.042 A 
HETATM    5  C   LIG     1      18.860  37.133  19.305  1.00  0.00     0.030 A 
HETATM    6  C   LIG     1      19.515  38.378  19.322  1.00  0.00     0.002 A 
HETATM    7  C   LIG     1      19.328  39.271  20.401  1.00  0.00     0.001 A 
HETATM    8  C   LIG     1      18.481  38.930  21.470  1.00  0.00     0.014 A 
HETATM    9  C   LIG     1      17.838  37.692  21.422  1.00  0.00    -0.002 A 
HETATM   10  H   LIG     1      17.284  34.862  19.927  1.00  0.00     0.165 HD
ENDROOT
BRANCH   1  11
HETATM   11  C   LIG     1      16.449  37.612  23.607  1.00  0.00     0.076 C 
BRANCH  11  12
HETATM   12  C   LIG     1      17.515  37.540  24.716  1.00  0.00     0.222 C 
BRANCH  12  13
HETATM   13  N   LIG     1      17.261  38.592  25.707  1.00  0.00     0.083 N 
HETATM   14  H   LIG     1      17.989  39.336  25.613  1.00  0.00     0.313 HD
HETATM   15  H   LIG     1      17.328  38.193  26.673  1.00  0.00     0.313 HD
ENDBRANCH  12  13
BRANCH  12  16
HETATM   16  C   LIG     1      17.516  36.134  25.360  1.00  0.00     0.031 C 
HETATM   17  C   LIG     1      18.297  36.089  26.673  1.00  0.00     0.007 C 
ENDBRANCH  12  16
ENDBRANCH  11  12
ENDBRANCH   1  11
TORSDOF 4
ENDMDL
MODEL 2
REMARK VINA RESULT:      -8.1      1.260      5.346
REMARK  4 active torsions:
REMARK  status: ('A' for Active; 'I' for Inactive)
REMARK    1  A    between atoms: N_1  and  C_2 
REMARK    2  A    between atoms: C_2  and  C_3 
REMARK    3  A    between atoms: C_2  and  C_5 
REMARK    4  A    between atoms: C_5  and  C_6 
ROOT
HETATM    1  C   LIG     1      16.533  37.007  23.125  1.00  0.00    -0.028 A 
HETATM    2  C   LIG     1      16.607  38.370  23.394  1.00  0.00     0.096 A 
HETATM    3  N   LIG     1      17.174  38.583  24.604  1.00  0.00    -0.365 N 
HETATM    4  C   LIG     1      17.463  37.366  25.097  1.00  0.00     0.042 A 
HETATM    5  C   LIG     1      18.069  37.072  26.318  1.00  0.00     0.030 A 
HETATM    6  C   LIG     1      18.293  35.719  26.632  1.00  0.00     0.002 A 
HETATM    7  C   LIG     1      17.914  34.702  25.727  1.00  0.00     0.001 A 
HETATM    8  C   LIG     1      17.306  35.028  24.502  1.00  0.00     0.014 A 
HETATM    9  C   LIG     1      17.089  36.378  24.222  1.00  0.00    -0.002 A 
HETATM   10  H   LIG     1      17.352  39.506  25.057  1.00  0.00     0.165 HD
ENDROOT
BRANCH   1  11
HETATM   11  C   LIG     1      15.971  36.370  21.885  1.00  0.00     0.076 C 
BRANCH  11  12
HETATM   12  C   LIG     1      17.086  35.901  20.933  1.00  0.00     0.222 C 
BRANCH  12  13
HETATM   13  N   LIG     1      16.489  35.389  19.694  1.00  0.00     0.083 N 
HETATM   14  H   LIG     1      16.431  36.163  18.994  1.00  0.00     0.313 HD
HETATM   15  H   LIG     1      15.517  35.049  19.883  1.00  0.00     0.313 HD
ENDBRANCH  12  13
BRANCH  12  16
HETATM   16  C   LIG     1      18.071  37.061  20.657  1.00  0.00     0.031 C 
HETATM   17  C   LIG     1      19.097  36.717  19.578  1.00  0.00     0.007 C 
ENDBRANCH  12  16
ENDBRANCH  11  12
ENDBRANCH   1  11
TORSDOF 4
ENDMDL
MODEL 3
REMARK VINA RESULT:      -7.8      2.255      5.453
REMARK  4 active torsions:
REMARK  status: ('A' for Active; 'I' for Inactive)
REMARK    1  A    between atoms: N_1  and  C_2 
REMARK    2  A    between atoms: C_2  and  C_3 
REMARK    3  A    between atoms: C_2  and  C_5 
REMARK    4  A    between atoms: C_5  and  C_6 
ROOT
HETATM    1  C   LIG     1      16.630  36.181  23.085  1.00  0.00    -0.028 A 
HETATM    2  C   LIG     1      16.382  37.547  22.987  1.00  0.00     0.096 A 
HETATM    3  N   LIG     1      16.767  38.180  24.118  1.00  0.00    -0.365 N 
HETATM    4  C   LIG     1      17.262  37.226  24.927  1.00  0.00     0.042 A 
HETATM    5  C   LIG     1      17.793  37.396  26.205  1.00  0.00     0.030 A 
HETATM    6  C   LIG     1      18.271  36.255  26.875  1.00  0.00     0.002 A 
HETATM    7  C   LIG     1      18.212  34.985  26.257  1.00  0.00     0.001 A 
HETATM    8  C   LIG     1      17.672  34.845  24.967  1.00  0.00     0.014 A 
HETATM    9  C   LIG     1      17.198  35.993  24.330  1.00  0.00    -0.002 A 
HETATM   10  H   LIG     1      16.696  39.202  24.317  1.00  0.00     0.165 HD
ENDROOT
BRANCH   1  11
HETATM   11  C   LIG     1      16.344  35.143  22.038  1.00  0.00     0.076 C 
BRANCH  11  12
HETATM   12  C   LIG     1      16.339  35.751  20.623  1.00  0.00     0.222 C 
BRANCH  12  13
HETATM   13  N   LIG     1      17.718  36.033  20.207  1.00  0.00     0.083 N 
HETATM   14  H   LIG     1      17.704  36.646  19.361  1.00  0.00     0.313 HD
HETATM   15  H   LIG     1      18.201  35.140  19.952  1.00  0.00     0.313 HD
ENDBRANCH  12  13
BRANCH  12  16
HETATM   16  C   LIG     1      15.627  34.797  19.637  1.00  0.00     0.031 C 
HETATM   17  C   LIG     1      15.538  33.365  20.164  1.00  0.00     0.007 C 
ENDBRANCH  12  16
ENDBRANCH  11  12
ENDBRANCH   1  11
TORSDOF 4
ENDMDL
MODEL 4
REMARK VINA RESULT:      -7.7      1.554      4.688
REMARK  4 active torsions:
REMARK  status: ('A' for Active; 'I' for Inactive)
REMARK    1  A    between atoms: N_1  and  C_2 
REMARK    2  A    between atoms: C_2  and  C_3 
REMARK    3  A    between atoms: C_2  and  C_5 
REMARK    4  A    between atoms: C_5  and  C_6 
ROOT
HETATM    1  C   LIG     1      17.035  37.467  22.804  1.00  0.00    -0.028 A 
HETATM    2  C   LIG     1      16.628  36.348  22.084  1.00  0.00     0.096 A 
HETATM    3  N   LIG     1      16.741  35.232  22.841  1.00  0.00    -0.365 N 
HETATM    4  C   LIG     1      17.211  35.639  24.033  1.00  0.00     0.042 A 
HETATM    5  C   LIG     1      17.482  34.846  25.148  1.00  0.00     0.030 A 
HETATM    6  C   LIG     1      17.958  35.485  26.308  1.00  0.00     0.002 A 
HETATM    7  C   LIG     1      18.147  36.885  26.328  1.00  0.00     0.001 A 
HETATM    8  C   LIG     1      17.864  37.659  25.189  1.00  0.00     0.014 A 
HETATM    9  C   LIG     1      17.401  36.997  24.051  1.00  0.00    -0.002 A 
HETATM   10  H   LIG     1      16.507  34.256  22.554  1.00  0.00     0.165 HD
ENDROOT
BRANCH   1  11
HETATM   11  C   LIG     1      17.056  38.887  22.313  1.00  0.00     0.076 C 
BRANCH  11  12
HETATM   12  C   LIG     1      18.349  39.199  21.538  1.00  0.00     0.222 C 
BRANCH  12  13
HETATM   13  N   LIG     1      19.466  39.330  22.482  1.00  0.00     0.083 N 
HETATM   14  H   LIG     1      19.624  40.342  22.690  1.00  0.00     0.313 HD
HETATM   15  H   LIG     1      20.340  38.947  22.054  1.00  0.00     0.313 HD
ENDBRANCH  12  13
BRANCH  12  16
HETATM   16  C   LIG     1      18.616  38.099  20.485  1.00  0.00     0.031 C 
HETATM   17  C   LIG     1      19.843  38.395  19.623  1.00  0.00     0.007 C 
ENDBRANCH  12  16
ENDBRANCH  11  12
ENDBRANCH   1  11
TORSDOF 4
ENDMDL
MODEL 5
REMARK VINA RESULT:      -7.7      1.939      3.892
REMARK  4 active torsions:
REMARK  status: ('A' for Active; 'I' for Inactive)
REMARK    1  A    between atoms: N_1  and  C_2 
REMARK    2  A    between atoms: C_2  and  C_3 
REMARK    3  A    between atoms: C_2  and  C_5 
REMARK    4  A    between atoms: C_5  and  C_6 
ROOT
HETATM    1  C   LIG     1      16.858  36.446  22.196  1.00  0.00    -0.028 A 
HETATM    2  C   LIG     1      16.426  37.453  23.054  1.00  0.00     0.096 A 
HETATM    3  N   LIG     1      16.956  38.643  22.690  1.00  0.00    -0.365 N 
HETATM    4  C   LIG     1      17.712  38.396  21.606  1.00  0.00     0.042 A 
HETATM    5  C   LIG     1      18.452  39.318  20.866  1.00  0.00     0.030 A 
HETATM    6  C   LIG     1      19.167  38.843  19.751  1.00  0.00     0.002 A 
HETATM    7  C   LIG     1      19.124  37.474  19.403  1.00  0.00     0.001 A 
HETATM    8  C   LIG     1      18.368  36.568  20.168  1.00  0.00     0.014 A 
HETATM    9  C   LIG     1      17.676  37.066  21.273  1.00  0.00    -0.002 A 
HETATM   10  H   LIG     1      16.802  39.564  23.156  1.00  0.00     0.165 HD
ENDROOT
BRANCH   1  11
HETATM   11  C   LIG     1      16.490  34.991  22.269  1.00  0.00     0.076 C 
BRANCH  11  12
HETATM   12  C   LIG     1      15.255  34.675  21.405  1.00  0.00     0.222 C 
BRANCH  12  13
HETATM   13  N   LIG     1      14.431  35.882  21.270  1.00  0.00     0.083 N 
HETATM   14  H   LIG     1      13.498  35.619  20.878  1.00  0.00     0.313 HD
HETATM   15  H   LIG     1      14.886  36.549  20.604  1.00  0.00     0.313 HD
ENDBRANCH  12  13
BRANCH  12  16
HETATM   16  C   LIG     1      15.696  34.125  20.029  1.00  0.00     0.031 C 
HETATM   17  C   LIG     1      15.445  32.624  19.887  1.00  0.00     0.007 C 
ENDBRANCH  12  16
ENDBRANCH  11  12
ENDBRANCH   1  11
TORSDOF 4
ENDMDL
MODEL 6
REMARK VINA RESULT:      -7.7      1.522      2.184
REMARK  4 active torsions:
REMARK  status: ('A' for Active; 'I' for Inactive)
REMARK    1  A    between atoms: N_1  and  C_2 
REMARK    2  A    between atoms: C_2  and  C_3 
REMARK    3  A    between atoms: C_2  and  C_5 
REMARK    4  A    between atoms: C_5  and  C_6 
ROOT
HETATM    1  C   LIG     1      17.504  38.078  22.646  1.00  0.00    -0.028 A 
HETATM    2  C   LIG     1      17.836  39.404  22.908  1.00  0.00     0.096 A 
HETATM    3  N   LIG     1      18.519  39.934  21.868  1.00  0.00    -0.365 N 
HETATM    4  C   LIG     1      18.615  38.956  20.950  1.00  0.00     0.042 A 
HETATM    5  C   LIG     1      19.227  39.030  19.699  1.00  0.00     0.030 A 
HETATM    6  C   LIG     1      19.199  37.883  18.885  1.00  0.00     0.002 A 
HETATM    7  C   LIG     1      18.564  36.702  19.333  1.00  0.00     0.001 A 
HETATM    8  C   LIG     1      17.955  36.658  20.599  1.00  0.00     0.014 A 
HETATM    9  C   LIG     1      18.005  37.808  21.388  1.00  0.00    -0.002 A 
HETATM   10  H   LIG     1      18.891  40.907  21.795  1.00  0.00     0.165 HD
ENDROOT
BRANCH   1  11
HETATM   11  C   LIG     1      16.746  37.150  23.554  1.00  0.00     0.076 C 
BRANCH  11  12
HETATM   12  C   LIG     1      17.582  36.756  24.786  1.00  0.00     0.222 C 
BRANCH  12  13
HETATM   13  N   LIG     1      17.203  37.600  25.925  1.00  0.00     0.083 N 
HETATM   14  H   LIG     1      16.659  37.029  26.611  1.00  0.00     0.313 HD
HETATM   15  H   LIG     1      16.591  38.384  25.597  1.00  0.00     0.313 HD
ENDBRANCH  12  13
BRANCH  12  16
HETATM   16  C   LIG     1      17.391  35.254  25.098  1.00  0.00     0.031 C 
HETATM   17  C   LIG     1      18.189  34.800  26.320  1.00  0.00     0.007 C 
ENDBRANCH  12  16
ENDBRANCH  11  12
ENDBRANCH   1  11
TORSDOF 4
ENDMDL
MODEL 7
REMARK VINA RESULT:      -6.8      2.130      3.213
REMARK  4 active torsions:
REMARK  status: ('A' for Active; 'I' for Inactive)
REMARK    1  A    between atoms: N_1  and  C_2 
REMARK    2  A    between atoms: C_2  and  C_3 
REMARK    3  A    between atoms: C_2  and  C_5 
REMARK    4  A    between atoms: C_5  and  C_6 
ROOT
HETATM    1  C   LIG     1      17.343  37.970  22.298  1.00  0.00    -0.028 A 
HETATM    2  C   LIG     1      17.619  39.228  22.825  1.00  0.00     0.096 A 
HETATM    3  N   LIG     1      18.555  39.857  22.079  1.00  0.00    -0.365 N 
HETATM    4  C   LIG     1      18.868  39.009  21.083  1.00  0.00     0.042 A 
HETATM    5  C   LIG     1      19.784  39.220  20.052  1.00  0.00     0.030 A 
HETATM    6  C   LIG     1      19.947  38.197  19.100  1.00  0.00     0.002 A 
HETATM    7  C   LIG     1      19.199  37.002  19.197  1.00  0.00     0.001 A 
HETATM    8  C   LIG     1      18.282  36.819  20.248  1.00  0.00     0.014 A 
HETATM    9  C   LIG     1      18.147  37.847  21.181  1.00  0.00    -0.002 A 
HETATM   10  H   LIG     1      18.950  40.809  22.245  1.00  0.00     0.165 HD
ENDROOT
BRANCH   1  11
HETATM   11  C   LIG     1      16.361  36.969  22.840  1.00  0.00     0.076 C 
BRANCH  11  12
HETATM   12  C   LIG     1      16.899  35.531  22.729  1.00  0.00     0.222 C 
BRANCH  12  13
HETATM   13  N   LIG     1      17.074  34.969  24.073  1.00  0.00     0.083 N 
HETATM   14  H   LIG     1      16.254  34.362  24.302  1.00  0.00     0.313 HD
HETATM   15  H   LIG     1      17.113  35.741  24.778  1.00  0.00     0.313 HD
ENDBRANCH  12  13
BRANCH  12  16
HETATM   16  C   LIG     1      15.944  34.672  21.869  1.00  0.00     0.031 C 
HETATM   17  C   LIG     1      14.826  35.495  21.229  1.00  0.00     0.007 C 
ENDBRANCH  12  16
ENDBRANCH  11  12
ENDBRANCH   1  11
TORSDOF 4
ENDMDL
MODEL 8
REMARK VINA RESULT:      -6.5      1.684      2.906
REMARK  4 active torsions:
REMARK  status: ('A' for Active; 'I' for Inactive)
REMARK    1  A    between atoms: N_1  and  C_2 
REMARK    2  A    between atoms: C_2  and  C_3 
REMARK    3  A    between atoms: C_2  and  C_5 
REMARK    4  A    between atoms: C_5  and  C_6 
ROOT
HETATM    1  C   LIG     1      17.078  36.881  23.083  1.00  0.00    -0.028 A 
HETATM    2  C   LIG     1      17.813  37.863  22.425  1.00  0.00     0.096 A 
HETATM    3  N   LIG     1      17.826  37.630  21.093  1.00  0.00    -0.365 N 
HETATM    4  C   LIG     1      17.101  36.513  20.904  1.00  0.00     0.042 A 
HETATM    5  C   LIG     1      16.821  35.884  19.692  1.00  0.00     0.030 A 
HETATM    6  C   LIG     1      16.025  34.724  19.722  1.00  0.00     0.002 A 
HETATM    7  C   LIG     1      15.529  34.228  20.949  1.00  0.00     0.001 A 
HETATM    8  C   LIG     1      15.827  34.885  22.156  1.00  0.00     0.014 A 
HETATM    9  C   LIG     1      16.626  36.028  22.095  1.00  0.00    -0.002 A 
HETATM   10  H   LIG     1      18.301  38.205  20.362  1.00  0.00     0.165 HD
ENDROOT
BRANCH   1  11
HETATM   11  C   LIG     1      16.831  36.791  24.562  1.00  0.00     0.076 C 
BRANCH  11  12
HETATM   12  C   LIG     1      17.908  37.545  25.364  1.00  0.00     0.222 C 
BRANCH  12  13
HETATM   13  N   LIG     1      17.329  38.770  25.929  1.00  0.00     0.083 N 
HETATM   14  H   LIG     1      16.412  38.963  25.467  1.00  0.00     0.313 HD
HETATM   15  H   LIG     1      17.964  39.580  25.743  1.00  0.00     0.313 HD
ENDBRANCH  12  13
BRANCH  12  16
HETATM   16  C   LIG     1      18.492  36.627  26.463  1.00  0.00     0.031 C 
HETATM   17  C   LIG     1      18.108  35.160  26.270  1.00  0.00     0.007 C 
ENDBRANCH  12  16
ENDBRANCH  11  12
ENDBRANCH   1  11
TORSDOF 4
ENDMDL
MODEL 9
REMARK VINA RESULT:      -6.5      2.438      4.855
REMARK  4 active torsions:
REMARK  status: ('A' for Active; 'I' for Inactive)
REMARK    1  A    between atoms: N_1  and  C_2 
REMARK    2  A    between atoms: C_2  and  C_3 
REMARK    3  A    between atoms: C_2  and  C_5 
REMARK    4  A    between atoms: C_5  and  C_6 
ROOT
HETATM    1  C   LIG     1      16.825  35.479  22.407  1.00  0.00    -0.028 A 
HETATM    2  C   LIG     1      17.009  34.720  23.559  1.00  0.00     0.096 A 
HETATM    3  N   LIG     1      17.276  35.522  24.615  1.00  0.00    -0.365 N 
HETATM    4  C   LIG     1      17.257  36.780  24.140  1.00  0.00     0.042 A 
HETATM    5  C   LIG     1      17.468  37.957  24.859  1.00  0.00     0.030 A 
HETATM    6  C   LIG     1      17.387  39.176  24.161  1.00  0.00     0.002 A 
HETATM    7  C   LIG     1      17.097  39.191  22.778  1.00  0.00     0.001 A 
HETATM    8  C   LIG     1      16.888  37.989  22.080  1.00  0.00     0.014 A 
HETATM    9  C   LIG     1      16.982  36.795  22.797  1.00  0.00    -0.002 A 
HETATM   10  H   LIG     1      17.456  35.221  25.598  1.00  0.00     0.165 HD
ENDROOT
BRANCH   1  11
HETATM   11  C   LIG     1      16.510  34.957  21.034  1.00  0.00     0.076 C 
BRANCH  11  12
HETATM   12  C   LIG     1      15.422  33.868  21.077  1.00  0.00     0.222 C 
BRANCH  12  13
HETATM   13  N   LIG     1      14.128  34.481  21.396  1.00  0.00     0.083 N 
HETATM   14  H   LIG     1      13.812  34.149  22.335  1.00  0.00     0.313 HD
HETATM   15  H   LIG     1      13.413  34.188  20.690  1.00  0.00     0.313 HD
ENDBRANCH  12  13
BRANCH  12  16
HETATM   16  C   LIG     1      15.379  33.106  19.732  1.00  0.00     0.031 C 
HETATM   17  C   LIG     1      15.069  31.620  19.906  1.00  0.00     0.007 C 
ENDBRANCH  12  16
ENDBRANCH  11  12
ENDBRANCH   1  11
TORSDOF 4
ENDMDL
MODEL 10
REMARK VINA RESULT:      -6.3      7.299      9.104
REMARK  4 active torsions:
REMARK  status: ('A' for Active; 'I' for Inactive)
REMARK    1  A    between atoms: N_1  and  C_2 
REMARK    2  A    between atoms: C_2  and  C_3 
REMARK    3  A    between atoms: C_2  and  C_5 
REMARK    4  A    between atoms: C_5  and  C_6 
ROOT
HETATM    1  C   LIG     1      15.359  32.686  16.069  1.00  0.00    -0.028 A 
HETATM    2  C   LIG     1      16.495  32.986  15.323  1.00  0.00     0.096 A 
HETATM    3  N   LIG     1      16.651  32.091  14.320  1.00  0.00    -0.365 N 
HETATM    4  C   LIG     1      15.621  31.233  14.424  1.00  0.00     0.042 A 
HETATM    5  C   LIG     1      15.347  30.140  13.603  1.00  0.00     0.030 A 
HETATM    6  C   LIG     1      14.199  29.378  13.885  1.00  0.00     0.002 A 
HETATM    7  C   LIG     1      13.358  29.724  14.967  1.00  0.00     0.001 A 
HETATM    8  C   LIG     1      13.659  30.832  15.777  1.00  0.00     0.014 A 
HETATM    9  C   LIG     1      14.809  31.565  15.478  1.00  0.00    -0.002 A 
HETATM   10  H   LIG     1      17.416  32.076  13.610  1.00  0.00     0.165 HD
ENDROOT
BRANCH   1  11
HETATM   11  C   LIG     1      14.847  33.443  17.262  1.00  0.00     0.076 C 
BRANCH  11  12
HETATM   12  C   LIG     1      15.379  32.851  18.580  1.00  0.00     0.222 C 
BRANCH  12  13
HETATM   13  N   LIG     1      15.502  33.917  19.581  1.00  0.00     0.083 N 
HETATM   14  H   LIG     1      14.886  34.717  19.309  1.00  0.00     0.313 HD
HETATM   15  H   LIG     1      16.489  34.262  19.612  1.00  0.00     0.313 HD
ENDBRANCH  12  13
BRANCH  12  16
HETATM   16  C   LIG     1      14.450  31.714  19.064  1.00  0.00     0.031 C 
HETATM   17  C   LIG     1      15.007  30.976  20.281  1.00  0.00     0.007 C 
ENDBRANCH  12  16
ENDBRANCH  11  12
ENDBRANCH   1  11
TORSDOF 4
ENDMDL
MODEL 11
REMARK VINA RESULT:      -6.2      8.720     10.665
REMARK  4 active torsions:
REMARK  status: ('A' for Active; 'I' for Inactive)
REMARK    1  A    between atoms: N_1  and  C_2 
REMARK    2  A    between atoms: C_2  and  C_3 
REMARK    3  A    between atoms: C_2  and  C_5 
REMARK    4  A    between atoms: C_5  and  C_6 
ROOT
HETATM    1  C   LIG     1      16.461  32.445  14.262  1.00  0.00    -0.028 A 
HETATM    2  C   LIG     1      16.129  31.562  13.239  1.00  0.00     0.096 A 
HETATM    3  N   LIG     1      15.115  30.754  13.623  1.00  0.00    -0.365 N 
HETATM    4  C   LIG     1      14.799  31.124  14.877  1.00  0.00     0.042 A 
HETATM    5  C   LIG     1      13.803  30.585  15.690  1.00  0.00     0.030 A 
HETATM    6  C   LIG     1      13.633  31.136  16.974  1.00  0.00     0.002 A 
HETATM    7  C   LIG     1      14.451  32.204  17.408  1.00  0.00     0.001 A 
HETATM    8  C   LIG     1      15.447  32.727  16.565  1.00  0.00     0.014 A 
HETATM    9  C   LIG     1      15.598  32.155  15.301  1.00  0.00    -0.002 A 
HETATM   10  H   LIG     1      14.667  30.000  13.056  1.00  0.00     0.165 HD
ENDROOT
BRANCH   1  11
HETATM   11  C   LIG     1      17.532  33.497  14.222  1.00  0.00     0.076 C 
BRANCH  11  12
HETATM   12  C   LIG     1      18.218  33.555  12.845  1.00  0.00     0.222 C 
BRANCH  12  13
HETATM   13  N   LIG     1      17.562  34.572  12.014  1.00  0.00     0.083 N 
HETATM   14  H   LIG     1      17.172  34.118  11.158  1.00  0.00     0.313 HD
HETATM   15  H   LIG     1      18.262  35.289  11.711  1.00  0.00     0.313 HD
ENDBRANCH  12  13
BRANCH  12  16
HETATM   16  C   LIG     1      19.728  33.842  13.015  1.00  0.00     0.031 C 
HETATM   17  C   LIG     1      20.554  33.383  11.813  1.00  0.00     0.007 C 
ENDBRANCH  12  16
ENDBRANCH  11  12
ENDBRANCH   1  11
TORSDOF 4
ENDMDL
MODEL 12
REMARK VINA RESULT:      -6.1      2.415      5.521
REMARK  4 active torsions:
REMARK  status: ('A' for Active; 'I' for Inactive)
REMARK    1  A    between atoms: N_1  and  C_2 
REMARK    2  A    between atoms: C_2  and  C_3 
REMARK    3  A    between atoms: C_2  and  C_5 
REMARK    4  A    between atoms: C_5  and  C_6 
ROOT
HETATM    1  C   LIG     1      18.281  37.878  20.990  1.00  0.00    -0.028 A 
HETATM    2  C   LIG     1      18.002  38.784  22.009  1.00  0.00     0.096 A 
HETATM    3  N   LIG     1      16.850  38.451  22.635  1.00  0.00    -0.365 N 
HETATM    4  C   LIG     1      16.403  37.340  22.023  1.00  0.00     0.042 A 
HETATM    5  C   LIG     1      15.250  36.617  22.326  1.00  0.00     0.030 A 
HETATM    6  C   LIG     1      14.976  35.467  21.562  1.00  0.00     0.002 A 
HETATM    7  C   LIG     1      15.854  35.069  20.528  1.00  0.00     0.001 A 
HETATM    8  C   LIG     1      17.010  35.818  20.247  1.00  0.00     0.014 A 
HETATM    9  C   LIG     1      17.251  36.958  21.016  1.00  0.00    -0.002 A 
HETATM   10  H   LIG     1      16.405  38.955  23.433  1.00  0.00     0.165 HD
ENDROOT
BRANCH   1  11
HETATM   11  C   LIG     1      19.468  37.905  20.069  1.00  0.00     0.076 C 
BRANCH  11  12
HETATM   12  C   LIG     1      19.530  39.216  19.264  1.00  0.00     0.222 C 
BRANCH  12  13
HETATM   13  N   LIG     1      20.874  39.380  18.698  1.00  0.00     0.083 N 
HETATM   14  H   LIG     1      21.554  38.815  19.256  1.00  0.00     0.313 HD
HETATM   15  H   LIG     1      21.163  40.384  18.754  1.00  0.00     0.313 HD
ENDBRANCH  12  13
BRANCH  12  16
HETATM   16  C   LIG     1      18.442  39.216  18.165  1.00  0.00     0.031 C 
HETATM   17  C   LIG     1      18.989  39.612  16.794  1.00  0.00     0.007 C 
ENDBRANCH  12  16
ENDBRANCH  11  12
ENDBRANCH   1  11
TORSDOF 4
ENDMDL
MODEL 13
REMARK VINA RESULT:      -6.0      8.087     10.425
REMARK  4 active torsions:
REMARK  status: ('A' for Active; 'I' for Inactive)
REMARK    1  A    between atoms: N_1  and  C_2 
REMARK    2  A    between atoms: C_2  and  C_3 
REMARK    3  A    between atoms: C_2  and  C_5 
REMARK    4  A    between atoms: C_5  and  C_6 
ROOT
HETATM    1  C   LIG     1      15.988  32.259  15.781  1.00  0.00    -0.028 A 
HETATM    2  C   LIG     1      15.253  32.861  16.798  1.00  0.00     0.096 A 
HETATM    3  N   LIG     1      14.030  32.292  16.898  1.00  0.00    -0.365 N 
HETATM    4  C   LIG     1      13.989  31.332  15.957  1.00  0.00     0.042 A 
HETATM    5  C   LIG     1      12.932  30.465  15.682  1.00  0.00     0.030 A 
HETATM    6  C   LIG     1      13.109  29.519  14.655  1.00  0.00     0.002 A 
HETATM    7  C   LIG     1      14.325  29.460  13.938  1.00  0.00     0.001 A 
HETATM    8  C   LIG     1      15.374  30.347  14.239  1.00  0.00     0.014 A 
HETATM    9  C   LIG     1      15.167  31.279  15.257  1.00  0.00    -0.002 A 
HETATM   10  H   LIG     1      13.276  32.547  17.573  1.00  0.00     0.165 HD
ENDROOT
BRANCH   1  11
HETATM   11  C   LIG     1      17.388  32.608  15.362  1.00  0.00     0.076 C 
BRANCH  11  12
HETATM   12  C   LIG     1      17.410  33.831  14.426  1.00  0.00     0.222 C 
BRANCH  12  13
HETATM   13  N   LIG     1      17.376  35.060  15.227  1.00  0.00     0.083 N 
HETATM   14  H   LIG     1      17.983  35.782  14.776  1.00  0.00     0.313 HD
HETATM   15  H   LIG     1      17.755  34.871  16.184  1.00  0.00     0.313 HD
ENDBRANCH  12  13
BRANCH  12  16
HETATM   16  C   LIG     1      18.656  33.777  13.512  1.00  0.00     0.031 C 
HETATM   17  C   LIG     1      18.374  34.289  12.100  1.00  0.00     0.007 C 
ENDBRANCH  12  16
ENDBRANCH  11  12
ENDBRANCH   1  11
TORSDOF 4
ENDMDL
MODEL 14
REMARK VINA RESULT:      -6.0      2.365      4.711
REMARK  4 active torsions:
REMARK  status: ('A' for Active; 'I' for Inactive)
REMARK    1  A    between atoms: N_1  and  C_2 
REMARK    2  A    between atoms: C_2  and  C_3 
REMARK    3  A    between atoms: C_2  and  C_5 
REMARK    4  A    between atoms: C_5  and  C_6 
ROOT
HETATM    1  C   LIG     1      17.435  35.973  20.993  1.00  0.00    -0.028 A 
HETATM    2  C   LIG     1      18.239  36.476  19.975  1.00  0.00     0.096 A 
HETATM    3  N   LIG     1      18.548  37.771  20.213  1.00  0.00    -0.365 N 
HETATM    4  C   LIG     1      17.950  38.088  21.375  1.00  0.00     0.042 A 
HETATM    5  C   LIG     1      17.988  39.315  22.036  1.00  0.00     0.030 A 
HETATM    6  C   LIG     1      17.298  39.425  23.257  1.00  0.00     0.002 A 
HETATM    7  C   LIG     1      16.596  38.317  23.785  1.00  0.00     0.001 A 
HETATM    8  C   LIG     1      16.576  37.092  23.095  1.00  0.00     0.014 A 
HETATM    9  C   LIG     1      17.263  37.015  21.883  1.00  0.00    -0.002 A 
HETATM   10  H   LIG     1      19.135  38.394  19.614  1.00  0.00     0.165 HD
ENDROOT
BRANCH   1  11
HETATM   11  C   LIG     1      16.885  34.578  21.091  1.00  0.00     0.076 C 
BRANCH  11  12
HETATM   12  C   LIG     1      15.514  34.460  20.400  1.00  0.00     0.222 C 
BRANCH  12  13
HETATM   13  N   LIG     1      15.636  34.873  18.997  1.00  0.00     0.083 N 
HETATM   14  H   LIG     1      14.977  34.310  18.414  1.00  0.00     0.313 HD
HETATM   15  H   LIG     1      16.608  34.690  18.657  1.00  0.00     0.313 HD
ENDBRANCH  12  13
BRANCH  12  16
HETATM   16  C   LIG     1      14.979  33.014  20.526  1.00  0.00     0.031 C 
HETATM   17  C   LIG     1      15.257  32.173  19.281  1.00  0.00     0.007 C 
ENDBRANCH  12  16
ENDBRANCH  11  12
ENDBRANCH   1  11
TORSDOF 4
ENDMDL
MODEL 15
REMARK VINA RESULT:      -5.9      1.735      4.887
REMARK  4 active torsions:
REMARK  status: ('A' for Active; 'I' for Inactive)
REMARK    1  A    between atoms: N_1  and  C_2 
REMARK    2  A    between atoms: C_2  and  C_3 
REMARK    3  A    between atoms: C_2  and  C_5 
REMARK    4  A    between atoms: C_5  and  C_6 
ROOT
HETATM    1  C   LIG     1      17.867  37.886  21.260  1.00  0.00    -0.028 A 
HETATM    2  C   LIG     1      17.547  36.692  20.620  1.00  0.00     0.096 A 
HETATM    3  N   LIG     1      17.217  35.744  21.526  1.00  0.00    -0.365 N 
HETATM    4  C   LIG     1      17.320  36.331  22.732  1.00  0.00     0.042 A 
HETATM    5  C   LIG     1      17.068  35.753  23.976  1.00  0.00     0.030 A 
HETATM    6  C   LIG     1      17.226  36.559  25.118  1.00  0.00     0.002 A 
HETATM    7  C   LIG     1      17.623  37.910  24.992  1.00  0.00     0.001 A 
HETATM    8  C   LIG     1      17.869  38.465  23.724  1.00  0.00     0.014 A 
HETATM    9  C   LIG     1      17.712  37.639  22.610  1.00  0.00    -0.002 A 
HETATM   10  H   LIG     1      16.936  34.759  21.326  1.00  0.00     0.165 HD
ENDROOT
BRANCH   1  11
HETATM   11  C   LIG     1      18.283  39.170  20.600  1.00  0.00     0.076 C 
BRANCH  11  12
HETATM   12  C   LIG     1      18.929  38.917  19.225  1.00  0.00     0.222 C 
BRANCH  12  13
HETATM   13  N   LIG     1      18.432  39.906  18.261  1.00  0.00     0.083 N 
HETATM   14  H   LIG     1      17.439  39.684  18.021  1.00  0.00     0.313 HD
HETATM   15  H   LIG     1      18.997  39.859  17.381  1.00  0.00     0.313 HD
ENDBRANCH  12  13
BRANCH  12  16
HETATM   16  C   LIG     1      20.470  38.960  19.347  1.00  0.00     0.031 C 
HETATM   17  C   LIG     1      21.077  37.586  19.630  1.00  0.00     0.007 C 
ENDBRANCH  12  16
ENDBRANCH  11  12
ENDBRANCH   1  11
TORSDOF 4
ENDMDL
MODEL 16
REMARK VINA RESULT:      -5.8      7.017      8.653
REMARK  4 active torsions:
REMARK  status: ('A' for Active; 'I' for Inactive)
REMARK    1  A    between atoms: N_1  and  C_2 
REMARK    2  A    between atoms: C_2  and  C_3 
REMARK    3  A    between atoms: C_2  and  C_5 
REMARK    4  A    between atoms: C_5  and  C_6 
ROOT
HETATM    1  C   LIG     1      14.205  31.463  16.555  1.00  0.00    -0.028 A 
HETATM    2  C   LIG     1      13.468  30.406  16.028  1.00  0.00     0.096 A 
HETATM    3  N   LIG     1      13.876  30.127  14.769  1.00  0.00    -0.365 N 
HETATM    4  C   LIG     1      14.867  30.994  14.499  1.00  0.00     0.042 A 
HETATM    5  C   LIG     1      15.609  31.088  13.322  1.00  0.00     0.030 A 
HETATM    6  C   LIG     1      16.617  32.067  13.257  1.00  0.00     0.002 A 
HETATM    7  C   LIG     1      16.861  32.917  14.359  1.00  0.00     0.001 A 
HETATM    8  C   LIG     1      16.097  32.799  15.533  1.00  0.00     0.014 A 
HETATM    9  C   LIG     1      15.099  31.824  15.566  1.00  0.00    -0.002 A 
HETATM   10  H   LIG     1      13.497  29.385  14.140  1.00  0.00     0.165 HD
ENDROOT
BRANCH   1  11
HETATM   11  C   LIG     1      14.052  32.065  17.923  1.00  0.00     0.076 C 
BRANCH  11  12
HETATM   12  C   LIG     1      15.373  32.679  18.422  1.00  0.00     0.222 C 
BRANCH  12  13
HETATM   13  N   LIG     1      15.211  34.129  18.578  1.00  0.00     0.083 N 
HETATM   14  H   LIG     1      15.596  34.421  19.505  1.00  0.00     0.313 HD
HETATM   15  H   LIG     1      14.194  34.377  18.556  1.00  0.00     0.313 HD
ENDBRANCH  12  13
BRANCH  12  16
HETATM   16  C   LIG     1      15.804  32.006  19.746  1.00  0.00     0.031 C 
HETATM   17  C   LIG     1      14.796  30.965  20.233  1.00  0.00     0.007 C 
ENDBRANCH  12  16
ENDBRANCH  11  12
ENDBRANCH   1  11
TORSDOF 4
ENDMDL
MODEL 17
REMARK VINA RESULT:      -5.6      8.124     10.285
REMARK  4 active torsions:
REMARK  status: ('A' for Active; 'I' for Inactive)
REMARK    1  A    between atoms: N_1  and  C_2 
REMARK    2  A    between atoms: C_2  and  C_3 
REMARK    3  A    between atoms: C_2  and  C_5 
REMARK    4  A    between atoms: C_5  and  C_6 
ROOT
HETATM    1  C   LIG     1      14.465  31.535  16.317  1.00  0.00    -0.028 A 
HETATM    2  C   LIG     1      13.152  31.622  16.770  1.00  0.00     0.096 A 
HETATM    3  N   LIG     1      12.370  30.724  16.128  1.00  0.00    -0.365 N 
HETATM    4  C   LIG     1      13.179  30.068  15.278  1.00  0.00     0.042 A 
HETATM    5  C   LIG     1      12.829  29.039  14.405  1.00  0.00     0.030 A 
HETATM    6  C   LIG     1      13.845  28.479  13.608  1.00  0.00     0.002 A 
HETATM    7  C   LIG     1      15.173  28.953  13.704  1.00  0.00     0.001 A 
HETATM    8  C   LIG     1      15.496  29.992  14.595  1.00  0.00     0.014 A 
HETATM    9  C   LIG     1      14.467  30.533  15.366  1.00  0.00    -0.002 A 
HETATM   10  H   LIG     1      11.347  30.573  16.269  1.00  0.00     0.165 HD
ENDROOT
BRANCH   1  11
HETATM   11  C   LIG     1      15.629  32.361  16.785  1.00  0.00     0.076 C 
BRANCH  11  12
HETATM   12  C   LIG     1      15.479  33.837  16.371  1.00  0.00     0.222 C 
BRANCH  12  13
HETATM   13  N   LIG     1      15.225  34.656  17.562  1.00  0.00     0.083 N 
HETATM   14  H   LIG     1      14.935  34.036  18.351  1.00  0.00     0.313 HD
HETATM   15  H   LIG     1      14.444  35.326  17.371  1.00  0.00     0.313 HD
ENDBRANCH  12  13
BRANCH  12  16
HETATM   16  C   LIG     1      16.742  34.306  15.612  1.00  0.00     0.031 C 
HETATM   17  C   LIG     1      17.412  33.177  14.830  1.00  0.00     0.007 C 
ENDBRANCH  12  16
ENDBRANCH  11  12
ENDBRANCH   1  11
TORSDOF 4
ENDMDL
MODEL 18
REMARK VINA RESULT:      -5.5      9.279     11.563
REMARK  4 active torsions:
REMARK  status: ('A' for Active; 'I' for Inactive)
REMARK    1  A    between atoms: N_1  and  C_2 
REMARK    2  A    between atoms: C_2  and  C_3 
REMARK    3  A    between atoms: C_2  and  C_5 
REMARK    4  A    between atoms: C_5  and  C_6 
ROOT
HETATM    1  C   LIG     1      13.821  30.295  15.180  1.00  0.00    -0.028 A 
HETATM    2  C   LIG     1      12.858  30.380  16.180  1.00  0.00     0.096 A 
HETATM    3  N   LIG     1      13.106  31.437  16.986  1.00  0.00    -0.365 N 
HETATM    4  C   LIG     1      14.215  32.023  16.500  1.00  0.00     0.042 A 
HETATM    5  C   LIG     1      14.854  33.160  16.993  1.00  0.00     0.030 A 
HETATM    6  C   LIG     1      16.002  33.613  16.316  1.00  0.00     0.002 A 
HETATM    7  C   LIG     1      16.476  32.930  15.174  1.00  0.00     0.001 A 
HETATM    8  C   LIG     1      15.810  31.787  14.700  1.00  0.00     0.014 A 
HETATM    9  C   LIG     1      14.679  31.356  15.395  1.00  0.00    -0.002 A 
HETATM   10  H   LIG     1      12.546  31.737  17.815  1.00  0.00     0.165 HD
ENDROOT
BRANCH   1  11
HETATM   11  C   LIG     1      13.891  29.261  14.092  1.00  0.00     0.076 C 
BRANCH  11  12
HETATM   12  C   LIG     1      12.659  28.338  14.108  1.00  0.00     0.222 C 
BRANCH  12  13
HETATM   13  N   LIG     1      11.546  28.994  13.411  1.00  0.00     0.083 N 
HETATM   14  H   LIG     1      11.709  30.026  13.399  1.00  0.00     0.313 HD
HETATM   15  H   LIG     1      10.651  28.812  13.922  1.00  0.00     0.313 HD
ENDBRANCH  12  13
BRANCH  12  16
HETATM   16  C   LIG     1      13.009  26.973  13.469  1.00  0.00     0.031 C 
HETATM   17  C   LIG     1      11.856  26.392  12.653  1.00  0.00     0.007 C 
ENDBRANCH  12  16
ENDBRANCH  11  12
ENDBRANCH   1  11
TORSDOF 4
ENDMDL
