REMARK  4 active torsions:
REMARK  status: ('A' for Active; 'I' for Inactive)
REMARK    1  A    between atoms: N_1  and  C_2 
REMARK    2  A    between atoms: C_2  and  C_3 
REMARK    3  A    between atoms: C_2  and  C_5 
REMARK    4  A    between atoms: C_5  and  C_6 
ROOT
HETATM    1  C   LIG     1       0.533  -1.135   0.036  1.00  0.00    -0.028 A 
HETATM    2  C   LIG     1       1.075  -2.104  -0.803  1.00  0.00     0.096 A 
HETATM    3  N   LIG     1       2.386  -1.857  -1.025  1.00  0.00    -0.365 N 
HETATM    4  C   LIG     1       2.677  -0.744  -0.329  1.00  0.00     0.042 A 
HETATM    5  C   LIG     1       3.913  -0.104  -0.239  1.00  0.00     0.030 A 
HETATM    6  C   LIG     1       3.999   1.049   0.563  1.00  0.00     0.002 A 
HETATM    7  C   LIG     1       2.862   1.528   1.252  1.00  0.00     0.001 A 
HETATM    8  C   LIG     1       1.629   0.861   1.143  1.00  0.00     0.014 A 
HETATM    9  C   LIG     1       1.572  -0.275   0.334  1.00  0.00    -0.002 A 
HETATM   10  H   LIG     1       3.037  -2.421  -1.615  1.00  0.00     0.165 HD
ENDROOT
BRANCH   1  11
HETATM   11  C   LIG     1      -0.889  -1.062   0.516  1.00  0.00     0.076 C 
BRANCH  11  12
HETATM   12  C   LIG     1      -1.652   0.099  -0.148  1.00  0.00     0.222 C 
BRANCH  12  13
HETATM   13  N   LIG     1      -1.687  -0.106  -1.601  1.00  0.00     0.083 N 
HETATM   14  H   LIG     1      -1.981   0.782  -2.067  1.00  0.00     0.313 HD
HETATM   15  H   LIG     1      -2.389  -0.845  -1.838  1.00  0.00     0.313 HD
ENDBRANCH  12  13
BRANCH  12  16
HETATM   16  C   LIG     1      -3.074   0.210   0.449  1.00  0.00     0.031 C 
HETATM   17  C   LIG     1      -3.830   1.439  -0.055  1.00  0.00     0.007 C 
ENDBRANCH  12  16
ENDBRANCH  11  12
ENDBRANCH   1  11
TORSDOF 4
