REMARK  1 active torsions:
REMARK  status: ('A' for Active; 'I' for Inactive)
REMARK    1  A    between atoms: C_5  and  C_6 
ROOT
HETATM    1  C   LIG     1      -3.672   0.339  -0.574  1.00  0.00     0.052 C 
HETATM    2  C   LIG     1      -2.178   0.289  -0.416  1.00  0.00    -0.020 C 
HETATM    3  C   LIG     1      -1.382   0.188  -1.494  1.00  0.00    -0.016 C 
HETATM    4  C   LIG     1       0.117   0.200  -1.371  1.00  0.00     0.037 C 
HETATM    5  C   LIG     1       0.559  -0.514  -0.081  1.00  0.00     0.024 C 
HETATM    6  C   LIG     1      -0.106   0.131   1.153  1.00  0.00     0.093 C 
HETATM    7  C   LIG     1      -1.584   0.330   0.943  1.00  0.00     0.155 C 
HETATM    8  O   LIG     1      -2.318   0.555   1.943  1.00  0.00    -0.293 OA
ENDROOT
BRANCH   5   9
HETATM    9  C   LIG     1       2.075  -0.535   0.052  1.00  0.00    -0.088 C 
HETATM   10  C   LIG     1       2.874   0.742   0.138  1.00  0.00     0.043 C 
HETATM   11  C   LIG     1       2.732  -1.706   0.094  1.00  0.00     0.014 C 
ENDBRANCH   5   9
TORSDOF 1
