MODEL 1
REMARK VINA RESULT:      -7.2      0.000      0.000
REMARK  1 active torsions:
REMARK  status: ('A' for Active; 'I' for Inactive)
REMARK    1  A    between atoms: C_5  and  C_6 
ROOT
HETATM    1  C   LIG     1      18.324  36.394  26.938  1.00  0.00     0.052 C 
HETATM    2  C   LIG     1      17.688  36.275  25.582  1.00  0.00    -0.020 C 
HETATM    3  C   LIG     1      17.600  35.079  24.974  1.00  0.00    -0.016 C 
HETATM    4  C   LIG     1      16.912  34.919  23.646  1.00  0.00     0.037 C 
HETATM    5  C   LIG     1      17.144  36.159  22.764  1.00  0.00     0.024 C 
HETATM    6  C   LIG     1      16.669  37.437  23.486  1.00  0.00     0.093 C 
HETATM    7  C   LIG     1      17.175  37.491  24.904  1.00  0.00     0.155 C 
HETATM    8  O   LIG     1      17.139  38.588  25.524  1.00  0.00    -0.293 OA
ENDROOT
BRANCH   5   9
HETATM    9  C   LIG     1      16.477  36.008  21.405  1.00  0.00    -0.088 C 
HETATM   10  C   LIG     1      15.002  35.714  21.282  1.00  0.00     0.043 C 
HETATM   11  C   LIG     1      17.201  36.135  20.280  1.00  0.00     0.014 C 
ENDBRANCH   5   9
TORSDOF 1
ENDMDL
MODEL 2
REMARK VINA RESULT:      -6.8      3.162      5.156
REMARK  1 active torsions:
REMARK  status: ('A' for Active; 'I' for Inactive)
REMARK    1  A    between atoms: C_5  and  C_6 
ROOT
HETATM    1  C   LIG     1      20.439  38.820  19.103  1.00  0.00     0.052 C 
HETATM    2  C   LIG     1      19.330  38.576  20.088  1.00  0.00    -0.020 C 
HETATM    3  C   LIG     1      19.006  39.513  20.995  1.00  0.00    -0.016 C 
HETATM    4  C   LIG     1      17.859  39.323  21.950  1.00  0.00     0.037 C 
HETATM    5  C   LIG     1      17.744  37.846  22.368  1.00  0.00     0.024 C 
HETATM    6  C   LIG     1      17.593  36.939  21.129  1.00  0.00     0.093 C 
HETATM    7  C   LIG     1      18.605  37.282  20.067  1.00  0.00     0.155 C 
HETATM    8  O   LIG     1      18.819  36.457  19.138  1.00  0.00    -0.293 OA
ENDROOT
BRANCH   5   9
HETATM    9  C   LIG     1      16.605  37.634  23.354  1.00  0.00    -0.088 C 
HETATM   10  C   LIG     1      16.861  37.506  24.836  1.00  0.00     0.043 C 
HETATM   11  C   LIG     1      15.338  37.556  22.914  1.00  0.00     0.014 C 
ENDBRANCH   5   9
TORSDOF 1
ENDMDL
MODEL 3
REMARK VINA RESULT:      -6.5      3.053      4.421
REMARK  1 active torsions:
REMARK  status: ('A' for Active; 'I' for Inactive)
REMARK    1  A    between atoms: C_5  and  C_6 
ROOT
HETATM    1  C   LIG     1      16.241  37.419  23.805  1.00  0.00     0.052 C 
HETATM    2  C   LIG     1      17.178  37.703  22.664  1.00  0.00    -0.020 C 
HETATM    3  C   LIG     1      17.813  38.885  22.584  1.00  0.00    -0.016 C 
HETATM    4  C   LIG     1      18.804  39.174  21.490  1.00  0.00     0.037 C 
HETATM    5  C   LIG     1      18.372  38.498  20.176  1.00  0.00     0.024 C 
HETATM    6  C   LIG     1      18.193  36.979  20.379  1.00  0.00     0.093 C 
HETATM    7  C   LIG     1      17.383  36.678  21.612  1.00  0.00     0.155 C 
HETATM    8  O   LIG     1      16.892  35.525  21.754  1.00  0.00    -0.293 OA
ENDROOT
BRANCH   5   9
HETATM    9  C   LIG     1      19.349  38.797  19.048  1.00  0.00    -0.088 C 
HETATM   10  C   LIG     1      18.866  39.190  17.674  1.00  0.00     0.043 C 
HETATM   11  C   LIG     1      20.672  38.713  19.263  1.00  0.00     0.014 C 
ENDBRANCH   5   9
TORSDOF 1
ENDMDL
MODEL 4
REMARK VINA RESULT:      -6.2      2.517      4.406
REMARK  1 active torsions:
REMARK  status: ('A' for Active; 'I' for Inactive)
REMARK    1  A    between atoms: C_5  and  C_6 
ROOT
HETATM    1  C   LIG     1      20.023  39.313  19.132  1.00  0.00     0.052 C 
HETATM    2  C   LIG     1      19.215  38.336  19.940  1.00  0.00    -0.020 C 
HETATM    3  C   LIG     1      19.106  37.055  19.550  1.00  0.00    -0.016 C 
HETATM    4  C   LIG     1      18.357  36.042  20.372  1.00  0.00     0.037 C 
HETATM    5  C   LIG     1      17.140  36.693  21.054  1.00  0.00     0.024 C 
HETATM    6  C   LIG     1      17.579  37.895  21.917  1.00  0.00     0.093 C 
HETATM    7  C   LIG     1      18.518  38.801  21.164  1.00  0.00     0.155 C 
HETATM    8  O   LIG     1      18.724  39.965  21.602  1.00  0.00    -0.293 OA
ENDROOT
BRANCH   5   9
HETATM    9  C   LIG     1      16.353  35.679  21.873  1.00  0.00    -0.088 C 
HETATM   10  C   LIG     1      14.991  35.202  21.433  1.00  0.00     0.043 C 
HETATM   11  C   LIG     1      16.866  35.190  23.014  1.00  0.00     0.014 C 
ENDBRANCH   5   9
TORSDOF 1
ENDMDL
MODEL 5
REMARK VINA RESULT:      -6.1      1.505      2.340
REMARK  1 active torsions:
REMARK  status: ('A' for Active; 'I' for Inactive)
REMARK    1  A    between atoms: C_5  and  C_6 
ROOT
HETATM    1  C   LIG     1      17.516  37.507  26.349  1.00  0.00     0.052 C 
HETATM    2  C   LIG     1      17.495  37.088  24.905  1.00  0.00    -0.020 C 
HETATM    3  C   LIG     1      17.602  38.005  23.928  1.00  0.00    -0.016 C 
HETATM    4  C   LIG     1      17.648  37.610  22.478  1.00  0.00     0.037 C 
HETATM    5  C   LIG     1      16.747  36.388  22.222  1.00  0.00     0.024 C 
HETATM    6  C   LIG     1      17.155  35.211  23.133  1.00  0.00     0.093 C 
HETATM    7  C   LIG     1      17.332  35.654  24.561  1.00  0.00     0.155 C 
HETATM    8  O   LIG     1      17.362  34.783  25.472  1.00  0.00    -0.293 OA
ENDROOT
BRANCH   5   9
HETATM    9  C   LIG     1      16.759  35.985  20.754  1.00  0.00    -0.088 C 
HETATM   10  C   LIG     1      17.848  36.453  19.820  1.00  0.00     0.043 C 
HETATM   11  C   LIG     1      15.787  35.199  20.263  1.00  0.00     0.014 C 
ENDBRANCH   5   9
TORSDOF 1
ENDMDL
MODEL 6
REMARK VINA RESULT:      -6.0      2.030      4.486
REMARK  1 active torsions:
REMARK  status: ('A' for Active; 'I' for Inactive)
REMARK    1  A    between atoms: C_5  and  C_6 
ROOT
HETATM    1  C   LIG     1      17.889  38.904  20.911  1.00  0.00     0.052 C 
HETATM    2  C   LIG     1      17.700  38.175  22.212  1.00  0.00    -0.020 C 
HETATM    3  C   LIG     1      18.018  38.765  23.376  1.00  0.00    -0.016 C 
HETATM    4  C   LIG     1      17.780  38.084  24.696  1.00  0.00     0.037 C 
HETATM    5  C   LIG     1      18.011  36.568  24.571  1.00  0.00     0.024 C 
HETATM    6  C   LIG     1      17.115  35.970  23.467  1.00  0.00     0.093 C 
HETATM    7  C   LIG     1      17.177  36.786  22.203  1.00  0.00     0.155 C 
HETATM    8  O   LIG     1      16.757  36.280  21.127  1.00  0.00    -0.293 OA
ENDROOT
BRANCH   5   9
HETATM    9  C   LIG     1      17.799  35.861  25.902  1.00  0.00    -0.088 C 
HETATM   10  C   LIG     1      16.983  34.596  25.999  1.00  0.00     0.043 C 
HETATM   11  C   LIG     1      18.342  36.361  27.025  1.00  0.00     0.014 C 
ENDBRANCH   5   9
TORSDOF 1
ENDMDL
MODEL 7
REMARK VINA RESULT:      -6.0      1.786      4.368
REMARK  1 active torsions:
REMARK  status: ('A' for Active; 'I' for Inactive)
REMARK    1  A    between atoms: C_5  and  C_6 
ROOT
HETATM    1  C   LIG     1      16.331  35.544  19.983  1.00  0.00     0.052 C 
HETATM    2  C   LIG     1      16.812  35.843  21.375  1.00  0.00    -0.020 C 
HETATM    3  C   LIG     1      16.680  34.930  22.353  1.00  0.00    -0.016 C 
HETATM    4  C   LIG     1      17.209  35.176  23.739  1.00  0.00     0.037 C 
HETATM    5  C   LIG     1      17.063  36.661  24.117  1.00  0.00     0.024 C 
HETATM    6  C   LIG     1      17.773  37.559  23.082  1.00  0.00     0.093 C 
HETATM    7  C   LIG     1      17.417  37.165  21.673  1.00  0.00     0.155 C 
HETATM    8  O   LIG     1      17.661  37.970  20.734  1.00  0.00    -0.293 OA
ENDROOT
BRANCH   5   9
HETATM    9  C   LIG     1      17.570  36.929  25.527  1.00  0.00    -0.088 C 
HETATM   10  C   LIG     1      18.195  35.835  26.358  1.00  0.00     0.043 C 
HETATM   11  C   LIG     1      17.467  38.158  26.058  1.00  0.00     0.014 C 
ENDBRANCH   5   9
TORSDOF 1
ENDMDL
MODEL 8
REMARK VINA RESULT:      -5.8      7.863      9.988
REMARK  1 active torsions:
REMARK  status: ('A' for Active; 'I' for Inactive)
REMARK    1  A    between atoms: C_5  and  C_6 
ROOT
HETATM    1  C   LIG     1      15.205  34.051  17.946  1.00  0.00     0.052 C 
HETATM    2  C   LIG     1      14.877  32.980  16.944  1.00  0.00    -0.020 C 
HETATM    3  C   LIG     1      13.851  32.138  17.158  1.00  0.00    -0.016 C 
HETATM    4  C   LIG     1      13.461  31.098  16.144  1.00  0.00     0.037 C 
HETATM    5  C   LIG     1      14.707  30.546  15.429  1.00  0.00     0.024 C 
HETATM    6  C   LIG     1      15.509  31.689  14.773  1.00  0.00     0.093 C 
HETATM    7  C   LIG     1      15.709  32.840  15.723  1.00  0.00     0.155 C 
HETATM    8  O   LIG     1      16.586  33.706  15.458  1.00  0.00    -0.293 OA
ENDROOT
BRANCH   5   9
HETATM    9  C   LIG     1      14.337  29.473  14.414  1.00  0.00    -0.088 C 
HETATM   10  C   LIG     1      15.393  28.737  13.628  1.00  0.00     0.043 C 
HETATM   11  C   LIG     1      13.047  29.164  14.201  1.00  0.00     0.014 C 
ENDBRANCH   5   9
TORSDOF 1
ENDMDL
MODEL 9
REMARK VINA RESULT:      -5.6      9.199     11.328
REMARK  1 active torsions:
REMARK  status: ('A' for Active; 'I' for Inactive)
REMARK    1  A    between atoms: C_5  and  C_6 
ROOT
HETATM    1  C   LIG     1      15.589  33.529  16.232  1.00  0.00     0.052 C 
HETATM    2  C   LIG     1      15.168  32.268  15.531  1.00  0.00    -0.020 C 
HETATM    3  C   LIG     1      14.307  31.418  16.116  1.00  0.00    -0.016 C 
HETATM    4  C   LIG     1      13.820  30.181  15.412  1.00  0.00     0.037 C 
HETATM    5  C   LIG     1      14.933  29.585  14.533  1.00  0.00     0.024 C 
HETATM    6  C   LIG     1      15.450  30.633  13.524  1.00  0.00     0.093 C 
HETATM    7  C   LIG     1      15.727  31.953  14.193  1.00  0.00     0.155 C 
HETATM    8  O   LIG     1      16.430  32.808  13.589  1.00  0.00    -0.293 OA
ENDROOT
BRANCH   5   9
HETATM    9  C   LIG     1      14.469  28.318  13.829  1.00  0.00    -0.088 C 
HETATM   10  C   LIG     1      13.016  27.912  13.819  1.00  0.00     0.043 C 
HETATM   11  C   LIG     1      15.358  27.531  13.200  1.00  0.00     0.014 C 
ENDBRANCH   5   9
TORSDOF 1
ENDMDL
MODEL 10
REMARK VINA RESULT:      -5.6      8.414     10.613
REMARK  1 active torsions:
REMARK  status: ('A' for Active; 'I' for Inactive)
REMARK    1  A    between atoms: C_5  and  C_6 
ROOT
HETATM    1  C   LIG     1      15.201  33.916  16.787  1.00  0.00     0.052 C 
HETATM    2  C   LIG     1      15.037  32.549  16.185  1.00  0.00    -0.020 C 
HETATM    3  C   LIG     1      15.775  32.177  15.126  1.00  0.00    -0.016 C 
HETATM    4  C   LIG     1      15.678  30.794  14.543  1.00  0.00     0.037 C 
HETATM    5  C   LIG     1      14.233  30.271  14.631  1.00  0.00     0.024 C 
HETATM    6  C   LIG     1      13.733  30.297  16.091  1.00  0.00     0.093 C 
HETATM    7  C   LIG     1      14.035  31.614  16.755  1.00  0.00     0.155 C 
HETATM    8  O   LIG     1      13.436  31.910  17.824  1.00  0.00    -0.293 OA
ENDROOT
BRANCH   5   9
HETATM    9  C   LIG     1      14.106  28.881  14.025  1.00  0.00    -0.088 C 
HETATM   10  C   LIG     1      15.321  28.100  13.588  1.00  0.00     0.043 C 
HETATM   11  C   LIG     1      12.895  28.323  13.866  1.00  0.00     0.014 C 
ENDBRANCH   5   9
TORSDOF 1
ENDMDL
MODEL 11
REMARK VINA RESULT:      -5.5      9.423     11.886
REMARK  1 active torsions:
REMARK  status: ('A' for Active; 'I' for Inactive)
REMARK    1  A    between atoms: C_5  and  C_6 
ROOT
HETATM    1  C   LIG     1      15.315  27.509  13.060  1.00  0.00     0.052 C 
HETATM    2  C   LIG     1      14.857  28.736  13.798  1.00  0.00    -0.020 C 
HETATM    3  C   LIG     1      15.707  29.750  14.028  1.00  0.00    -0.016 C 
HETATM    4  C   LIG     1      15.260  31.015  14.707  1.00  0.00     0.037 C 
HETATM    5  C   LIG     1      14.200  30.707  15.780  1.00  0.00     0.024 C 
HETATM    6  C   LIG     1      13.004  29.954  15.163  1.00  0.00     0.093 C 
HETATM    7  C   LIG     1      13.460  28.813  14.292  1.00  0.00     0.155 C 
HETATM    8  O   LIG     1      12.628  27.924  13.965  1.00  0.00    -0.293 OA
ENDROOT
BRANCH   5   9
HETATM    9  C   LIG     1      13.751  31.972  16.498  1.00  0.00    -0.088 C 
HETATM   10  C   LIG     1      14.741  33.028  16.925  1.00  0.00     0.043 C 
HETATM   11  C   LIG     1      12.449  32.169  16.765  1.00  0.00     0.014 C 
ENDBRANCH   5   9
TORSDOF 1
ENDMDL
MODEL 12
REMARK VINA RESULT:      -5.4      8.024     10.530
REMARK  1 active torsions:
REMARK  status: ('A' for Active; 'I' for Inactive)
REMARK    1  A    between atoms: C_5  and  C_6 
ROOT
HETATM    1  C   LIG     1      13.120  28.909  13.850  1.00  0.00     0.052 C 
HETATM    2  C   LIG     1      13.692  29.876  14.848  1.00  0.00    -0.020 C 
HETATM    3  C   LIG     1      13.032  30.152  15.986  1.00  0.00    -0.016 C 
HETATM    4  C   LIG     1      13.610  31.067  17.031  1.00  0.00     0.037 C 
HETATM    5  C   LIG     1      14.412  32.203  16.371  1.00  0.00     0.024 C 
HETATM    6  C   LIG     1      15.518  31.630  15.459  1.00  0.00     0.093 C 
HETATM    7  C   LIG     1      14.985  30.545  14.561  1.00  0.00     0.155 C 
HETATM    8  O   LIG     1      15.666  30.192  13.560  1.00  0.00    -0.293 OA
ENDROOT
BRANCH   5   9
HETATM    9  C   LIG     1      14.987  33.155  17.410  1.00  0.00    -0.088 C 
HETATM   10  C   LIG     1      15.287  32.696  18.816  1.00  0.00     0.043 C 
HETATM   11  C   LIG     1      15.237  34.434  17.087  1.00  0.00     0.014 C 
ENDBRANCH   5   9
TORSDOF 1
ENDMDL
MODEL 13
REMARK VINA RESULT:      -5.4      9.103     11.587
REMARK  1 active torsions:
REMARK  status: ('A' for Active; 'I' for Inactive)
REMARK    1  A    between atoms: C_5  and  C_6 
ROOT
HETATM    1  C   LIG     1      12.615  28.086  13.758  1.00  0.00     0.052 C 
HETATM    2  C   LIG     1      13.492  29.147  14.360  1.00  0.00    -0.020 C 
HETATM    3  C   LIG     1      12.981  30.047  15.218  1.00  0.00    -0.016 C 
HETATM    4  C   LIG     1      13.848  31.080  15.885  1.00  0.00     0.037 C 
HETATM    5  C   LIG     1      14.962  31.547  14.932  1.00  0.00     0.024 C 
HETATM    6  C   LIG     1      15.801  30.347  14.446  1.00  0.00     0.093 C 
HETATM    7  C   LIG     1      14.926  29.212  13.984  1.00  0.00     0.155 C 
HETATM    8  O   LIG     1      15.434  28.295  13.284  1.00  0.00    -0.293 OA
ENDROOT
BRANCH   5   9
HETATM    9  C   LIG     1      15.837  32.612  15.578  1.00  0.00    -0.088 C 
HETATM   10  C   LIG     1      15.319  33.481  16.697  1.00  0.00     0.043 C 
HETATM   11  C   LIG     1      17.098  32.796  15.155  1.00  0.00     0.014 C 
ENDBRANCH   5   9
TORSDOF 1
ENDMDL
MODEL 14
REMARK VINA RESULT:      -5.4      7.312      9.914
REMARK  1 active torsions:
REMARK  status: ('A' for Active; 'I' for Inactive)
REMARK    1  A    between atoms: C_5  and  C_6 
ROOT
HETATM    1  C   LIG     1      15.265  30.065  13.415  1.00  0.00     0.052 C 
HETATM    2  C   LIG     1      15.160  30.956  14.621  1.00  0.00    -0.020 C 
HETATM    3  C   LIG     1      16.095  31.892  14.860  1.00  0.00    -0.016 C 
HETATM    4  C   LIG     1      15.982  32.839  16.023  1.00  0.00     0.037 C 
HETATM    5  C   LIG     1      15.343  32.135  17.233  1.00  0.00     0.024 C 
HETATM    6  C   LIG     1      13.965  31.550  16.857  1.00  0.00     0.093 C 
HETATM    7  C   LIG     1      14.026  30.783  15.562  1.00  0.00     0.155 C 
HETATM    8  O   LIG     1      13.083  29.999  15.273  1.00  0.00    -0.293 OA
ENDROOT
BRANCH   5   9
HETATM    9  C   LIG     1      15.241  33.070  18.431  1.00  0.00    -0.088 C 
HETATM   10  C   LIG     1      15.234  32.539  19.843  1.00  0.00     0.043 C 
HETATM   11  C   LIG     1      15.155  34.397  18.245  1.00  0.00     0.014 C 
ENDBRANCH   5   9
TORSDOF 1
ENDMDL
MODEL 15
REMARK VINA RESULT:      -5.4      8.248     10.039
REMARK  1 active torsions:
REMARK  status: ('A' for Active; 'I' for Inactive)
REMARK    1  A    between atoms: C_5  and  C_6 
ROOT
HETATM    1  C   LIG     1      17.734  33.729  12.810  1.00  0.00     0.052 C 
HETATM    2  C   LIG     1      16.897  33.056  13.862  1.00  0.00    -0.020 C 
HETATM    3  C   LIG     1      16.357  31.847  13.633  1.00  0.00    -0.016 C 
HETATM    4  C   LIG     1      15.570  31.123  14.690  1.00  0.00     0.037 C 
HETATM    5  C   LIG     1      14.765  32.120  15.543  1.00  0.00     0.024 C 
HETATM    6  C   LIG     1      15.699  33.176  16.171  1.00  0.00     0.093 C 
HETATM    7  C   LIG     1      16.651  33.746  15.153  1.00  0.00     0.155 C 
HETATM    8  O   LIG     1      17.261  34.817  15.419  1.00  0.00    -0.293 OA
ENDROOT
BRANCH   5   9
HETATM    9  C   LIG     1      13.941  31.406  16.605  1.00  0.00    -0.088 C 
HETATM   10  C   LIG     1      14.229  31.584  18.075  1.00  0.00     0.043 C 
HETATM   11  C   LIG     1      12.932  30.596  16.243  1.00  0.00     0.014 C 
ENDBRANCH   5   9
TORSDOF 1
ENDMDL
MODEL 16
REMARK VINA RESULT:      -5.3      3.150      3.902
REMARK  1 active torsions:
REMARK  status: ('A' for Active; 'I' for Inactive)
REMARK    1  A    between atoms: C_5  and  C_6 
ROOT
HETATM    1  C   LIG     1      18.907  39.231  22.308  1.00  0.00     0.052 C 
HETATM    2  C   LIG     1      17.988  38.172  21.767  1.00  0.00    -0.020 C 
HETATM    3  C   LIG     1      16.888  37.810  22.449  1.00  0.00    -0.016 C 
HETATM    4  C   LIG     1      15.917  36.801  21.902  1.00  0.00     0.037 C 
HETATM    5  C   LIG     1      16.660  35.712  21.107  1.00  0.00     0.024 C 
HETATM    6  C   LIG     1      17.503  36.343  19.978  1.00  0.00     0.093 C 
HETATM    7  C   LIG     1      18.313  37.509  20.480  1.00  0.00     0.155 C 
HETATM    8  O   LIG     1      19.269  37.936  19.777  1.00  0.00    -0.293 OA
ENDROOT
BRANCH   5   9
HETATM    9  C   LIG     1      15.698  34.665  20.564  1.00  0.00    -0.088 C 
HETATM   10  C   LIG     1      15.596  34.384  19.085  1.00  0.00     0.043 C 
HETATM   11  C   LIG     1      14.916  33.968  21.404  1.00  0.00     0.014 C 
ENDBRANCH   5   9
TORSDOF 1
ENDMDL
MODEL 17
REMARK VINA RESULT:      -5.2      2.128      2.985
REMARK  1 active torsions:
REMARK  status: ('A' for Active; 'I' for Inactive)
REMARK    1  A    between atoms: C_5  and  C_6 
ROOT
HETATM    1  C   LIG     1      18.372  35.300  27.045  1.00  0.00     0.052 C 
HETATM    2  C   LIG     1      18.150  36.144  25.821  1.00  0.00    -0.020 C 
HETATM    3  C   LIG     1      18.683  37.375  25.737  1.00  0.00    -0.016 C 
HETATM    4  C   LIG     1      18.531  38.216  24.499  1.00  0.00     0.037 C 
HETATM    5  C   LIG     1      17.154  37.982  23.852  1.00  0.00     0.024 C 
HETATM    6  C   LIG     1      16.948  36.486  23.537  1.00  0.00     0.093 C 
HETATM    7  C   LIG     1      17.318  35.618  24.711  1.00  0.00     0.155 C 
HETATM    8  O   LIG     1      16.928  34.420  24.731  1.00  0.00    -0.293 OA
ENDROOT
BRANCH   5   9
HETATM    9  C   LIG     1      16.969  38.843  22.611  1.00  0.00    -0.088 C 
HETATM   10  C   LIG     1      18.149  39.305  21.792  1.00  0.00     0.043 C 
HETATM   11  C   LIG     1      15.736  39.208  22.221  1.00  0.00     0.014 C 
ENDBRANCH   5   9
TORSDOF 1
ENDMDL
MODEL 18
REMARK VINA RESULT:      -5.2      8.956     10.765
REMARK  1 active torsions:
REMARK  status: ('A' for Active; 'I' for Inactive)
REMARK    1  A    between atoms: C_5  and  C_6 
ROOT
HETATM    1  C   LIG     1      13.695  29.074  14.529  1.00  0.00     0.052 C 
HETATM    2  C   LIG     1      14.528  30.325  14.488  1.00  0.00    -0.020 C 
HETATM    3  C   LIG     1      15.272  30.612  13.406  1.00  0.00    -0.016 C 
HETATM    4  C   LIG     1      16.065  31.886  13.310  1.00  0.00     0.037 C 
HETATM    5  C   LIG     1      16.620  32.282  14.690  1.00  0.00     0.024 C 
HETATM    6  C   LIG     1      15.478  32.413  15.719  1.00  0.00     0.093 C 
HETATM    7  C   LIG     1      14.543  31.234  15.660  1.00  0.00     0.155 C 
HETATM    8  O   LIG     1      13.750  31.035  16.619  1.00  0.00    -0.293 OA
ENDROOT
BRANCH   5   9
HETATM    9  C   LIG     1      17.448  33.557  14.612  1.00  0.00    -0.088 C 
HETATM   10  C   LIG     1      18.583  33.698  13.628  1.00  0.00     0.043 C 
HETATM   11  C   LIG     1      17.177  34.587  15.430  1.00  0.00     0.014 C 
ENDBRANCH   5   9
TORSDOF 1
ENDMDL
MODEL 19
REMARK VINA RESULT:      -4.8      8.599     10.045
REMARK  1 active torsions:
REMARK  status: ('A' for Active; 'I' for Inactive)
REMARK    1  A    between atoms: C_5  and  C_6 
ROOT
HETATM    1  C   LIG     1      14.225  31.075  16.537  1.00  0.00     0.052 C 
HETATM    2  C   LIG     1      15.117  31.859  15.616  1.00  0.00    -0.020 C 
HETATM    3  C   LIG     1      15.389  31.405  14.381  1.00  0.00    -0.016 C 
HETATM    4  C   LIG     1      16.226  32.199  13.416  1.00  0.00     0.037 C 
HETATM    5  C   LIG     1      17.335  32.961  14.163  1.00  0.00     0.024 C 
HETATM    6  C   LIG     1      16.731  33.870  15.254  1.00  0.00     0.093 C 
HETATM    7  C   LIG     1      15.716  33.133  16.087  1.00  0.00     0.155 C 
HETATM    8  O   LIG     1      15.359  33.624  17.192  1.00  0.00    -0.293 OA
ENDROOT
BRANCH   5   9
HETATM    9  C   LIG     1      18.210  33.753  13.202  1.00  0.00    -0.088 C 
HETATM   10  C   LIG     1      17.611  34.706  12.197  1.00  0.00     0.043 C 
HETATM   11  C   LIG     1      19.546  33.612  13.234  1.00  0.00     0.014 C 
ENDBRANCH   5   9
TORSDOF 1
ENDMDL
