MODEL 1
REMARK VINA RESULT:      -6.8      0.000      0.000
REMARK  6 active torsions:
REMARK  status: ('A' for Active; 'I' for Inactive)
REMARK    1  A    between atoms: O_1  and  C_2 
REMARK    2  A    between atoms: C_3  and  O_4 
REMARK    3  A    between atoms: O_4  and  C_5 
REMARK    4  A    between atoms: C_10  and  C_11 
REMARK    5  A    between atoms: C_11  and  C_12 
REMARK    6  A    between atoms: C_15  and  O_16 
ROOT
HETATM    1  C   LIG     1      17.468  33.407  14.848  1.00  0.00     0.177 C 
HETATM    2  C   LIG     1      16.093  32.969  15.295  1.00  0.00     0.195 C 
HETATM    3  C   LIG     1      17.379  33.373  13.326  1.00  0.00     0.304 C 
HETATM    4  N   LIG     1      16.269  32.491  12.950  1.00  0.00     0.093 N 
HETATM    5  C   LIG     1      15.650  31.995  14.193  1.00  0.00     0.256 C 
HETATM    6  H   LIG     1      16.642  31.710  12.361  1.00  0.00     0.316 HD
ENDROOT
BRANCH   5   7
HETATM    7  C   LIG     1      16.054  30.521  14.485  1.00  0.00     0.076 C 
BRANCH   7   8
HETATM    8  C   LIG     1      15.001  29.463  14.200  1.00  0.00    -0.056 A 
HETATM    9  C   LIG     1      15.298  28.184  13.685  1.00  0.00     0.010 A 
HETATM   10  C   LIG     1      14.274  27.266  13.434  1.00  0.00     0.037 A 
HETATM   11  C   LIG     1      12.939  27.599  13.681  1.00  0.00     0.068 A 
HETATM   12  C   LIG     1      12.636  28.876  14.185  1.00  0.00     0.037 A 
HETATM   13  C   LIG     1      13.657  29.795  14.437  1.00  0.00     0.010 A 
BRANCH  11  14
HETATM   14  O   LIG     1      11.950  26.642  13.412  1.00  0.00    -0.356 OA
HETATM   15  C   LIG     1      11.814  25.952  12.173  1.00  0.00     0.210 C 
ENDBRANCH  11  14
ENDBRANCH   7   8
ENDBRANCH   5   7
BRANCH   2  16
HETATM   16  O   LIG     1      16.140  32.389  16.600  1.00  0.00    -0.311 OA
BRANCH  16  17
HETATM   17  C   LIG     1      15.161  32.619  17.574  1.00  0.00     0.255 C 
HETATM   18  C   LIG     1      13.844  31.930  17.467  1.00  0.00     0.126 C 
HETATM   19  O   LIG     1      15.396  33.370  18.559  1.00  0.00    -0.266 OA
ENDBRANCH  16  17
ENDBRANCH   2  16
BRANCH   1  20
HETATM   20  O   LIG     1      17.756  34.696  15.320  1.00  0.00    -0.391 OA
HETATM   21  H   LIG     1      17.138  34.860  16.079  1.00  0.00     0.210 HD
ENDBRANCH   1  20
TORSDOF 6
ENDMDL
MODEL 2
REMARK VINA RESULT:      -6.7      9.593     11.628
REMARK  6 active torsions:
REMARK  status: ('A' for Active; 'I' for Inactive)
REMARK    1  A    between atoms: O_1  and  C_2 
REMARK    2  A    between atoms: C_3  and  O_4 
REMARK    3  A    between atoms: O_4  and  C_5 
REMARK    4  A    between atoms: C_10  and  C_11 
REMARK    5  A    between atoms: C_11  and  C_12 
REMARK    6  A    between atoms: C_15  and  O_16 
ROOT
HETATM    1  C   LIG     1      17.417  38.241  24.506  1.00  0.00     0.177 C 
HETATM    2  C   LIG     1      16.777  36.890  24.288  1.00  0.00     0.195 C 
HETATM    3  C   LIG     1      16.722  39.137  23.485  1.00  0.00     0.304 C 
HETATM    4  N   LIG     1      16.154  38.283  22.436  1.00  0.00     0.093 N 
HETATM    5  C   LIG     1      16.454  36.883  22.786  1.00  0.00     0.256 C 
HETATM    6  H   LIG     1      16.572  38.555  21.516  1.00  0.00     0.316 HD
ENDROOT
BRANCH   5   7
HETATM    7  C   LIG     1      17.612  36.312  21.917  1.00  0.00     0.076 C 
BRANCH   7   8
HETATM    8  C   LIG     1      18.152  37.224  20.828  1.00  0.00    -0.056 A 
HETATM    9  C   LIG     1      18.614  38.536  21.065  1.00  0.00     0.010 A 
HETATM   10  C   LIG     1      19.084  39.323  20.011  1.00  0.00     0.037 A 
HETATM   11  C   LIG     1      19.098  38.831  18.702  1.00  0.00     0.068 A 
HETATM   12  C   LIG     1      18.630  37.528  18.458  1.00  0.00     0.037 A 
HETATM   13  C   LIG     1      18.160  36.739  19.510  1.00  0.00     0.010 A 
BRANCH  11  14
HETATM   14  O   LIG     1      19.579  39.662  17.681  1.00  0.00    -0.356 OA
HETATM   15  C   LIG     1      18.870  39.957  16.481  1.00  0.00     0.210 C 
ENDBRANCH  11  14
ENDBRANCH   7   8
ENDBRANCH   5   7
BRANCH   2  16
HETATM   16  O   LIG     1      17.652  35.838  24.701  1.00  0.00    -0.311 OA
BRANCH  16  17
HETATM   17  C   LIG     1      17.670  35.327  26.003  1.00  0.00     0.255 C 
HETATM   18  C   LIG     1      18.607  35.909  27.006  1.00  0.00     0.126 C 
HETATM   19  O   LIG     1      16.879  34.408  26.347  1.00  0.00    -0.266 OA
ENDBRANCH  16  17
ENDBRANCH   2  16
BRANCH   1  20
HETATM   20  O   LIG     1      17.200  38.688  25.817  1.00  0.00    -0.391 OA
HETATM   21  H   LIG     1      16.217  38.685  25.954  1.00  0.00     0.210 HD
ENDBRANCH   1  20
TORSDOF 6
ENDMDL
MODEL 3
REMARK VINA RESULT:      -6.4      6.020      8.719
REMARK  6 active torsions:
REMARK  status: ('A' for Active; 'I' for Inactive)
REMARK    1  A    between atoms: O_1  and  C_2 
REMARK    2  A    between atoms: C_3  and  O_4 
REMARK    3  A    between atoms: O_4  and  C_5 
REMARK    4  A    between atoms: C_10  and  C_11 
REMARK    5  A    between atoms: C_11  and  C_12 
REMARK    6  A    between atoms: C_15  and  O_16 
ROOT
HETATM    1  C   LIG     1      17.272  37.386  24.151  1.00  0.00     0.177 C 
HETATM    2  C   LIG     1      17.784  36.975  22.790  1.00  0.00     0.195 C 
HETATM    3  C   LIG     1      17.133  36.064  24.898  1.00  0.00     0.304 C 
HETATM    4  N   LIG     1      17.046  34.984  23.908  1.00  0.00     0.093 N 
HETATM    5  C   LIG     1      17.151  35.593  22.570  1.00  0.00     0.256 C 
HETATM    6  H   LIG     1      16.139  34.479  24.039  1.00  0.00     0.316 HD
ENDROOT
BRANCH   5   7
HETATM    7  C   LIG     1      15.765  35.665  21.865  1.00  0.00     0.076 C 
BRANCH   7   8
HETATM    8  C   LIG     1      15.548  34.708  20.704  1.00  0.00    -0.056 A 
HETATM    9  C   LIG     1      15.258  33.337  20.865  1.00  0.00     0.010 A 
HETATM   10  C   LIG     1      15.085  32.513  19.749  1.00  0.00     0.037 A 
HETATM   11  C   LIG     1      15.205  33.029  18.455  1.00  0.00     0.068 A 
HETATM   12  C   LIG     1      15.504  34.393  18.288  1.00  0.00     0.037 A 
HETATM   13  C   LIG     1      15.676  35.218  19.402  1.00  0.00     0.010 A 
BRANCH  11  14
HETATM   14  O   LIG     1      15.022  32.160  17.370  1.00  0.00    -0.356 OA
HETATM   15  C   LIG     1      13.753  31.722  16.894  1.00  0.00     0.210 C 
ENDBRANCH  11  14
ENDBRANCH   7   8
ENDBRANCH   5   7
BRANCH   2  16
HETATM   16  O   LIG     1      17.434  37.942  21.798  1.00  0.00    -0.311 OA
BRANCH  16  17
HETATM   17  C   LIG     1      18.325  38.383  20.813  1.00  0.00     0.255 C 
HETATM   18  C   LIG     1      18.829  37.419  19.794  1.00  0.00     0.126 C 
HETATM   19  O   LIG     1      18.675  39.593  20.756  1.00  0.00    -0.266 OA
ENDBRANCH  16  17
ENDBRANCH   2  16
BRANCH   1  20
HETATM   20  O   LIG     1      18.181  38.245  24.785  1.00  0.00    -0.391 OA
HETATM   21  H   LIG     1      18.038  38.132  25.760  1.00  0.00     0.210 HD
ENDBRANCH   1  20
TORSDOF 6
ENDMDL
MODEL 4
REMARK VINA RESULT:      -6.4      5.816     10.266
REMARK  6 active torsions:
REMARK  status: ('A' for Active; 'I' for Inactive)
REMARK    1  A    between atoms: O_1  and  C_2 
REMARK    2  A    between atoms: C_3  and  O_4 
REMARK    3  A    between atoms: O_4  and  C_5 
REMARK    4  A    between atoms: C_10  and  C_11 
REMARK    5  A    between atoms: C_11  and  C_12 
REMARK    6  A    between atoms: C_15  and  O_16 
ROOT
HETATM    1  C   LIG     1      15.030  32.560  20.037  1.00  0.00     0.177 C 
HETATM    2  C   LIG     1      14.922  33.822  19.213  1.00  0.00     0.195 C 
HETATM    3  C   LIG     1      14.373  32.939  21.361  1.00  0.00     0.304 C 
HETATM    4  N   LIG     1      14.386  34.401  21.479  1.00  0.00     0.093 N 
HETATM    5  C   LIG     1      15.009  34.944  20.258  1.00  0.00     0.256 C 
HETATM    6  H   LIG     1      14.918  34.666  22.340  1.00  0.00     0.316 HD
ENDROOT
BRANCH   5   7
HETATM    7  C   LIG     1      16.469  35.416  20.523  1.00  0.00     0.076 C 
BRANCH   7   8
HETATM    8  C   LIG     1      16.787  35.865  21.940  1.00  0.00    -0.056 A 
HETATM    9  C   LIG     1      17.069  34.975  22.996  1.00  0.00     0.010 A 
HETATM   10  C   LIG     1      17.339  35.461  24.279  1.00  0.00     0.037 A 
HETATM   11  C   LIG     1      17.324  36.835  24.541  1.00  0.00     0.068 A 
HETATM   12  C   LIG     1      17.033  37.726  23.493  1.00  0.00     0.037 A 
HETATM   13  C   LIG     1      16.765  37.243  22.210  1.00  0.00     0.010 A 
BRANCH  11  14
HETATM   14  O   LIG     1      17.601  37.269  25.845  1.00  0.00    -0.356 OA
HETATM   15  C   LIG     1      18.313  36.505  26.814  1.00  0.00     0.210 C 
ENDBRANCH  11  14
ENDBRANCH   7   8
ENDBRANCH   5   7
BRANCH   2  16
HETATM   16  O   LIG     1      15.946  33.871  18.217  1.00  0.00    -0.311 OA
BRANCH  16  17
HETATM   17  C   LIG     1      15.681  33.814  16.844  1.00  0.00     0.255 C 
HETATM   18  C   LIG     1      14.911  32.663  16.294  1.00  0.00     0.126 C 
HETATM   19  O   LIG     1      16.053  34.742  16.077  1.00  0.00    -0.266 OA
ENDBRANCH  16  17
ENDBRANCH   2  16
BRANCH   1  20
HETATM   20  O   LIG     1      14.359  31.499  19.412  1.00  0.00    -0.391 OA
HETATM   21  H   LIG     1      13.554  31.892  18.984  1.00  0.00     0.210 HD
ENDBRANCH   1  20
TORSDOF 6
ENDMDL
MODEL 5
REMARK VINA RESULT:      -6.4      3.279      7.746
REMARK  6 active torsions:
REMARK  status: ('A' for Active; 'I' for Inactive)
REMARK    1  A    between atoms: O_1  and  C_2 
REMARK    2  A    between atoms: C_3  and  O_4 
REMARK    3  A    between atoms: O_4  and  C_5 
REMARK    4  A    between atoms: C_10  and  C_11 
REMARK    5  A    between atoms: C_11  and  C_12 
REMARK    6  A    between atoms: C_15  and  O_16 
ROOT
HETATM    1  C   LIG     1      14.626  30.919  15.557  1.00  0.00     0.177 C 
HETATM    2  C   LIG     1      14.919  32.354  15.928  1.00  0.00     0.195 C 
HETATM    3  C   LIG     1      13.218  30.689  16.097  1.00  0.00     0.304 C 
HETATM    4  N   LIG     1      12.956  31.690  17.137  1.00  0.00     0.093 N 
HETATM    5  C   LIG     1      14.147  32.551  17.241  1.00  0.00     0.256 C 
HETATM    6  H   LIG     1      12.748  31.197  18.036  1.00  0.00     0.316 HD
ENDROOT
BRANCH   5   7
HETATM    7  C   LIG     1      14.993  32.205  18.502  1.00  0.00     0.076 C 
BRANCH   7   8
HETATM    8  C   LIG     1      15.241  33.342  19.480  1.00  0.00    -0.056 A 
HETATM    9  C   LIG     1      14.939  33.268  20.856  1.00  0.00     0.010 A 
HETATM   10  C   LIG     1      15.182  34.360  21.694  1.00  0.00     0.037 A 
HETATM   11  C   LIG     1      15.720  35.546  21.185  1.00  0.00     0.068 A 
HETATM   12  C   LIG     1      16.014  35.629  19.813  1.00  0.00     0.037 A 
HETATM   13  C   LIG     1      15.773  34.539  18.973  1.00  0.00     0.010 A 
BRANCH  11  14
HETATM   14  O   LIG     1      15.943  36.611  22.069  1.00  0.00    -0.356 OA
HETATM   15  C   LIG     1      16.882  36.585  23.140  1.00  0.00     0.210 C 
ENDBRANCH  11  14
ENDBRANCH   7   8
ENDBRANCH   5   7
BRANCH   2  16
HETATM   16  O   LIG     1      16.326  32.576  16.040  1.00  0.00    -0.311 OA
BRANCH  16  17
HETATM   17  C   LIG     1      16.996  33.598  15.358  1.00  0.00     0.255 C 
HETATM   18  C   LIG     1      17.920  33.251  14.241  1.00  0.00     0.126 C 
HETATM   19  O   LIG     1      16.796  34.808  15.651  1.00  0.00    -0.266 OA
ENDBRANCH  16  17
ENDBRANCH   2  16
BRANCH   1  20
HETATM   20  O   LIG     1      14.680  30.744  14.167  1.00  0.00    -0.391 OA
HETATM   21  H   LIG     1      14.123  31.465  13.773  1.00  0.00     0.210 HD
ENDBRANCH   1  20
TORSDOF 6
ENDMDL
MODEL 6
REMARK VINA RESULT:      -6.3      5.326      7.957
REMARK  6 active torsions:
REMARK  status: ('A' for Active; 'I' for Inactive)
REMARK    1  A    between atoms: O_1  and  C_2 
REMARK    2  A    between atoms: C_3  and  O_4 
REMARK    3  A    between atoms: O_4  and  C_5 
REMARK    4  A    between atoms: C_10  and  C_11 
REMARK    5  A    between atoms: C_11  and  C_12 
REMARK    6  A    between atoms: C_15  and  O_16 
ROOT
HETATM    1  C   LIG     1      17.359  37.501  22.921  1.00  0.00     0.177 C 
HETATM    2  C   LIG     1      17.789  36.635  21.759  1.00  0.00     0.195 C 
HETATM    3  C   LIG     1      17.081  36.497  24.034  1.00  0.00     0.304 C 
HETATM    4  N   LIG     1      16.844  35.185  23.421  1.00  0.00     0.093 N 
HETATM    5  C   LIG     1      16.991  35.339  21.963  1.00  0.00     0.256 C 
HETATM    6  H   LIG     1      15.886  34.856  23.685  1.00  0.00     0.316 HD
ENDROOT
BRANCH   5   7
HETATM    7  C   LIG     1      15.608  35.357  21.247  1.00  0.00     0.076 C 
BRANCH   7   8
HETATM    8  C   LIG     1      15.453  34.430  20.053  1.00  0.00    -0.056 A 
HETATM    9  C   LIG     1      15.367  34.881  18.720  1.00  0.00     0.010 A 
HETATM   10  C   LIG     1      15.210  33.969  17.672  1.00  0.00     0.037 A 
HETATM   11  C   LIG     1      15.127  32.597  17.925  1.00  0.00     0.068 A 
HETATM   12  C   LIG     1      15.203  32.141  19.254  1.00  0.00     0.037 A 
HETATM   13  C   LIG     1      15.361  33.051  20.303  1.00  0.00     0.010 A 
BRANCH  11  14
HETATM   14  O   LIG     1      14.970  31.725  16.838  1.00  0.00    -0.356 OA
HETATM   15  C   LIG     1      13.748  31.078  16.496  1.00  0.00     0.210 C 
ENDBRANCH  11  14
ENDBRANCH   7   8
ENDBRANCH   5   7
BRANCH   2  16
HETATM   16  O   LIG     1      17.535  37.287  20.514  1.00  0.00    -0.311 OA
BRANCH  16  17
HETATM   17  C   LIG     1      18.458  37.315  19.462  1.00  0.00     0.255 C 
HETATM   18  C   LIG     1      19.689  38.146  19.588  1.00  0.00     0.126 C 
HETATM   19  O   LIG     1      18.279  36.615  18.429  1.00  0.00    -0.266 OA
ENDBRANCH  16  17
ENDBRANCH   2  16
BRANCH   1  20
HETATM   20  O   LIG     1      18.378  38.397  23.276  1.00  0.00    -0.391 OA
HETATM   21  H   LIG     1      18.261  38.583  24.244  1.00  0.00     0.210 HD
ENDBRANCH   1  20
TORSDOF 6
ENDMDL
MODEL 7
REMARK VINA RESULT:      -6.3      3.700      5.730
REMARK  6 active torsions:
REMARK  status: ('A' for Active; 'I' for Inactive)
REMARK    1  A    between atoms: O_1  and  C_2 
REMARK    2  A    between atoms: C_3  and  O_4 
REMARK    3  A    between atoms: O_4  and  C_5 
REMARK    4  A    between atoms: C_10  and  C_11 
REMARK    5  A    between atoms: C_11  and  C_12 
REMARK    6  A    between atoms: C_15  and  O_16 
ROOT
HETATM    1  C   LIG     1      15.075  34.963  21.336  1.00  0.00     0.177 C 
HETATM    2  C   LIG     1      16.269  34.517  20.524  1.00  0.00     0.195 C 
HETATM    3  C   LIG     1      14.266  33.683  21.517  1.00  0.00     0.304 C 
HETATM    4  N   LIG     1      14.662  32.737  20.468  1.00  0.00     0.093 N 
HETATM    5  C   LIG     1      15.709  33.381  19.656  1.00  0.00     0.256 C 
HETATM    6  H   LIG     1      13.818  32.493  19.897  1.00  0.00     0.316 HD
ENDROOT
BRANCH   5   7
HETATM    7  C   LIG     1      15.150  33.877  18.290  1.00  0.00     0.076 C 
BRANCH   7   8
HETATM    8  C   LIG     1      14.860  32.807  17.250  1.00  0.00    -0.056 A 
HETATM    9  C   LIG     1      13.784  31.900  17.341  1.00  0.00     0.010 A 
HETATM   10  C   LIG     1      13.587  30.931  16.353  1.00  0.00     0.037 A 
HETATM   11  C   LIG     1      14.457  30.837  15.262  1.00  0.00     0.068 A 
HETATM   12  C   LIG     1      15.538  31.732  15.171  1.00  0.00     0.037 A 
HETATM   13  C   LIG     1      15.735  32.702  16.157  1.00  0.00     0.010 A 
BRANCH  11  14
HETATM   14  O   LIG     1      14.215  29.848  14.298  1.00  0.00    -0.356 OA
HETATM   15  C   LIG     1      15.203  28.950  13.802  1.00  0.00     0.210 C 
ENDBRANCH  11  14
ENDBRANCH   7   8
ENDBRANCH   5   7
BRANCH   2  16
HETATM   16  O   LIG     1      16.814  35.607  19.777  1.00  0.00    -0.311 OA
BRANCH  16  17
HETATM   17  C   LIG     1      17.777  36.481  20.293  1.00  0.00     0.255 C 
HETATM   18  C   LIG     1      19.012  36.760  19.507  1.00  0.00     0.126 C 
HETATM   19  O   LIG     1      17.595  37.063  21.397  1.00  0.00    -0.266 OA
ENDBRANCH  16  17
ENDBRANCH   2  16
BRANCH   1  20
HETATM   20  O   LIG     1      15.483  35.495  22.568  1.00  0.00    -0.391 OA
HETATM   21  H   LIG     1      14.746  35.315  23.207  1.00  0.00     0.210 HD
ENDBRANCH   1  20
TORSDOF 6
ENDMDL
MODEL 8
REMARK VINA RESULT:      -5.8      5.630     10.175
REMARK  6 active torsions:
REMARK  status: ('A' for Active; 'I' for Inactive)
REMARK    1  A    between atoms: O_1  and  C_2 
REMARK    2  A    between atoms: C_3  and  O_4 
REMARK    3  A    between atoms: O_4  and  C_5 
REMARK    4  A    between atoms: C_10  and  C_11 
REMARK    5  A    between atoms: C_11  and  C_12 
REMARK    6  A    between atoms: C_15  and  O_16 
ROOT
HETATM    1  C   LIG     1      14.879  31.873  19.725  1.00  0.00     0.177 C 
HETATM    2  C   LIG     1      14.831  33.255  19.116  1.00  0.00     0.195 C 
HETATM    3  C   LIG     1      14.242  32.064  21.097  1.00  0.00     0.304 C 
HETATM    4  N   LIG     1      14.326  33.485  21.450  1.00  0.00     0.093 N 
HETATM    5  C   LIG     1      14.974  34.187  20.328  1.00  0.00     0.256 C 
HETATM    6  H   LIG     1      14.871  33.581  22.339  1.00  0.00     0.316 HD
ENDROOT
BRANCH   5   7
HETATM    7  C   LIG     1      16.455  34.541  20.653  1.00  0.00     0.076 C 
BRANCH   7   8
HETATM    8  C   LIG     1      16.678  35.593  21.726  1.00  0.00    -0.056 A 
HETATM    9  C   LIG     1      16.693  36.980  21.469  1.00  0.00     0.010 A 
HETATM   10  C   LIG     1      16.919  37.890  22.506  1.00  0.00     0.037 A 
HETATM   11  C   LIG     1      17.144  37.445  23.812  1.00  0.00     0.068 A 
HETATM   12  C   LIG     1      17.140  36.063  24.072  1.00  0.00     0.037 A 
HETATM   13  C   LIG     1      16.914  35.151  23.038  1.00  0.00     0.010 A 
BRANCH  11  14
HETATM   14  O   LIG     1      17.366  38.400  24.814  1.00  0.00    -0.356 OA
HETATM   15  C   LIG     1      17.541  38.092  26.194  1.00  0.00     0.210 C 
ENDBRANCH  11  14
ENDBRANCH   7   8
ENDBRANCH   5   7
BRANCH   2  16
HETATM   16  O   LIG     1      15.856  33.416  18.133  1.00  0.00    -0.311 OA
BRANCH  16  17
HETATM   17  C   LIG     1      15.587  33.602  16.772  1.00  0.00     0.255 C 
HETATM   18  C   LIG     1      15.565  32.424  15.860  1.00  0.00     0.126 C 
HETATM   19  O   LIG     1      15.327  34.749  16.317  1.00  0.00    -0.266 OA
ENDBRANCH  16  17
ENDBRANCH   2  16
BRANCH   1  20
HETATM   20  O   LIG     1      14.156  30.961  18.942  1.00  0.00    -0.391 OA
HETATM   21  H   LIG     1      14.175  31.313  18.014  1.00  0.00     0.210 HD
ENDBRANCH   1  20
TORSDOF 6
ENDMDL
MODEL 9
REMARK VINA RESULT:      -5.7      2.332      6.497
REMARK  6 active torsions:
REMARK  status: ('A' for Active; 'I' for Inactive)
REMARK    1  A    between atoms: O_1  and  C_2 
REMARK    2  A    between atoms: C_3  and  O_4 
REMARK    3  A    between atoms: O_4  and  C_5 
REMARK    4  A    between atoms: C_10  and  C_11 
REMARK    5  A    between atoms: C_11  and  C_12 
REMARK    6  A    between atoms: C_15  and  O_16 
ROOT
HETATM    1  C   LIG     1      14.591  29.027  14.151  1.00  0.00     0.177 C 
HETATM    2  C   LIG     1      14.592  30.512  14.432  1.00  0.00     0.195 C 
HETATM    3  C   LIG     1      13.110  28.666  14.130  1.00  0.00     0.304 C 
HETATM    4  N   LIG     1      12.373  29.704  14.860  1.00  0.00     0.093 N 
HETATM    5  C   LIG     1      13.349  30.712  15.312  1.00  0.00     0.256 C 
HETATM    6  H   LIG     1      11.869  29.260  15.662  1.00  0.00     0.316 HD
ENDROOT
BRANCH   5   7
HETATM    7  C   LIG     1      13.652  30.572  16.833  1.00  0.00     0.076 C 
BRANCH   7   8
HETATM    8  C   LIG     1      14.250  31.791  17.517  1.00  0.00    -0.056 A 
HETATM    9  C   LIG     1      14.787  31.770  18.820  1.00  0.00     0.010 A 
HETATM   10  C   LIG     1      15.308  32.934  19.392  1.00  0.00     0.037 A 
HETATM   11  C   LIG     1      15.298  34.142  18.687  1.00  0.00     0.068 A 
HETATM   12  C   LIG     1      14.755  34.171  17.390  1.00  0.00     0.037 A 
HETATM   13  C   LIG     1      14.235  33.008  16.817  1.00  0.00     0.010 A 
BRANCH  11  14
HETATM   14  O   LIG     1      15.832  35.281  19.306  1.00  0.00    -0.356 OA
HETATM   15  C   LIG     1      15.726  35.566  20.697  1.00  0.00     0.210 C 
ENDBRANCH  11  14
ENDBRANCH   7   8
ENDBRANCH   5   7
BRANCH   2  16
HETATM   16  O   LIG     1      15.815  30.915  15.050  1.00  0.00    -0.311 OA
BRANCH  16  17
HETATM   17  C   LIG     1      16.682  31.858  14.486  1.00  0.00     0.255 C 
HETATM   18  C   LIG     1      17.532  32.698  15.377  1.00  0.00     0.126 C 
HETATM   19  O   LIG     1      16.779  31.978  13.235  1.00  0.00    -0.266 OA
ENDBRANCH  16  17
ENDBRANCH   2  16
BRANCH   1  20
HETATM   20  O   LIG     1      15.206  28.755  12.920  1.00  0.00    -0.391 OA
HETATM   21  H   LIG     1      15.865  28.033  13.091  1.00  0.00     0.210 HD
ENDBRANCH   1  20
TORSDOF 6
ENDMDL
MODEL 10
REMARK VINA RESULT:      -5.5      2.597      6.628
REMARK  6 active torsions:
REMARK  status: ('A' for Active; 'I' for Inactive)
REMARK    1  A    between atoms: O_1  and  C_2 
REMARK    2  A    between atoms: C_3  and  O_4 
REMARK    3  A    between atoms: O_4  and  C_5 
REMARK    4  A    between atoms: C_10  and  C_11 
REMARK    5  A    between atoms: C_11  and  C_12 
REMARK    6  A    between atoms: C_15  and  O_16 
ROOT
HETATM    1  C   LIG     1      15.065  32.270  17.441  1.00  0.00     0.177 C 
HETATM    2  C   LIG     1      14.952  32.393  15.939  1.00  0.00     0.195 C 
HETATM    3  C   LIG     1      15.300  33.704  17.902  1.00  0.00     0.304 C 
HETATM    4  N   LIG     1      15.813  34.475  16.763  1.00  0.00     0.093 N 
HETATM    5  C   LIG     1      15.881  33.568  15.603  1.00  0.00     0.256 C 
HETATM    6  H   LIG     1      16.753  34.862  17.014  1.00  0.00     0.316 HD
ENDROOT
BRANCH   5   7
HETATM    7  C   LIG     1      17.343  33.124  15.310  1.00  0.00     0.076 C 
BRANCH   7   8
HETATM    8  C   LIG     1      17.950  33.614  14.006  1.00  0.00    -0.056 A 
HETATM    9  C   LIG     1      17.207  34.251  12.990  1.00  0.00     0.010 A 
HETATM   10  C   LIG     1      17.831  34.663  11.808  1.00  0.00     0.037 A 
HETATM   11  C   LIG     1      19.197  34.444  11.607  1.00  0.00     0.068 A 
HETATM   12  C   LIG     1      19.940  33.800  12.612  1.00  0.00     0.037 A 
HETATM   13  C   LIG     1      19.320  33.388  13.794  1.00  0.00     0.010 A 
BRANCH  11  14
HETATM   14  O   LIG     1      19.773  34.876  10.404  1.00  0.00    -0.356 OA
HETATM   15  C   LIG     1      21.162  35.134  10.224  1.00  0.00     0.210 C 
ENDBRANCH  11  14
ENDBRANCH   7   8
ENDBRANCH   5   7
BRANCH   2  16
HETATM   16  O   LIG     1      15.308  31.166  15.298  1.00  0.00    -0.311 OA
BRANCH  16  17
HETATM   17  C   LIG     1      14.364  30.232  14.856  1.00  0.00     0.255 C 
HETATM   18  C   LIG     1      14.796  29.117  13.967  1.00  0.00     0.126 C 
HETATM   19  O   LIG     1      13.162  30.303  15.232  1.00  0.00    -0.266 OA
ENDBRANCH  16  17
ENDBRANCH   2  16
BRANCH   1  20
HETATM   20  O   LIG     1      13.887  31.738  17.986  1.00  0.00    -0.391 OA
HETATM   21  H   LIG     1      14.089  30.796  18.223  1.00  0.00     0.210 HD
ENDBRANCH   1  20
TORSDOF 6
ENDMDL
MODEL 11
REMARK VINA RESULT:      -5.5      2.032      3.439
REMARK  6 active torsions:
REMARK  status: ('A' for Active; 'I' for Inactive)
REMARK    1  A    between atoms: O_1  and  C_2 
REMARK    2  A    between atoms: C_3  and  O_4 
REMARK    3  A    between atoms: O_4  and  C_5 
REMARK    4  A    between atoms: C_10  and  C_11 
REMARK    5  A    between atoms: C_11  and  C_12 
REMARK    6  A    between atoms: C_15  and  O_16 
ROOT
HETATM    1  C   LIG     1      15.127  33.790  16.723  1.00  0.00     0.177 C 
HETATM    2  C   LIG     1      15.843  32.672  16.001  1.00  0.00     0.195 C 
HETATM    3  C   LIG     1      14.684  33.146  18.033  1.00  0.00     0.304 C 
HETATM    4  N   LIG     1      14.661  31.691  17.844  1.00  0.00     0.093 N 
HETATM    5  C   LIG     1      15.101  31.411  16.466  1.00  0.00     0.256 C 
HETATM    6  H   LIG     1      13.691  31.342  18.025  1.00  0.00     0.316 HD
ENDROOT
BRANCH   5   7
HETATM    7  C   LIG     1      13.899  31.038  15.548  1.00  0.00     0.076 C 
BRANCH   7   8
HETATM    8  C   LIG     1      14.076  29.811  14.669  1.00  0.00    -0.056 A 
HETATM    9  C   LIG     1      13.020  28.946  14.314  1.00  0.00     0.010 A 
HETATM   10  C   LIG     1      13.260  27.826  13.513  1.00  0.00     0.037 A 
HETATM   11  C   LIG     1      14.550  27.537  13.057  1.00  0.00     0.068 A 
HETATM   12  C   LIG     1      15.609  28.389  13.417  1.00  0.00     0.037 A 
HETATM   13  C   LIG     1      15.371  29.510  14.217  1.00  0.00     0.010 A 
BRANCH  11  14
HETATM   14  O   LIG     1      14.737  26.400  12.257  1.00  0.00    -0.356 OA
HETATM   15  C   LIG     1      15.555  26.362  11.092  1.00  0.00     0.210 C 
ENDBRANCH  11  14
ENDBRANCH   7   8
ENDBRANCH   5   7
BRANCH   2  16
HETATM   16  O   LIG     1      15.815  32.878  14.587  1.00  0.00    -0.311 OA
BRANCH  16  17
HETATM   17  C   LIG     1      16.972  32.999  13.809  1.00  0.00     0.255 C 
HETATM   18  C   LIG     1      17.926  34.111  14.082  1.00  0.00     0.126 C 
HETATM   19  O   LIG     1      17.235  32.157  12.908  1.00  0.00    -0.266 OA
ENDBRANCH  16  17
ENDBRANCH   2  16
BRANCH   1  20
HETATM   20  O   LIG     1      15.993  34.871  16.947  1.00  0.00    -0.391 OA
HETATM   21  H   LIG     1      16.830  34.665  16.455  1.00  0.00     0.210 HD
ENDBRANCH   1  20
TORSDOF 6
ENDMDL
MODEL 12
REMARK VINA RESULT:      -5.4      1.460      2.955
REMARK  6 active torsions:
REMARK  status: ('A' for Active; 'I' for Inactive)
REMARK    1  A    between atoms: O_1  and  C_2 
REMARK    2  A    between atoms: C_3  and  O_4 
REMARK    3  A    between atoms: O_4  and  C_5 
REMARK    4  A    between atoms: C_10  and  C_11 
REMARK    5  A    between atoms: C_11  and  C_12 
REMARK    6  A    between atoms: C_15  and  O_16 
ROOT
HETATM    1  C   LIG     1      14.854  33.667  16.753  1.00  0.00     0.177 C 
HETATM    2  C   LIG     1      16.101  33.010  16.207  1.00  0.00     0.195 C 
HETATM    3  C   LIG     1      14.153  32.538  17.502  1.00  0.00     0.304 C 
HETATM    4  N   LIG     1      14.653  31.261  16.981  1.00  0.00     0.093 N 
HETATM    5  C   LIG     1      15.661  31.561  15.949  1.00  0.00     0.256 C 
HETATM    6  H   LIG     1      13.848  30.715  16.595  1.00  0.00     0.316 HD
ENDROOT
BRANCH   5   7
HETATM    7  C   LIG     1      15.094  31.343  14.516  1.00  0.00     0.076 C 
BRANCH   7   8
HETATM    8  C   LIG     1      14.456  29.992  14.241  1.00  0.00    -0.056 A 
HETATM    9  C   LIG     1      15.187  28.841  13.882  1.00  0.00     0.010 A 
HETATM   10  C   LIG     1      14.530  27.634  13.629  1.00  0.00     0.037 A 
HETATM   11  C   LIG     1      13.137  27.546  13.718  1.00  0.00     0.068 A 
HETATM   12  C   LIG     1      12.402  28.692  14.066  1.00  0.00     0.037 A 
HETATM   13  C   LIG     1      13.057  29.900  14.319  1.00  0.00     0.010 A 
BRANCH  11  14
HETATM   14  O   LIG     1      12.528  26.311  13.454  1.00  0.00    -0.356 OA
HETATM   15  C   LIG     1      11.463  26.121  12.527  1.00  0.00     0.210 C 
ENDBRANCH  11  14
ENDBRANCH   7   8
ENDBRANCH   5   7
BRANCH   2  16
HETATM   16  O   LIG     1      16.569  33.693  15.042  1.00  0.00    -0.311 OA
BRANCH  16  17
HETATM   17  C   LIG     1      17.793  33.404  14.428  1.00  0.00     0.255 C 
HETATM   18  C   LIG     1      18.047  33.881  13.038  1.00  0.00     0.126 C 
HETATM   19  O   LIG     1      18.695  32.780  15.049  1.00  0.00    -0.266 OA
ENDBRANCH  16  17
ENDBRANCH   2  16
BRANCH   1  20
HETATM   20  O   LIG     1      15.186  34.727  17.609  1.00  0.00    -0.391 OA
HETATM   21  H   LIG     1      14.334  35.189  17.824  1.00  0.00     0.210 HD
ENDBRANCH   1  20
TORSDOF 6
ENDMDL
MODEL 13
REMARK VINA RESULT:      -5.0      4.141      6.431
REMARK  6 active torsions:
REMARK  status: ('A' for Active; 'I' for Inactive)
REMARK    1  A    between atoms: O_1  and  C_2 
REMARK    2  A    between atoms: C_3  and  O_4 
REMARK    3  A    between atoms: O_4  and  C_5 
REMARK    4  A    between atoms: C_10  and  C_11 
REMARK    5  A    between atoms: C_11  and  C_12 
REMARK    6  A    between atoms: C_15  and  O_16 
ROOT
HETATM    1  C   LIG     1      14.937  34.396  21.249  1.00  0.00     0.177 C 
HETATM    2  C   LIG     1      16.107  34.145  20.326  1.00  0.00     0.195 C 
HETATM    3  C   LIG     1      14.235  33.043  21.315  1.00  0.00     0.304 C 
HETATM    4  N   LIG     1      14.633  32.261  20.139  1.00  0.00     0.093 N 
HETATM    5  C   LIG     1      15.579  33.077  19.357  1.00  0.00     0.256 C 
HETATM    6  H   LIG     1      13.776  32.019  19.589  1.00  0.00     0.316 HD
ENDROOT
BRANCH   5   7
HETATM    7  C   LIG     1      14.901  33.684  18.094  1.00  0.00     0.076 C 
BRANCH   7   8
HETATM    8  C   LIG     1      15.584  33.409  16.764  1.00  0.00    -0.056 A 
HETATM    9  C   LIG     1      16.529  34.276  16.177  1.00  0.00     0.010 A 
HETATM   10  C   LIG     1      17.105  33.964  14.942  1.00  0.00     0.037 A 
HETATM   11  C   LIG     1      16.750  32.795  14.262  1.00  0.00     0.068 A 
HETATM   12  C   LIG     1      15.801  31.932  14.838  1.00  0.00     0.037 A 
HETATM   13  C   LIG     1      15.224  32.241  16.072  1.00  0.00     0.010 A 
BRANCH  11  14
HETATM   14  O   LIG     1      17.358  32.530  13.027  1.00  0.00    -0.356 OA
HETATM   15  C   LIG     1      18.420  33.299  12.471  1.00  0.00     0.210 C 
ENDBRANCH  11  14
ENDBRANCH   7   8
ENDBRANCH   5   7
BRANCH   2  16
HETATM   16  O   LIG     1      16.525  35.354  19.690  1.00  0.00    -0.311 OA
BRANCH  16  17
HETATM   17  C   LIG     1      17.462  36.229  20.252  1.00  0.00     0.255 C 
HETATM   18  C   LIG     1      18.635  36.666  19.443  1.00  0.00     0.126 C 
HETATM   19  O   LIG     1      17.304  36.680  21.419  1.00  0.00    -0.266 OA
ENDBRANCH  16  17
ENDBRANCH   2  16
BRANCH   1  20
HETATM   20  O   LIG     1      15.380  34.810  22.513  1.00  0.00    -0.391 OA
HETATM   21  H   LIG     1      15.837  34.028  22.919  1.00  0.00     0.210 HD
ENDBRANCH   1  20
TORSDOF 6
ENDMDL
MODEL 14
REMARK VINA RESULT:      -4.7      4.774      9.365
REMARK  6 active torsions:
REMARK  status: ('A' for Active; 'I' for Inactive)
REMARK    1  A    between atoms: O_1  and  C_2 
REMARK    2  A    between atoms: C_3  and  O_4 
REMARK    3  A    between atoms: O_4  and  C_5 
REMARK    4  A    between atoms: C_10  and  C_11 
REMARK    5  A    between atoms: C_11  and  C_12 
REMARK    6  A    between atoms: C_15  and  O_16 
ROOT
HETATM    1  C   LIG     1      15.531  32.262  17.561  1.00  0.00     0.177 C 
HETATM    2  C   LIG     1      15.017  33.670  17.374  1.00  0.00     0.195 C 
HETATM    3  C   LIG     1      14.988  31.860  18.929  1.00  0.00     0.304 C 
HETATM    4  N   LIG     1      14.671  33.083  19.674  1.00  0.00     0.093 N 
HETATM    5  C   LIG     1      14.976  34.231  18.803  1.00  0.00     0.256 C 
HETATM    6  H   LIG     1      15.236  33.098  20.555  1.00  0.00     0.316 HD
ENDROOT
BRANCH   5   7
HETATM    7  C   LIG     1      16.305  34.928  19.220  1.00  0.00     0.076 C 
BRANCH   7   8
HETATM    8  C   LIG     1      16.261  35.756  20.494  1.00  0.00    -0.056 A 
HETATM    9  C   LIG     1      15.096  35.940  21.267  1.00  0.00     0.010 A 
HETATM   10  C   LIG     1      15.128  36.728  22.421  1.00  0.00     0.037 A 
HETATM   11  C   LIG     1      16.311  37.355  22.826  1.00  0.00     0.068 A 
HETATM   12  C   LIG     1      17.474  37.184  22.054  1.00  0.00     0.037 A 
HETATM   13  C   LIG     1      17.444  36.396  20.900  1.00  0.00     0.010 A 
BRANCH  11  14
HETATM   14  O   LIG     1      16.289  38.135  23.991  1.00  0.00    -0.356 OA
HETATM   15  C   LIG     1      17.205  37.993  25.072  1.00  0.00     0.210 C 
ENDBRANCH  11  14
ENDBRANCH   7   8
ENDBRANCH   5   7
BRANCH   2  16
HETATM   16  O   LIG     1      15.856  34.406  16.481  1.00  0.00    -0.311 OA
BRANCH  16  17
HETATM   17  C   LIG     1      16.351  33.875  15.285  1.00  0.00     0.255 C 
HETATM   18  C   LIG     1      17.708  34.271  14.812  1.00  0.00     0.126 C 
HETATM   19  O   LIG     1      15.678  33.038  14.624  1.00  0.00    -0.266 OA
ENDBRANCH  16  17
ENDBRANCH   2  16
BRANCH   1  20
HETATM   20  O   LIG     1      15.052  31.419  16.548  1.00  0.00    -0.391 OA
HETATM   21  H   LIG     1      15.492  30.540  16.684  1.00  0.00     0.210 HD
ENDBRANCH   1  20
TORSDOF 6
ENDMDL
