REMARK  6 active torsions:
REMARK  status: ('A' for Active; 'I' for Inactive)
REMARK    1  A    between atoms: O_1  and  C_2 
REMARK    2  A    between atoms: C_3  and  O_4 
REMARK    3  A    between atoms: O_4  and  C_5 
REMARK    4  A    between atoms: C_10  and  C_11 
REMARK    5  A    between atoms: C_11  and  C_12 
REMARK    6  A    between atoms: C_15  and  O_16 
ROOT
HETATM    1  C   LIG     1      -3.111  -1.393  -0.946  1.00  0.00     0.177 C 
HETATM    2  C   LIG     1      -2.774  -0.611   0.302  1.00  0.00     0.195 C 
HETATM    3  C   LIG     1      -2.142  -2.570  -0.905  1.00  0.00     0.304 C 
HETATM    4  N   LIG     1      -1.016  -2.208  -0.037  1.00  0.00     0.093 N 
HETATM    5  C   LIG     1      -1.268  -0.852   0.482  1.00  0.00     0.256 C 
HETATM    6  H   LIG     1      -0.131  -2.256  -0.594  1.00  0.00     0.316 HD
ENDROOT
BRANCH   5   7
HETATM    7  C   LIG     1      -0.391   0.210  -0.244  1.00  0.00     0.076 C 
BRANCH   7   8
HETATM    8  C   LIG     1       1.111   0.099  -0.040  1.00  0.00    -0.056 A 
HETATM    9  C   LIG     1       1.710  -0.767   0.898  1.00  0.00     0.010 A 
HETATM   10  C   LIG     1       3.100  -0.805   1.041  1.00  0.00     0.037 A 
HETATM   11  C   LIG     1       3.921   0.019   0.265  1.00  0.00     0.068 A 
HETATM   12  C   LIG     1       3.329   0.892  -0.665  1.00  0.00     0.037 A 
HETATM   13  C   LIG     1       1.940   0.931  -0.810  1.00  0.00     0.010 A 
BRANCH  11  14
HETATM   14  O   LIG     1       5.309  -0.058   0.448  1.00  0.00    -0.356 OA
HETATM   15  C   LIG     1       6.260   0.720  -0.272  1.00  0.00     0.210 C 
ENDBRANCH  11  14
ENDBRANCH   7   8
ENDBRANCH   5   7
BRANCH   2  16
HETATM   16  O   LIG     1      -3.131   0.765   0.155  1.00  0.00    -0.311 OA
BRANCH  16  17
HETATM   17  C   LIG     1      -3.129   1.673   1.220  1.00  0.00     0.255 C 
HETATM   18  C   LIG     1      -3.504   3.094   0.973  1.00  0.00     0.126 C 
HETATM   19  O   LIG     1      -2.851   1.294   2.390  1.00  0.00    -0.266 OA
ENDBRANCH  16  17
ENDBRANCH   2  16
BRANCH   1  20
HETATM   20  O   LIG     1      -4.446  -1.822  -0.918  1.00  0.00    -0.391 OA
HETATM   21  H   LIG     1      -4.640  -2.190  -1.819  1.00  0.00     0.210 HD
ENDBRANCH   1  20
TORSDOF 6
