REMARK  0 active torsions:
REMARK  status: ('A' for Active; 'I' for Inactive)
ROOT
HETATM    1  C   LIG     1       0.673   0.200   0.009  1.00  0.00    -0.012 A 
HETATM    2  C   LIG     1      -0.750   0.264   0.076  1.00  0.00     0.004 A 
HETATM    3  C   LIG     1      -1.469   1.460   0.315  1.00  0.00     0.014 A 
HETATM    4  C   LIG     1      -2.865   1.454   0.368  1.00  0.00     0.001 A 
HETATM    5  C   LIG     1      -3.573   0.267   0.187  1.00  0.00     0.002 A 
HETATM    6  C   LIG     1      -2.888  -0.924  -0.049  1.00  0.00     0.032 A 
HETATM    7  C   LIG     1      -1.489  -0.935  -0.106  1.00  0.00     0.067 A 
HETATM    8  N   LIG     1      -0.850  -2.110  -0.338  1.00  0.00    -0.259 NA
HETATM    9  C   LIG     1       0.500  -2.196  -0.406  1.00  0.00     0.129 A 
HETATM   10  C   LIG     1       1.290  -1.056  -0.236  1.00  0.00    -0.007 A 
HETATM   11  C   LIG     1       2.688  -1.160  -0.310  1.00  0.00     0.014 A 
HETATM   12  C   LIG     1       3.486  -0.030  -0.142  1.00  0.00     0.001 A 
HETATM   13  C   LIG     1       2.899   1.210   0.099  1.00  0.00     0.001 A 
HETATM   14  C   LIG     1       1.508   1.331   0.175  1.00  0.00     0.013 A 
ENDROOT
TORSDOF 0
