MODEL 1
REMARK VINA RESULT:      -7.9      0.000      0.000
REMARK  0 active torsions:
REMARK  status: ('A' for Active; 'I' for Inactive)
ROOT
HETATM    1  C   LIG     1      16.976  35.726  22.869  1.00  0.00    -0.012 A 
HETATM    2  C   LIG     1      17.382  35.861  24.229  1.00  0.00     0.004 A 
HETATM    3  C   LIG     1      17.365  34.794  25.160  1.00  0.00     0.014 A 
HETATM    4  C   LIG     1      17.777  34.994  26.480  1.00  0.00     0.001 A 
HETATM    5  C   LIG     1      18.210  36.249  26.902  1.00  0.00     0.002 A 
HETATM    6  C   LIG     1      18.236  37.316  26.005  1.00  0.00     0.032 A 
HETATM    7  C   LIG     1      17.827  37.132  24.678  1.00  0.00     0.067 A 
HETATM    8  N   LIG     1      17.864  38.190  23.827  1.00  0.00    -0.259 NA
HETATM    9  C   LIG     1      17.484  38.086  22.531  1.00  0.00     0.129 A 
HETATM   10  C   LIG     1      17.034  36.865  22.022  1.00  0.00    -0.007 A 
HETATM   11  C   LIG     1      16.645  36.772  20.676  1.00  0.00     0.014 A 
HETATM   12  C   LIG     1      16.195  35.560  20.158  1.00  0.00     0.001 A 
HETATM   13  C   LIG     1      16.131  34.432  20.973  1.00  0.00     0.001 A 
HETATM   14  C   LIG     1      16.516  34.507  22.315  1.00  0.00     0.013 A 
ENDROOT
TORSDOF 0
ENDMDL
MODEL 2
REMARK VINA RESULT:      -7.8      0.513      4.394
REMARK  0 active torsions:
REMARK  status: ('A' for Active; 'I' for Inactive)
ROOT
HETATM    1  C   LIG     1      17.399  35.865  24.229  1.00  0.00    -0.012 A 
HETATM    2  C   LIG     1      16.996  35.728  22.868  1.00  0.00     0.004 A 
HETATM    3  C   LIG     1      16.528  34.514  22.309  1.00  0.00     0.014 A 
HETATM    4  C   LIG     1      16.148  34.448  20.966  1.00  0.00     0.001 A 
HETATM    5  C   LIG     1      16.224  35.578  20.154  1.00  0.00     0.002 A 
HETATM    6  C   LIG     1      16.682  36.785  20.681  1.00  0.00     0.032 A 
HETATM    7  C   LIG     1      17.066  36.869  22.024  1.00  0.00     0.067 A 
HETATM    8  N   LIG     1      17.507  38.058  22.509  1.00  0.00    -0.259 NA
HETATM    9  C   LIG     1      17.896  38.213  23.797  1.00  0.00     0.129 A 
HETATM   10  C   LIG     1      17.853  37.133  24.683  1.00  0.00    -0.007 A 
HETATM   11  C   LIG     1      18.257  37.308  26.015  1.00  0.00     0.014 A 
HETATM   12  C   LIG     1      18.219  36.239  26.908  1.00  0.00     0.001 A 
HETATM   13  C   LIG     1      17.777  34.989  26.481  1.00  0.00     0.001 A 
HETATM   14  C   LIG     1      17.369  34.797  25.157  1.00  0.00     0.013 A 
ENDROOT
TORSDOF 0
ENDMDL
MODEL 3
REMARK VINA RESULT:      -7.7      2.195      5.297
REMARK  0 active torsions:
REMARK  status: ('A' for Active; 'I' for Inactive)
ROOT
HETATM    1  C   LIG     1      17.831  37.683  22.560  1.00  0.00    -0.012 A 
HETATM    2  C   LIG     1      18.249  37.986  21.230  1.00  0.00     0.004 A 
HETATM    3  C   LIG     1      18.801  39.233  20.849  1.00  0.00     0.014 A 
HETATM    4  C   LIG     1      19.192  39.465  19.527  1.00  0.00     0.001 A 
HETATM    5  C   LIG     1      19.042  38.470  18.562  1.00  0.00     0.002 A 
HETATM    6  C   LIG     1      18.500  37.235  18.913  1.00  0.00     0.032 A 
HETATM    7  C   LIG     1      18.105  36.986  20.233  1.00  0.00     0.067 A 
HETATM    8  N   LIG     1      17.581  35.772  20.544  1.00  0.00    -0.259 NA
HETATM    9  C   LIG     1      17.177  35.461  21.799  1.00  0.00     0.129 A 
HETATM   10  C   LIG     1      17.289  36.398  22.830  1.00  0.00    -0.007 A 
HETATM   11  C   LIG     1      16.867  36.061  24.126  1.00  0.00     0.014 A 
HETATM   12  C   LIG     1      16.974  36.987  25.162  1.00  0.00     0.001 A 
HETATM   13  C   LIG     1      17.503  38.252  24.916  1.00  0.00     0.001 A 
HETATM   14  C   LIG     1      17.928  38.603  23.631  1.00  0.00     0.013 A 
ENDROOT
TORSDOF 0
ENDMDL
MODEL 4
REMARK VINA RESULT:      -7.5      2.065      3.509
REMARK  0 active torsions:
REMARK  status: ('A' for Active; 'I' for Inactive)
ROOT
HETATM    1  C   LIG     1      18.235  37.986  21.364  1.00  0.00    -0.012 A 
HETATM    2  C   LIG     1      17.837  37.720  22.708  1.00  0.00     0.004 A 
HETATM    3  C   LIG     1      17.966  38.656  23.762  1.00  0.00     0.014 A 
HETATM    4  C   LIG     1      17.555  38.332  25.057  1.00  0.00     0.001 A 
HETATM    5  C   LIG     1      17.011  37.079  25.332  1.00  0.00     0.002 A 
HETATM    6  C   LIG     1      16.874  36.139  24.311  1.00  0.00     0.032 A 
HETATM    7  C   LIG     1      17.280  36.448  23.008  1.00  0.00     0.067 A 
HETATM    8  N   LIG     1      17.133  35.513  22.034  1.00  0.00    -0.259 NA
HETATM    9  C   LIG     1      17.504  35.742  20.752  1.00  0.00     0.129 A 
HETATM   10  C   LIG     1      18.059  36.971  20.386  1.00  0.00    -0.007 A 
HETATM   11  C   LIG     1      18.438  37.195  19.053  1.00  0.00     0.014 A 
HETATM   12  C   LIG     1      18.993  38.416  18.676  1.00  0.00     0.001 A 
HETATM   13  C   LIG     1      19.173  39.423  19.621  1.00  0.00     0.001 A 
HETATM   14  C   LIG     1      18.800  39.217  20.953  1.00  0.00     0.013 A 
ENDROOT
TORSDOF 0
ENDMDL
MODEL 5
REMARK VINA RESULT:      -7.2      2.907      4.392
REMARK  0 active torsions:
REMARK  status: ('A' for Active; 'I' for Inactive)
ROOT
HETATM    1  C   LIG     1      17.954  37.195  20.566  1.00  0.00    -0.012 A 
HETATM    2  C   LIG     1      16.896  36.277  20.832  1.00  0.00     0.004 A 
HETATM    3  C   LIG     1      16.716  35.064  20.123  1.00  0.00     0.014 A 
HETATM    4  C   LIG     1      15.657  34.207  20.434  1.00  0.00     0.001 A 
HETATM    5  C   LIG     1      14.759  34.535  21.449  1.00  0.00     0.002 A 
HETATM    6  C   LIG     1      14.914  35.723  22.160  1.00  0.00     0.032 A 
HETATM    7  C   LIG     1      15.970  36.593  21.861  1.00  0.00     0.067 A 
HETATM    8  N   LIG     1      16.096  37.743  22.572  1.00  0.00    -0.259 NA
HETATM    9  C   LIG     1      17.092  38.630  22.338  1.00  0.00     0.129 A 
HETATM   10  C   LIG     1      18.038  38.384  21.339  1.00  0.00    -0.007 A 
HETATM   11  C   LIG     1      19.065  39.312  21.109  1.00  0.00     0.014 A 
HETATM   12  C   LIG     1      20.014  39.077  20.115  1.00  0.00     0.001 A 
HETATM   13  C   LIG     1      19.948  37.917  19.347  1.00  0.00     0.001 A 
HETATM   14  C   LIG     1      18.931  36.982  19.564  1.00  0.00     0.013 A 
ENDROOT
TORSDOF 0
ENDMDL
MODEL 6
REMARK VINA RESULT:      -7.2      1.886      2.905
REMARK  0 active torsions:
REMARK  status: ('A' for Active; 'I' for Inactive)
ROOT
HETATM    1  C   LIG     1      18.105  37.404  21.029  1.00  0.00    -0.012 A 
HETATM    2  C   LIG     1      17.670  36.809  22.250  1.00  0.00     0.004 A 
HETATM    3  C   LIG     1      17.353  35.435  22.381  1.00  0.00     0.014 A 
HETATM    4  C   LIG     1      16.933  34.915  23.608  1.00  0.00     0.001 A 
HETATM    5  C   LIG     1      16.819  35.742  24.724  1.00  0.00     0.002 A 
HETATM    6  C   LIG     1      17.125  37.098  24.620  1.00  0.00     0.032 A 
HETATM    7  C   LIG     1      17.548  37.635  23.398  1.00  0.00     0.067 A 
HETATM    8  N   LIG     1      17.839  38.959  23.328  1.00  0.00    -0.259 NA
HETATM    9  C   LIG     1      18.254  39.547  22.181  1.00  0.00     0.129 A 
HETATM   10  C   LIG     1      18.396  38.794  21.012  1.00  0.00    -0.007 A 
HETATM   11  C   LIG     1      18.827  39.417  19.830  1.00  0.00     0.014 A 
HETATM   12  C   LIG     1      18.973  38.676  18.659  1.00  0.00     0.001 A 
HETATM   13  C   LIG     1      18.692  37.312  18.656  1.00  0.00     0.001 A 
HETATM   14  C   LIG     1      18.262  36.676  19.825  1.00  0.00     0.013 A 
ENDROOT
TORSDOF 0
ENDMDL
MODEL 7
REMARK VINA RESULT:      -7.1      1.956      4.683
REMARK  0 active torsions:
REMARK  status: ('A' for Active; 'I' for Inactive)
ROOT
HETATM    1  C   LIG     1      17.676  36.853  22.235  1.00  0.00    -0.012 A 
HETATM    2  C   LIG     1      18.116  37.441  21.012  1.00  0.00     0.004 A 
HETATM    3  C   LIG     1      18.290  36.711  19.811  1.00  0.00     0.014 A 
HETATM    4  C   LIG     1      18.723  37.349  18.646  1.00  0.00     0.001 A 
HETATM    5  C   LIG     1      18.992  38.716  18.649  1.00  0.00     0.002 A 
HETATM    6  C   LIG     1      18.829  39.457  19.818  1.00  0.00     0.032 A 
HETATM    7  C   LIG     1      18.395  38.833  20.994  1.00  0.00     0.067 A 
HETATM    8  N   LIG     1      18.245  39.580  22.118  1.00  0.00    -0.259 NA
HETATM    9  C   LIG     1      17.830  39.045  23.290  1.00  0.00     0.129 A 
HETATM   10  C   LIG     1      17.537  37.681  23.380  1.00  0.00    -0.007 A 
HETATM   11  C   LIG     1      17.106  37.141  24.602  1.00  0.00     0.014 A 
HETATM   12  C   LIG     1      16.812  35.782  24.704  1.00  0.00     0.001 A 
HETATM   13  C   LIG     1      16.942  34.954  23.591  1.00  0.00     0.001 A 
HETATM   14  C   LIG     1      17.370  35.477  22.367  1.00  0.00     0.013 A 
ENDROOT
TORSDOF 0
ENDMDL
MODEL 8
REMARK VINA RESULT:      -7.1      2.830      4.176
REMARK  0 active torsions:
REMARK  status: ('A' for Active; 'I' for Inactive)
ROOT
HETATM    1  C   LIG     1      16.893  36.258  20.828  1.00  0.00    -0.012 A 
HETATM    2  C   LIG     1      17.949  37.177  20.561  1.00  0.00     0.004 A 
HETATM    3  C   LIG     1      18.924  36.978  19.554  1.00  0.00     0.014 A 
HETATM    4  C   LIG     1      19.934  37.920  19.343  1.00  0.00     0.001 A 
HETATM    5  C   LIG     1      19.999  39.073  20.124  1.00  0.00     0.002 A 
HETATM    6  C   LIG     1      19.051  39.291  21.123  1.00  0.00     0.032 A 
HETATM    7  C   LIG     1      18.031  38.358  21.346  1.00  0.00     0.067 A 
HETATM    8  N   LIG     1      17.123  38.598  22.325  1.00  0.00    -0.259 NA
HETATM    9  C   LIG     1      16.111  37.740  22.598  1.00  0.00     0.129 A 
HETATM   10  C   LIG     1      15.970  36.559  21.864  1.00  0.00    -0.007 A 
HETATM   11  C   LIG     1      14.915  35.680  22.157  1.00  0.00     0.014 A 
HETATM   12  C   LIG     1      14.765  34.499  21.433  1.00  0.00     0.001 A 
HETATM   13  C   LIG     1      15.660  34.186  20.412  1.00  0.00     0.001 A 
HETATM   14  C   LIG     1      16.715  35.052  20.108  1.00  0.00     0.013 A 
ENDROOT
TORSDOF 0
ENDMDL
MODEL 9
REMARK VINA RESULT:      -6.8      7.780      9.852
REMARK  0 active torsions:
REMARK  status: ('A' for Active; 'I' for Inactive)
ROOT
HETATM    1  C   LIG     1      15.138  31.927  15.183  1.00  0.00    -0.012 A 
HETATM    2  C   LIG     1      16.206  32.663  14.590  1.00  0.00     0.004 A 
HETATM    3  C   LIG     1      16.862  32.267  13.399  1.00  0.00     0.014 A 
HETATM    4  C   LIG     1      17.902  33.034  12.869  1.00  0.00     0.001 A 
HETATM    5  C   LIG     1      18.312  34.203  13.507  1.00  0.00     0.002 A 
HETATM    6  C   LIG     1      17.683  34.614  14.681  1.00  0.00     0.032 A 
HETATM    7  C   LIG     1      16.638  33.857  15.225  1.00  0.00     0.067 A 
HETATM    8  N   LIG     1      16.044  34.283  16.369  1.00  0.00    -0.259 NA
HETATM    9  C   LIG     1      15.029  33.602  16.952  1.00  0.00     0.129 A 
HETATM   10  C   LIG     1      14.553  32.418  16.381  1.00  0.00    -0.007 A 
HETATM   11  C   LIG     1      13.499  31.724  16.995  1.00  0.00     0.014 A 
HETATM   12  C   LIG     1      13.016  30.542  16.436  1.00  0.00     0.001 A 
HETATM   13  C   LIG     1      13.577  30.045  15.262  1.00  0.00     0.001 A 
HETATM   14  C   LIG     1      14.627  30.726  14.637  1.00  0.00     0.013 A 
ENDROOT
TORSDOF 0
ENDMDL
MODEL 10
REMARK VINA RESULT:      -6.4      8.806     10.490
REMARK  0 active torsions:
REMARK  status: ('A' for Active; 'I' for Inactive)
ROOT
HETATM    1  C   LIG     1      15.197  32.061  15.470  1.00  0.00    -0.012 A 
HETATM    2  C   LIG     1      16.234  32.755  14.780  1.00  0.00     0.004 A 
HETATM    3  C   LIG     1      16.867  33.917  15.283  1.00  0.00     0.014 A 
HETATM    4  C   LIG     1      17.878  34.549  14.555  1.00  0.00     0.001 A 
HETATM    5  C   LIG     1      18.279  34.045  13.319  1.00  0.00     0.002 A 
HETATM    6  C   LIG     1      17.670  32.903  12.802  1.00  0.00     0.032 A 
HETATM    7  C   LIG     1      16.656  32.257  13.519  1.00  0.00     0.067 A 
HETATM    8  N   LIG     1      16.082  31.146  12.990  1.00  0.00    -0.259 NA
HETATM    9  C   LIG     1      15.096  30.470  13.626  1.00  0.00     0.129 A 
HETATM   10  C   LIG     1      14.631  30.905  14.870  1.00  0.00    -0.007 A 
HETATM   11  C   LIG     1      13.609  30.194  15.519  1.00  0.00     0.014 A 
HETATM   12  C   LIG     1      13.137  30.617  16.760  1.00  0.00     0.001 A 
HETATM   13  C   LIG     1      13.680  31.749  17.364  1.00  0.00     0.001 A 
HETATM   14  C   LIG     1      14.699  32.468  16.731  1.00  0.00     0.013 A 
ENDROOT
TORSDOF 0
ENDMDL
MODEL 11
REMARK VINA RESULT:      -6.1      8.089     10.245
REMARK  0 active torsions:
REMARK  status: ('A' for Active; 'I' for Inactive)
ROOT
HETATM    1  C   LIG     1      16.112  32.369  14.425  1.00  0.00    -0.012 A 
HETATM    2  C   LIG     1      15.083  31.442  14.762  1.00  0.00     0.004 A 
HETATM    3  C   LIG     1      14.732  30.335  13.952  1.00  0.00     0.014 A 
HETATM    4  C   LIG     1      13.712  29.463  14.340  1.00  0.00     0.001 A 
HETATM    5  C   LIG     1      13.023  29.670  15.534  1.00  0.00     0.002 A 
HETATM    6  C   LIG     1      13.350  30.753  16.349  1.00  0.00     0.032 A 
HETATM    7  C   LIG     1      14.369  31.636  15.974  1.00  0.00     0.067 A 
HETATM    8  N   LIG     1      14.665  32.681  16.788  1.00  0.00    -0.259 NA
HETATM    9  C   LIG     1      15.638  33.575  16.490  1.00  0.00     0.129 A 
HETATM   10  C   LIG     1      16.380  33.445  15.313  1.00  0.00    -0.007 A 
HETATM   11  C   LIG     1      17.386  34.379  15.017  1.00  0.00     0.014 A 
HETATM   12  C   LIG     1      18.133  34.260  13.847  1.00  0.00     0.001 A 
HETATM   13  C   LIG     1      17.884  33.211  12.964  1.00  0.00     0.001 A 
HETATM   14  C   LIG     1      16.886  32.273  13.244  1.00  0.00     0.013 A 
ENDROOT
TORSDOF 0
ENDMDL
MODEL 12
REMARK VINA RESULT:      -6.0      2.618      4.786
REMARK  0 active torsions:
REMARK  status: ('A' for Active; 'I' for Inactive)
ROOT
HETATM    1  C   LIG     1      17.286  37.095  21.756  1.00  0.00    -0.012 A 
HETATM    2  C   LIG     1      16.554  35.992  21.225  1.00  0.00     0.004 A 
HETATM    3  C   LIG     1      15.635  35.226  21.982  1.00  0.00     0.014 A 
HETATM    4  C   LIG     1      14.950  34.157  21.400  1.00  0.00     0.001 A 
HETATM    5  C   LIG     1      15.162  33.826  20.063  1.00  0.00     0.002 A 
HETATM    6  C   LIG     1      16.063  34.565  19.297  1.00  0.00     0.032 A 
HETATM    7  C   LIG     1      16.757  35.640  19.864  1.00  0.00     0.067 A 
HETATM    8  N   LIG     1      17.627  36.341  19.093  1.00  0.00    -0.259 NA
HETATM    9  C   LIG     1      18.333  37.392  19.575  1.00  0.00     0.129 A 
HETATM   10  C   LIG     1      18.184  37.793  20.905  1.00  0.00    -0.007 A 
HETATM   11  C   LIG     1      18.921  38.885  21.390  1.00  0.00     0.014 A 
HETATM   12  C   LIG     1      18.781  39.294  22.714  1.00  0.00     0.001 A 
HETATM   13  C   LIG     1      17.905  38.622  23.564  1.00  0.00     0.001 A 
HETATM   14  C   LIG     1      17.163  37.533  23.097  1.00  0.00     0.013 A 
ENDROOT
TORSDOF 0
ENDMDL
MODEL 13
REMARK VINA RESULT:      -5.9      8.561     10.161
REMARK  0 active torsions:
REMARK  status: ('A' for Active; 'I' for Inactive)
ROOT
HETATM    1  C   LIG     1      16.207  32.697  14.856  1.00  0.00    -0.012 A 
HETATM    2  C   LIG     1      15.218  32.058  15.661  1.00  0.00     0.004 A 
HETATM    3  C   LIG     1      14.899  32.466  16.978  1.00  0.00     0.014 A 
HETATM    4  C   LIG     1      13.918  31.796  17.714  1.00  0.00     0.001 A 
HETATM    5  C   LIG     1      13.237  30.713  17.160  1.00  0.00     0.002 A 
HETATM    6  C   LIG     1      13.534  30.293  15.864  1.00  0.00     0.032 A 
HETATM    7  C   LIG     1      14.514  30.953  15.114  1.00  0.00     0.067 A 
HETATM    8  N   LIG     1      14.780  30.521  13.855  1.00  0.00    -0.259 NA
HETATM    9  C   LIG     1      15.714  31.111  13.071  1.00  0.00     0.129 A 
HETATM   10  C   LIG     1      16.446  32.203  13.545  1.00  0.00    -0.007 A 
HETATM   11  C   LIG     1      17.410  32.806  12.722  1.00  0.00     0.014 A 
HETATM   12  C   LIG     1      18.146  33.895  13.184  1.00  0.00     0.001 A 
HETATM   13  C   LIG     1      17.926  34.393  14.466  1.00  0.00     0.001 A 
HETATM   14  C   LIG     1      16.969  33.806  15.299  1.00  0.00     0.013 A 
ENDROOT
TORSDOF 0
ENDMDL
MODEL 14
REMARK VINA RESULT:      -5.7      8.801     11.720
REMARK  0 active torsions:
REMARK  status: ('A' for Active; 'I' for Inactive)
ROOT
HETATM    1  C   LIG     1      13.901  30.579  15.347  1.00  0.00    -0.012 A 
HETATM    2  C   LIG     1      14.017  29.415  14.531  1.00  0.00     0.004 A 
HETATM    3  C   LIG     1      12.995  28.443  14.406  1.00  0.00     0.014 A 
HETATM    4  C   LIG     1      13.172  27.324  13.588  1.00  0.00     0.001 A 
HETATM    5  C   LIG     1      14.361  27.147  12.882  1.00  0.00     0.002 A 
HETATM    6  C   LIG     1      15.382  28.090  12.990  1.00  0.00     0.032 A 
HETATM    7  C   LIG     1      15.220  29.217  13.804  1.00  0.00     0.067 A 
HETATM    8  N   LIG     1      16.232  30.118  13.888  1.00  0.00    -0.259 NA
HETATM    9  C   LIG     1      16.147  31.230  14.656  1.00  0.00     0.129 A 
HETATM   10  C   LIG     1      14.991  31.489  15.398  1.00  0.00    -0.007 A 
HETATM   11  C   LIG     1      14.916  32.646  16.189  1.00  0.00     0.014 A 
HETATM   12  C   LIG     1      13.769  32.914  16.934  1.00  0.00     0.001 A 
HETATM   13  C   LIG     1      12.690  32.034  16.896  1.00  0.00     0.001 A 
HETATM   14  C   LIG     1      12.749  30.877  16.113  1.00  0.00     0.013 A 
ENDROOT
TORSDOF 0
ENDMDL
MODEL 15
REMARK VINA RESULT:      -5.7      7.706     10.200
REMARK  0 active torsions:
REMARK  status: ('A' for Active; 'I' for Inactive)
ROOT
HETATM    1  C   LIG     1      14.756  30.688  14.908  1.00  0.00    -0.012 A 
HETATM    2  C   LIG     1      15.075  31.922  15.548  1.00  0.00     0.004 A 
HETATM    3  C   LIG     1      16.262  32.651  15.295  1.00  0.00     0.014 A 
HETATM    4  C   LIG     1      16.513  33.856  15.956  1.00  0.00     0.001 A 
HETATM    5  C   LIG     1      15.598  34.359  16.879  1.00  0.00     0.002 A 
HETATM    6  C   LIG     1      14.422  33.659  17.147  1.00  0.00     0.032 A 
HETATM    7  C   LIG     1      14.154  32.451  16.492  1.00  0.00     0.067 A 
HETATM    8  N   LIG     1      13.001  31.792  16.773  1.00  0.00    -0.259 NA
HETATM    9  C   LIG     1      12.676  30.619  16.178  1.00  0.00     0.129 A 
HETATM   10  C   LIG     1      13.536  30.041  15.240  1.00  0.00    -0.007 A 
HETATM   11  C   LIG     1      13.186  28.826  14.631  1.00  0.00     0.014 A 
HETATM   12  C   LIG     1      14.035  28.240  13.694  1.00  0.00     0.001 A 
HETATM   13  C   LIG     1      15.236  28.859  13.356  1.00  0.00     0.001 A 
HETATM   14  C   LIG     1      15.599  30.071  13.953  1.00  0.00     0.013 A 
ENDROOT
TORSDOF 0
ENDMDL
MODEL 16
REMARK VINA RESULT:      -5.6      7.896     10.696
REMARK  0 active torsions:
REMARK  status: ('A' for Active; 'I' for Inactive)
ROOT
HETATM    1  C   LIG     1      15.151  31.942  15.499  1.00  0.00    -0.012 A 
HETATM    2  C   LIG     1      14.769  30.700  14.910  1.00  0.00     0.004 A 
HETATM    3  C   LIG     1      15.546  30.022  13.940  1.00  0.00     0.014 A 
HETATM    4  C   LIG     1      15.114  28.807  13.403  1.00  0.00     0.001 A 
HETATM    5  C   LIG     1      13.908  28.243  13.814  1.00  0.00     0.002 A 
HETATM    6  C   LIG     1      13.124  28.891  14.767  1.00  0.00     0.032 A 
HETATM    7  C   LIG     1      13.543  30.109  15.316  1.00  0.00     0.067 A 
HETATM    8  N   LIG     1      12.759  30.717  16.243  1.00  0.00    -0.259 NA
HETATM    9  C   LIG     1      13.100  31.896  16.816  1.00  0.00     0.129 A 
HETATM   10  C   LIG     1      14.292  32.534  16.463  1.00  0.00    -0.007 A 
HETATM   11  C   LIG     1      14.634  33.755  17.066  1.00  0.00     0.014 A 
HETATM   12  C   LIG     1      15.820  34.400  16.723  1.00  0.00     0.001 A 
HETATM   13  C   LIG     1      16.674  33.835  15.779  1.00  0.00     0.001 A 
HETATM   14  C   LIG     1      16.350  32.619  15.169  1.00  0.00     0.013 A 
ENDROOT
TORSDOF 0
ENDMDL
MODEL 17
REMARK VINA RESULT:      -4.9     16.106     17.778
REMARK  0 active torsions:
REMARK  status: ('A' for Active; 'I' for Inactive)
ROOT
HETATM    1  C   LIG     1      26.534  29.235  35.707  1.00  0.00    -0.012 A 
HETATM    2  C   LIG     1      26.713  28.136  34.816  1.00  0.00     0.004 A 
HETATM    3  C   LIG     1      26.452  28.205  33.426  1.00  0.00     0.014 A 
HETATM    4  C   LIG     1      26.650  27.090  32.607  1.00  0.00     0.001 A 
HETATM    5  C   LIG     1      27.106  25.890  33.148  1.00  0.00     0.002 A 
HETATM    6  C   LIG     1      27.370  25.796  34.514  1.00  0.00     0.032 A 
HETATM    7  C   LIG     1      27.178  26.904  35.348  1.00  0.00     0.067 A 
HETATM    8  N   LIG     1      27.444  26.782  36.674  1.00  0.00    -0.259 NA
HETATM    9  C   LIG     1      27.281  27.811  37.539  1.00  0.00     0.129 A 
HETATM   10  C   LIG     1      26.827  29.052  37.085  1.00  0.00    -0.007 A 
HETATM   11  C   LIG     1      26.664  30.110  37.994  1.00  0.00     0.014 A 
HETATM   12  C   LIG     1      26.211  31.351  37.552  1.00  0.00     0.001 A 
HETATM   13  C   LIG     1      25.919  31.549  36.204  1.00  0.00     0.001 A 
HETATM   14  C   LIG     1      26.077  30.507  35.286  1.00  0.00     0.013 A 
ENDROOT
TORSDOF 0
ENDMDL
MODEL 18
REMARK VINA RESULT:      -4.9     16.080     17.404
REMARK  0 active torsions:
REMARK  status: ('A' for Active; 'I' for Inactive)
ROOT
HETATM    1  C   LIG     1      26.748  28.022  34.688  1.00  0.00    -0.012 A 
HETATM    2  C   LIG     1      26.546  29.122  35.572  1.00  0.00     0.004 A 
HETATM    3  C   LIG     1      26.090  30.394  35.148  1.00  0.00     0.014 A 
HETATM    4  C   LIG     1      25.912  31.430  36.067  1.00  0.00     0.001 A 
HETATM    5  C   LIG     1      26.183  31.228  37.420  1.00  0.00     0.002 A 
HETATM    6  C   LIG     1      26.633  29.986  37.863  1.00  0.00     0.032 A 
HETATM    7  C   LIG     1      26.816  28.936  36.954  1.00  0.00     0.067 A 
HETATM    8  N   LIG     1      27.255  27.737  37.415  1.00  0.00    -0.259 NA
HETATM    9  C   LIG     1      27.454  26.678  36.595  1.00  0.00     0.129 A 
HETATM   10  C   LIG     1      27.209  26.790  35.224  1.00  0.00    -0.007 A 
HETATM   11  C   LIG     1      27.419  25.683  34.386  1.00  0.00     0.014 A 
HETATM   12  C   LIG     1      27.178  25.783  33.017  1.00  0.00     0.001 A 
HETATM   13  C   LIG     1      26.726  26.983  32.473  1.00  0.00     0.001 A 
HETATM   14  C   LIG     1      26.511  28.095  33.294  1.00  0.00     0.013 A 
ENDROOT
TORSDOF 0
ENDMDL
