MODEL 1
REMARK VINA RESULT:      -7.4      0.000      0.000
REMARK  0 active torsions:
REMARK  status: ('A' for Active; 'I' for Inactive)
ROOT
HETATM    1  C   LIG     1      16.945  36.301  20.818  1.00  0.00     0.079 A 
HETATM    2  C   LIG     1      17.995  37.206  20.552  1.00  0.00     0.022 A 
HETATM    3  C   LIG     1      18.942  36.978  19.539  1.00  0.00     0.017 A 
HETATM    4  C   LIG     1      19.962  37.903  19.315  1.00  0.00     0.020 A 
HETATM    5  C   LIG     1      20.034  39.053  20.103  1.00  0.00     0.117 A 
HETATM    6  N   LIG     1      19.116  39.268  21.081  1.00  0.00    -0.260 NA
HETATM    7  C   LIG     1      18.108  38.387  21.326  1.00  0.00     0.069 A 
HETATM    8  C   LIG     1      17.187  38.651  22.345  1.00  0.00     0.033 A 
HETATM    9  C   LIG     1      16.148  37.756  22.607  1.00  0.00     0.016 A 
HETATM   10  C   LIG     1      16.020  36.582  21.851  1.00  0.00    -0.006 A 
HETATM   11  C   LIG     1      14.984  35.673  22.102  1.00  0.00     0.015 A 
HETATM   12  C   LIG     1      14.876  34.512  21.336  1.00  0.00     0.020 A 
HETATM   13  C   LIG     1      15.807  34.268  20.326  1.00  0.00     0.117 A 
HETATM   14  N   LIG     1      16.809  35.155  20.090  1.00  0.00    -0.259 NA
ENDROOT
TORSDOF 0
ENDMDL
MODEL 2
REMARK VINA RESULT:      -7.4      2.943      4.353
REMARK  0 active torsions:
REMARK  status: ('A' for Active; 'I' for Inactive)
ROOT
HETATM    1  C   LIG     1      17.371  35.884  24.206  1.00  0.00     0.079 A 
HETATM    2  C   LIG     1      16.981  35.758  22.855  1.00  0.00     0.022 A 
HETATM    3  C   LIG     1      16.543  34.536  22.314  1.00  0.00     0.017 A 
HETATM    4  C   LIG     1      16.168  34.462  20.972  1.00  0.00     0.020 A 
HETATM    5  C   LIG     1      16.231  35.605  20.175  1.00  0.00     0.117 A 
HETATM    6  N   LIG     1      16.656  36.783  20.703  1.00  0.00    -0.260 NA
HETATM    7  C   LIG     1      17.028  36.891  22.008  1.00  0.00     0.069 A 
HETATM    8  C   LIG     1      17.459  38.126  22.507  1.00  0.00     0.033 A 
HETATM    9  C   LIG     1      17.844  38.251  23.842  1.00  0.00     0.016 A 
HETATM   10  C   LIG     1      17.804  37.140  24.696  1.00  0.00    -0.006 A 
HETATM   11  C   LIG     1      18.187  37.249  26.039  1.00  0.00     0.015 A 
HETATM   12  C   LIG     1      18.138  36.129  26.870  1.00  0.00     0.020 A 
HETATM   13  C   LIG     1      17.706  34.908  26.351  1.00  0.00     0.117 A 
HETATM   14  N   LIG     1      17.336  34.812  25.048  1.00  0.00    -0.259 NA
ENDROOT
TORSDOF 0
ENDMDL
MODEL 3
REMARK VINA RESULT:      -7.3      1.883      3.398
REMARK  0 active torsions:
REMARK  status: ('A' for Active; 'I' for Inactive)
ROOT
HETATM    1  C   LIG     1      17.759  37.561  22.722  1.00  0.00     0.079 A 
HETATM    2  C   LIG     1      18.115  37.730  21.366  1.00  0.00     0.022 A 
HETATM    3  C   LIG     1      18.673  38.927  20.883  1.00  0.00     0.017 A 
HETATM    4  C   LIG     1      19.009  39.046  19.534  1.00  0.00     0.020 A 
HETATM    5  C   LIG     1      18.787  37.971  18.672  1.00  0.00     0.117 A 
HETATM    6  N   LIG     1      18.248  36.817  19.145  1.00  0.00    -0.260 NA
HETATM    7  C   LIG     1      17.909  36.666  20.455  1.00  0.00     0.069 A 
HETATM    8  C   LIG     1      17.357  35.459  20.895  1.00  0.00     0.033 A 
HETATM    9  C   LIG     1      17.005  35.291  22.235  1.00  0.00     0.016 A 
HETATM   10  C   LIG     1      17.202  36.333  23.153  1.00  0.00    -0.006 A 
HETATM   11  C   LIG     1      16.853  36.181  24.501  1.00  0.00     0.015 A 
HETATM   12  C   LIG     1      17.059  37.231  25.396  1.00  0.00     0.020 A 
HETATM   13  C   LIG     1      17.611  38.427  24.935  1.00  0.00     0.117 A 
HETATM   14  N   LIG     1      17.946  38.565  23.625  1.00  0.00    -0.259 NA
ENDROOT
TORSDOF 0
ENDMDL
MODEL 4
REMARK VINA RESULT:      -7.2      1.851      4.546
REMARK  0 active torsions:
REMARK  status: ('A' for Active; 'I' for Inactive)
ROOT
HETATM    1  C   LIG     1      18.228  37.941  21.390  1.00  0.00     0.079 A 
HETATM    2  C   LIG     1      17.818  37.704  22.720  1.00  0.00     0.022 A 
HETATM    3  C   LIG     1      17.982  38.662  23.736  1.00  0.00     0.017 A 
HETATM    4  C   LIG     1      17.561  38.381  25.036  1.00  0.00     0.020 A 
HETATM    5  C   LIG     1      16.977  37.146  25.318  1.00  0.00     0.117 A 
HETATM    6  N   LIG     1      16.821  36.223  24.332  1.00  0.00    -0.260 NA
HETATM    7  C   LIG     1      17.220  36.465  23.054  1.00  0.00     0.069 A 
HETATM    8  C   LIG     1      17.039  35.484  22.073  1.00  0.00     0.033 A 
HETATM    9  C   LIG     1      17.444  35.718  20.758  1.00  0.00     0.016 A 
HETATM   10  C   LIG     1      18.037  36.940  20.409  1.00  0.00    -0.006 A 
HETATM   11  C   LIG     1      18.450  37.190  19.093  1.00  0.00     0.015 A 
HETATM   12  C   LIG     1      19.038  38.413  18.769  1.00  0.00     0.020 A 
HETATM   13  C   LIG     1      19.210  39.376  19.764  1.00  0.00     0.117 A 
HETATM   14  N   LIG     1      18.807  39.125  21.037  1.00  0.00    -0.259 NA
ENDROOT
TORSDOF 0
ENDMDL
MODEL 5
REMARK VINA RESULT:      -7.2      2.958      4.157
REMARK  0 active torsions:
REMARK  status: ('A' for Active; 'I' for Inactive)
ROOT
HETATM    1  C   LIG     1      16.945  35.752  22.865  1.00  0.00     0.079 A 
HETATM    2  C   LIG     1      17.349  35.898  24.209  1.00  0.00     0.022 A 
HETATM    3  C   LIG     1      17.318  34.827  25.120  1.00  0.00     0.017 A 
HETATM    4  C   LIG     1      17.727  35.021  26.440  1.00  0.00     0.020 A 
HETATM    5  C   LIG     1      18.166  36.282  26.846  1.00  0.00     0.117 A 
HETATM    6  N   LIG     1      18.193  37.313  25.962  1.00  0.00    -0.260 NA
HETATM    7  C   LIG     1      17.801  37.159  24.667  1.00  0.00     0.069 A 
HETATM    8  C   LIG     1      17.847  38.251  23.794  1.00  0.00     0.033 A 
HETATM    9  C   LIG     1      17.448  38.107  22.464  1.00  0.00     0.016 A 
HETATM   10  C   LIG     1      16.997  36.866  21.992  1.00  0.00    -0.006 A 
HETATM   11  C   LIG     1      16.593  36.705  20.660  1.00  0.00     0.015 A 
HETATM   12  C   LIG     1      16.149  35.460  20.213  1.00  0.00     0.020 A 
HETATM   13  C   LIG     1      16.111  34.386  21.102  1.00  0.00     0.117 A 
HETATM   14  N   LIG     1      16.505  34.551  22.392  1.00  0.00    -0.259 NA
ENDROOT
TORSDOF 0
ENDMDL
MODEL 6
REMARK VINA RESULT:      -7.1      1.162      4.335
REMARK  0 active torsions:
REMARK  status: ('A' for Active; 'I' for Inactive)
ROOT
HETATM    1  C   LIG     1      17.820  37.226  20.669  1.00  0.00     0.079 A 
HETATM    2  C   LIG     1      16.808  36.272  20.909  1.00  0.00     0.022 A 
HETATM    3  C   LIG     1      16.690  35.097  20.145  1.00  0.00     0.017 A 
HETATM    4  C   LIG     1      15.672  34.183  20.421  1.00  0.00     0.020 A 
HETATM    5  C   LIG     1      14.776  34.445  21.458  1.00  0.00     0.117 A 
HETATM    6  N   LIG     1      14.894  35.582  22.193  1.00  0.00    -0.260 NA
HETATM    7  C   LIG     1      15.875  36.493  21.951  1.00  0.00     0.069 A 
HETATM    8  C   LIG     1      15.957  37.650  22.735  1.00  0.00     0.033 A 
HETATM    9  C   LIG     1      16.958  38.593  22.497  1.00  0.00     0.016 A 
HETATM   10  C   LIG     1      17.890  38.390  21.470  1.00  0.00    -0.006 A 
HETATM   11  C   LIG     1      18.900  39.328  21.219  1.00  0.00     0.015 A 
HETATM   12  C   LIG     1      19.817  39.105  20.191  1.00  0.00     0.020 A 
HETATM   13  C   LIG     1      19.716  37.945  19.422  1.00  0.00     0.117 A 
HETATM   14  N   LIG     1      18.733  37.041  19.673  1.00  0.00    -0.259 NA
ENDROOT
TORSDOF 0
ENDMDL
MODEL 7
REMARK VINA RESULT:      -6.8      6.086      8.095
REMARK  0 active torsions:
REMARK  status: ('A' for Active; 'I' for Inactive)
ROOT
HETATM    1  C   LIG     1      15.654  32.355  15.880  1.00  0.00     0.079 A 
HETATM    2  C   LIG     1      16.524  32.722  14.831  1.00  0.00     0.022 A 
HETATM    3  C   LIG     1      17.463  33.759  14.966  1.00  0.00     0.017 A 
HETATM    4  C   LIG     1      18.302  34.086  13.900  1.00  0.00     0.020 A 
HETATM    5  C   LIG     1      18.201  33.376  12.703  1.00  0.00     0.117 A 
HETATM    6  N   LIG     1      17.291  32.375  12.577  1.00  0.00    -0.260 NA
HETATM    7  C   LIG     1      16.458  32.030  13.597  1.00  0.00     0.069 A 
HETATM    8  C   LIG     1      15.537  30.992  13.420  1.00  0.00     0.033 A 
HETATM    9  C   LIG     1      14.677  30.629  14.458  1.00  0.00     0.016 A 
HETATM   10  C   LIG     1      14.728  31.302  15.686  1.00  0.00    -0.006 A 
HETATM   11  C   LIG     1      13.871  30.949  16.737  1.00  0.00     0.015 A 
HETATM   12  C   LIG     1      13.940  31.633  17.951  1.00  0.00     0.020 A 
HETATM   13  C   LIG     1      14.866  32.666  18.105  1.00  0.00     0.117 A 
HETATM   14  N   LIG     1      15.693  33.001  17.080  1.00  0.00    -0.259 NA
ENDROOT
TORSDOF 0
ENDMDL
MODEL 8
REMARK VINA RESULT:      -6.7      1.989      4.130
REMARK  0 active torsions:
REMARK  status: ('A' for Active; 'I' for Inactive)
ROOT
HETATM    1  C   LIG     1      18.090  37.374  20.939  1.00  0.00     0.079 A 
HETATM    2  C   LIG     1      17.650  36.786  22.145  1.00  0.00     0.022 A 
HETATM    3  C   LIG     1      17.337  35.419  22.240  1.00  0.00     0.017 A 
HETATM    4  C   LIG     1      16.906  34.884  23.455  1.00  0.00     0.020 A 
HETATM    5  C   LIG     1      16.789  35.715  24.570  1.00  0.00     0.117 A 
HETATM    6  N   LIG     1      17.093  37.036  24.472  1.00  0.00    -0.260 NA
HETATM    7  C   LIG     1      17.516  37.590  23.303  1.00  0.00     0.069 A 
HETATM    8  C   LIG     1      17.817  38.955  23.251  1.00  0.00     0.033 A 
HETATM    9  C   LIG     1      18.252  39.536  22.059  1.00  0.00     0.016 A 
HETATM   10  C   LIG     1      18.391  38.757  20.902  1.00  0.00    -0.006 A 
HETATM   11  C   LIG     1      18.826  39.325  19.697  1.00  0.00     0.015 A 
HETATM   12  C   LIG     1      18.957  38.528  18.559  1.00  0.00     0.020 A 
HETATM   13  C   LIG     1      18.650  37.169  18.634  1.00  0.00     0.117 A 
HETATM   14  N   LIG     1      18.229  36.627  19.806  1.00  0.00    -0.259 NA
ENDROOT
TORSDOF 0
ENDMDL
MODEL 9
REMARK VINA RESULT:      -6.6      1.665      1.973
REMARK  0 active torsions:
REMARK  status: ('A' for Active; 'I' for Inactive)
ROOT
HETATM    1  C   LIG     1      17.707  36.885  21.810  1.00  0.00     0.079 A 
HETATM    2  C   LIG     1      18.192  37.588  20.687  1.00  0.00     0.022 A 
HETATM    3  C   LIG     1      18.388  36.965  19.442  1.00  0.00     0.017 A 
HETATM    4  C   LIG     1      18.870  37.703  18.360  1.00  0.00     0.020 A 
HETATM    5  C   LIG     1      19.154  39.060  18.524  1.00  0.00     0.117 A 
HETATM    6  N   LIG     1      18.962  39.656  19.730  1.00  0.00    -0.260 NA
HETATM    7  C   LIG     1      18.493  38.966  20.805  1.00  0.00     0.069 A 
HETATM    8  C   LIG     1      18.313  39.624  22.027  1.00  0.00     0.033 A 
HETATM    9  C   LIG     1      17.833  38.929  23.138  1.00  0.00     0.016 A 
HETATM   10  C   LIG     1      17.528  37.564  23.039  1.00  0.00    -0.006 A 
HETATM   11  C   LIG     1      17.046  36.851  24.146  1.00  0.00     0.015 A 
HETATM   12  C   LIG     1      16.749  35.493  24.023  1.00  0.00     0.020 A 
HETATM   13  C   LIG     1      16.938  34.858  22.796  1.00  0.00     0.117 A 
HETATM   14  N   LIG     1      17.406  35.557  21.729  1.00  0.00    -0.259 NA
ENDROOT
TORSDOF 0
ENDMDL
MODEL 10
REMARK VINA RESULT:      -6.6      6.282      8.058
REMARK  0 active torsions:
REMARK  status: ('A' for Active; 'I' for Inactive)
ROOT
HETATM    1  C   LIG     1      15.390  31.279  14.641  1.00  0.00     0.079 A 
HETATM    2  C   LIG     1      16.086  32.493  14.826  1.00  0.00     0.022 A 
HETATM    3  C   LIG     1      17.150  32.880  13.993  1.00  0.00     0.017 A 
HETATM    4  C   LIG     1      17.808  34.090  14.216  1.00  0.00     0.020 A 
HETATM    5  C   LIG     1      17.401  34.910  15.269  1.00  0.00     0.117 A 
HETATM    6  N   LIG     1      16.371  34.531  16.071  1.00  0.00    -0.260 NA
HETATM    7  C   LIG     1      15.708  33.358  15.881  1.00  0.00     0.069 A 
HETATM    8  C   LIG     1      14.655  33.010  16.734  1.00  0.00     0.033 A 
HETATM    9  C   LIG     1      13.966  31.810  16.551  1.00  0.00     0.016 A 
HETATM   10  C   LIG     1      14.326  30.941  15.511  1.00  0.00    -0.006 A 
HETATM   11  C   LIG     1      13.645  29.732  15.315  1.00  0.00     0.015 A 
HETATM   12  C   LIG     1      14.021  28.883  14.272  1.00  0.00     0.020 A 
HETATM   13  C   LIG     1      15.075  29.250  13.435  1.00  0.00     0.117 A 
HETATM   14  N   LIG     1      15.729  30.424  13.634  1.00  0.00    -0.259 NA
ENDROOT
TORSDOF 0
ENDMDL
MODEL 11
REMARK VINA RESULT:      -6.2      1.818      4.403
REMARK  0 active torsions:
REMARK  status: ('A' for Active; 'I' for Inactive)
ROOT
HETATM    1  C   LIG     1      17.098  36.682  22.923  1.00  0.00     0.079 A 
HETATM    2  C   LIG     1      16.632  35.890  21.851  1.00  0.00     0.022 A 
HETATM    3  C   LIG     1      15.809  34.768  22.051  1.00  0.00     0.017 A 
HETATM    4  C   LIG     1      15.374  34.017  20.958  1.00  0.00     0.020 A 
HETATM    5  C   LIG     1      15.761  34.388  19.670  1.00  0.00     0.117 A 
HETATM    6  N   LIG     1      16.557  35.474  19.483  1.00  0.00    -0.260 NA
HETATM    7  C   LIG     1      16.999  36.229  20.526  1.00  0.00     0.069 A 
HETATM    8  C   LIG     1      17.816  37.338  20.283  1.00  0.00     0.033 A 
HETATM    9  C   LIG     1      18.276  38.120  21.343  1.00  0.00     0.016 A 
HETATM   10  C   LIG     1      17.923  37.801  22.661  1.00  0.00    -0.006 A 
HETATM   11  C   LIG     1      18.378  38.576  23.736  1.00  0.00     0.015 A 
HETATM   12  C   LIG     1      18.013  38.239  25.041  1.00  0.00     0.020 A 
HETATM   13  C   LIG     1      17.198  37.129  25.260  1.00  0.00     0.117 A 
HETATM   14  N   LIG     1      16.762  36.383  24.211  1.00  0.00    -0.259 NA
ENDROOT
TORSDOF 0
ENDMDL
MODEL 12
REMARK VINA RESULT:      -6.2      6.404      9.074
REMARK  0 active torsions:
REMARK  status: ('A' for Active; 'I' for Inactive)
ROOT
HETATM    1  C   LIG     1      16.230  32.804  14.946  1.00  0.00     0.079 A 
HETATM    2  C   LIG     1      15.331  32.183  15.840  1.00  0.00     0.022 A 
HETATM    3  C   LIG     1      15.128  32.658  17.147  1.00  0.00     0.017 A 
HETATM    4  C   LIG     1      14.228  32.010  17.995  1.00  0.00     0.020 A 
HETATM    5  C   LIG     1      13.534  30.890  17.534  1.00  0.00     0.117 A 
HETATM    6  N   LIG     1      13.735  30.435  16.269  1.00  0.00    -0.260 NA
HETATM    7  C   LIG     1      14.604  31.044  15.417  1.00  0.00     0.069 A 
HETATM    8  C   LIG     1      14.777  30.539  14.124  1.00  0.00     0.033 A 
HETATM    9  C   LIG     1      15.666  31.153  13.240  1.00  0.00     0.016 A 
HETATM   10  C   LIG     1      16.394  32.282  13.641  1.00  0.00    -0.006 A 
HETATM   11  C   LIG     1      17.290  32.909  12.765  1.00  0.00     0.015 A 
HETATM   12  C   LIG     1      18.003  34.033  13.187  1.00  0.00     0.020 A 
HETATM   13  C   LIG     1      17.815  34.519  14.481  1.00  0.00     0.117 A 
HETATM   14  N   LIG     1      16.944  33.903  15.323  1.00  0.00    -0.259 NA
ENDROOT
TORSDOF 0
ENDMDL
MODEL 13
REMARK VINA RESULT:      -6.2      6.813      9.184
REMARK  0 active torsions:
REMARK  status: ('A' for Active; 'I' for Inactive)
ROOT
HETATM    1  C   LIG     1      16.288  32.338  14.278  1.00  0.00     0.079 A 
HETATM    2  C   LIG     1      15.285  31.397  14.591  1.00  0.00     0.022 A 
HETATM    3  C   LIG     1      14.998  30.303  13.755  1.00  0.00     0.017 A 
HETATM    4  C   LIG     1      13.995  29.399  14.107  1.00  0.00     0.020 A 
HETATM    5  C   LIG     1      13.283  29.588  15.292  1.00  0.00     0.117 A 
HETATM    6  N   LIG     1      13.565  30.647  16.096  1.00  0.00    -0.260 NA
HETATM    7  C   LIG     1      14.536  31.547  15.783  1.00  0.00     0.069 A 
HETATM    8  C   LIG     1      14.789  32.622  16.643  1.00  0.00     0.033 A 
HETATM    9  C   LIG     1      15.782  33.552  16.334  1.00  0.00     0.016 A 
HETATM   10  C   LIG     1      16.534  33.420  15.158  1.00  0.00    -0.006 A 
HETATM   11  C   LIG     1      17.534  34.346  14.834  1.00  0.00     0.015 A 
HETATM   12  C   LIG     1      18.270  34.193  13.658  1.00  0.00     0.020 A 
HETATM   13  C   LIG     1      17.999  33.115  12.815  1.00  0.00     0.117 A 
HETATM   14  N   LIG     1      17.028  32.221  13.138  1.00  0.00    -0.259 NA
ENDROOT
TORSDOF 0
ENDMDL
MODEL 14
REMARK VINA RESULT:      -5.9      7.314     10.217
REMARK  0 active torsions:
REMARK  status: ('A' for Active; 'I' for Inactive)
ROOT
HETATM    1  C   LIG     1      15.355  30.972  14.921  1.00  0.00     0.079 A 
HETATM    2  C   LIG     1      14.843  29.762  14.403  1.00  0.00     0.022 A 
HETATM    3  C   LIG     1      15.602  28.927  13.564  1.00  0.00     0.017 A 
HETATM    4  C   LIG     1      15.052  27.740  13.078  1.00  0.00     0.020 A 
HETATM    5  C   LIG     1      13.747  27.392  13.429  1.00  0.00     0.117 A 
HETATM    6  N   LIG     1      13.019  28.203  14.240  1.00  0.00    -0.260 NA
HETATM    7  C   LIG     1      13.525  29.367  14.733  1.00  0.00     0.069 A 
HETATM    8  C   LIG     1      12.736  30.170  15.564  1.00  0.00     0.033 A 
HETATM    9  C   LIG     1      13.242  31.365  16.076  1.00  0.00     0.016 A 
HETATM   10  C   LIG     1      14.546  31.773  15.761  1.00  0.00    -0.006 A 
HETATM   11  C   LIG     1      15.068  32.971  16.267  1.00  0.00     0.015 A 
HETATM   12  C   LIG     1      16.369  33.356  15.939  1.00  0.00     0.020 A 
HETATM   13  C   LIG     1      17.137  32.540  15.108  1.00  0.00     0.117 A 
HETATM   14  N   LIG     1      16.622  31.380  14.622  1.00  0.00    -0.259 NA
ENDROOT
TORSDOF 0
ENDMDL
MODEL 15
REMARK VINA RESULT:      -5.6      6.558      8.117
REMARK  0 active torsions:
REMARK  status: ('A' for Active; 'I' for Inactive)
ROOT
HETATM    1  C   LIG     1      15.575  31.522  14.377  1.00  0.00     0.079 A 
HETATM    2  C   LIG     1      16.503  32.547  14.094  1.00  0.00     0.022 A 
HETATM    3  C   LIG     1      17.311  32.528  12.944  1.00  0.00     0.017 A 
HETATM    4  C   LIG     1      18.214  33.565  12.707  1.00  0.00     0.020 A 
HETATM    5  C   LIG     1      18.307  34.618  13.619  1.00  0.00     0.117 A 
HETATM    6  N   LIG     1      17.523  34.631  14.729  1.00  0.00    -0.260 NA
HETATM    7  C   LIG     1      16.632  33.636  14.990  1.00  0.00     0.069 A 
HETATM    8  C   LIG     1      15.847  33.693  16.146  1.00  0.00     0.033 A 
HETATM    9  C   LIG     1      14.929  32.679  16.426  1.00  0.00     0.016 A 
HETATM   10  C   LIG     1      14.787  31.594  15.551  1.00  0.00    -0.006 A 
HETATM   11  C   LIG     1      13.870  30.568  15.818  1.00  0.00     0.015 A 
HETATM   12  C   LIG     1      13.746  29.498  14.931  1.00  0.00     0.020 A 
HETATM   13  C   LIG     1      14.540  29.461  13.785  1.00  0.00     0.117 A 
HETATM   14  N   LIG     1      15.426  30.460  13.534  1.00  0.00    -0.259 NA
ENDROOT
TORSDOF 0
ENDMDL
MODEL 16
REMARK VINA RESULT:      -5.0     19.404     20.764
REMARK  0 active torsions:
REMARK  status: ('A' for Active; 'I' for Inactive)
ROOT
HETATM    1  C   LIG     1      13.116  18.124  13.384  1.00  0.00     0.079 A 
HETATM    2  C   LIG     1      14.202  18.221  14.281  1.00  0.00     0.022 A 
HETATM    3  C   LIG     1      14.017  18.319  15.672  1.00  0.00     0.017 A 
HETATM    4  C   LIG     1      15.123  18.413  16.518  1.00  0.00     0.020 A 
HETATM    5  C   LIG     1      16.408  18.409  15.974  1.00  0.00     0.117 A 
HETATM    6  N   LIG     1      16.580  18.314  14.630  1.00  0.00    -0.260 NA
HETATM    7  C   LIG     1      15.524  18.221  13.776  1.00  0.00     0.069 A 
HETATM    8  C   LIG     1      15.752  18.126  12.399  1.00  0.00     0.033 A 
HETATM    9  C   LIG     1      14.678  18.030  11.512  1.00  0.00     0.016 A 
HETATM   10  C   LIG     1      13.362  18.028  11.994  1.00  0.00    -0.006 A 
HETATM   11  C   LIG     1      12.273  17.933  11.116  1.00  0.00     0.015 A 
HETATM   12  C   LIG     1      10.972  17.933  11.620  1.00  0.00     0.020 A 
HETATM   13  C   LIG     1      10.769  18.029  12.997  1.00  0.00     0.117 A 
HETATM   14  N   LIG     1      11.830  18.121  13.840  1.00  0.00    -0.259 NA
ENDROOT
TORSDOF 0
ENDMDL
MODEL 17
REMARK VINA RESULT:      -4.8      3.252      5.658
REMARK  0 active torsions:
REMARK  status: ('A' for Active; 'I' for Inactive)
ROOT
HETATM    1  C   LIG     1      15.386  33.361  18.132  1.00  0.00     0.079 A 
HETATM    2  C   LIG     1      15.508  33.997  19.387  1.00  0.00     0.022 A 
HETATM    3  C   LIG     1      16.049  35.287  19.522  1.00  0.00     0.017 A 
HETATM    4  C   LIG     1      16.149  35.874  20.784  1.00  0.00     0.020 A 
HETATM    5  C   LIG     1      15.708  35.171  21.906  1.00  0.00     0.117 A 
HETATM    6  N   LIG     1      15.185  33.924  21.769  1.00  0.00    -0.260 NA
HETATM    7  C   LIG     1      15.073  33.323  20.554  1.00  0.00     0.069 A 
HETATM    8  C   LIG     1      14.529  32.037  20.463  1.00  0.00     0.033 A 
HETATM    9  C   LIG     1      14.408  31.409  19.223  1.00  0.00     0.016 A 
HETATM   10  C   LIG     1      14.832  32.060  18.056  1.00  0.00    -0.006 A 
HETATM   11  C   LIG     1      14.718  31.443  16.804  1.00  0.00     0.015 A 
HETATM   12  C   LIG     1      15.147  32.111  15.656  1.00  0.00     0.020 A 
HETATM   13  C   LIG     1      15.688  33.392  15.771  1.00  0.00     0.117 A 
HETATM   14  N   LIG     1      15.794  33.983  16.989  1.00  0.00    -0.259 NA
ENDROOT
TORSDOF 0
ENDMDL
MODEL 18
REMARK VINA RESULT:      -4.8      3.169      6.276
REMARK  0 active torsions:
REMARK  status: ('A' for Active; 'I' for Inactive)
ROOT
HETATM    1  C   LIG     1      15.542  33.897  19.160  1.00  0.00     0.079 A 
HETATM    2  C   LIG     1      15.107  33.044  18.123  1.00  0.00     0.022 A 
HETATM    3  C   LIG     1      15.253  33.382  16.766  1.00  0.00     0.017 A 
HETATM    4  C   LIG     1      14.807  32.505  15.776  1.00  0.00     0.020 A 
HETATM    5  C   LIG     1      14.218  31.295  16.144  1.00  0.00     0.117 A 
HETATM    6  N   LIG     1      14.080  30.974  17.457  1.00  0.00    -0.260 NA
HETATM    7  C   LIG     1      14.504  31.805  18.448  1.00  0.00     0.069 A 
HETATM    8  C   LIG     1      14.339  31.431  19.786  1.00  0.00     0.033 A 
HETATM    9  C   LIG     1      14.770  32.274  20.811  1.00  0.00     0.016 A 
HETATM   10  C   LIG     1      15.370  33.505  20.510  1.00  0.00    -0.006 A 
HETATM   11  C   LIG     1      15.806  34.363  21.528  1.00  0.00     0.015 A 
HETATM   12  C   LIG     1      16.402  35.582  21.203  1.00  0.00     0.020 A 
HETATM   13  C   LIG     1      16.554  35.935  19.862  1.00  0.00     0.117 A 
HETATM   14  N   LIG     1      16.128  35.097  18.881  1.00  0.00    -0.259 NA
ENDROOT
TORSDOF 0
ENDMDL
