REMARK  0 active torsions:
REMARK  status: ('A' for Active; 'I' for Inactive)
ROOT
HETATM    1  C   LIG     1       0.618  -0.303  -0.149  1.00  0.00     0.079 A 
HETATM    2  C   LIG     1      -0.791  -0.374  -0.103  1.00  0.00     0.022 A 
HETATM    3  C   LIG     1      -1.496  -1.521  -0.508  1.00  0.00     0.017 A 
HETATM    4  C   LIG     1      -2.890  -1.543  -0.444  1.00  0.00     0.020 A 
HETATM    5  C   LIG     1      -3.575  -0.421   0.024  1.00  0.00     0.117 A 
HETATM    6  N   LIG     1      -2.888   0.685   0.414  1.00  0.00    -0.260 NA
HETATM    7  C   LIG     1      -1.529   0.740   0.365  1.00  0.00     0.069 A 
HETATM    8  C   LIG     1      -0.866   1.901   0.777  1.00  0.00     0.033 A 
HETATM    9  C   LIG     1       0.527   1.971   0.732  1.00  0.00     0.016 A 
HETATM   10  C   LIG     1       1.275   0.878   0.272  1.00  0.00    -0.006 A 
HETATM   11  C   LIG     1       2.674   0.933   0.220  1.00  0.00     0.015 A 
HETATM   12  C   LIG     1       3.397  -0.168  -0.241  1.00  0.00     0.020 A 
HETATM   13  C   LIG     1       2.715  -1.315  -0.648  1.00  0.00     0.117 A 
HETATM   14  N   LIG     1       1.358  -1.359  -0.594  1.00  0.00    -0.259 NA
ENDROOT
TORSDOF 0
