MODEL 1
REMARK VINA RESULT:      -5.7      0.000      0.000
REMARK  5 active torsions:
REMARK  status: ('A' for Active; 'I' for Inactive)
REMARK       I    between atoms: C_2  and  N_9 
REMARK    1  A    between atoms: C_2  and  S_3 
REMARK    2  A    between atoms: S_3  and  C_4 
REMARK    3  A    between atoms: C_4  and  C_5 
REMARK    4  A    between atoms: N_9  and  C_10 
REMARK    5  A    between atoms: N_9  and  C_13 
ROOT
HETATM    1  O   LIG     1      14.760  36.032  21.922  1.00  0.00    -0.260 OA
HETATM    2  C   LIG     1      15.804  36.035  21.217  1.00  0.00     0.282 C 
HETATM    3  N   LIG     1      16.993  36.720  21.677  1.00  0.00    -0.335 N 
ENDROOT
BRANCH   2   4
HETATM    4  S   LIG     1      15.769  35.150  19.650  1.00  0.00    -0.064 SA
BRANCH   4   5
HETATM    5  C   LIG     1      15.767  33.490  20.414  1.00  0.00     0.136 C 
BRANCH   5   6
HETATM    6  C   LIG     1      15.183  32.460  19.484  1.00  0.00     0.032 C 
HETATM    7  C   LIG     1      14.964  32.755  18.193  1.00  0.00     0.104 C 
HETATM    8 CL   LIG     1      14.292  31.587  17.058  1.00  0.00    -0.096 Cl
HETATM    9 CL   LIG     1      14.814  30.858  20.128  1.00  0.00    -0.087 Cl
ENDBRANCH   5   6
ENDBRANCH   4   5
ENDBRANCH   2   4
BRANCH   3  10
HETATM   10  C   LIG     1      17.263  36.703  23.143  1.00  0.00     0.080 C 
HETATM   11  C   LIG     1      16.405  37.724  23.902  1.00  0.00     0.032 C 
HETATM   12  C   LIG     1      17.171  35.308  23.770  1.00  0.00     0.032 C 
ENDBRANCH   3  10
BRANCH   3  13
HETATM   13  C   LIG     1      17.810  37.455  20.672  1.00  0.00     0.080 C 
HETATM   14  C   LIG     1      18.862  36.584  19.978  1.00  0.00     0.032 C 
HETATM   15  C   LIG     1      18.421  38.732  21.262  1.00  0.00     0.032 C 
ENDBRANCH   3  13
TORSDOF 5
ENDMDL
MODEL 2
REMARK VINA RESULT:      -5.7      3.923      5.293
REMARK  5 active torsions:
REMARK  status: ('A' for Active; 'I' for Inactive)
REMARK       I    between atoms: C_2  and  N_9 
REMARK    1  A    between atoms: C_2  and  S_3 
REMARK    2  A    between atoms: S_3  and  C_4 
REMARK    3  A    between atoms: C_4  and  C_5 
REMARK    4  A    between atoms: N_9  and  C_10 
REMARK    5  A    between atoms: N_9  and  C_13 
ROOT
HETATM    1  O   LIG     1      19.198  38.513  23.810  1.00  0.00    -0.260 OA
HETATM    2  C   LIG     1      18.201  38.393  23.050  1.00  0.00     0.282 C 
HETATM    3  N   LIG     1      17.215  37.362  23.297  1.00  0.00    -0.335 N 
ENDROOT
BRANCH   2   4
HETATM    4  S   LIG     1      18.038  39.548  21.679  1.00  0.00    -0.064 SA
BRANCH   4   5
HETATM    5  C   LIG     1      19.465  38.883  20.751  1.00  0.00     0.136 C 
BRANCH   5   6
HETATM    6  C   LIG     1      19.084  38.537  19.336  1.00  0.00     0.032 C 
HETATM    7  C   LIG     1      19.110  39.475  18.375  1.00  0.00     0.104 C 
HETATM    8 CL   LIG     1      18.685  39.126  16.702  1.00  0.00    -0.096 Cl
HETATM    9 CL   LIG     1      18.625  36.872  18.970  1.00  0.00    -0.087 Cl
ENDBRANCH   5   6
ENDBRANCH   4   5
ENDBRANCH   2   4
BRANCH   3  10
HETATM   10  C   LIG     1      16.925  37.026  24.721  1.00  0.00     0.080 C 
HETATM   11  C   LIG     1      17.585  35.711  25.152  1.00  0.00     0.032 C 
HETATM   12  C   LIG     1      17.239  38.165  25.698  1.00  0.00     0.032 C 
ENDBRANCH   3  10
BRANCH   3  13
HETATM   13  C   LIG     1      16.627  36.660  22.123  1.00  0.00     0.080 C 
HETATM   14  C   LIG     1      15.096  36.686  22.093  1.00  0.00     0.032 C 
HETATM   15  C   LIG     1      17.180  35.236  21.978  1.00  0.00     0.032 C 
ENDBRANCH   3  13
TORSDOF 5
ENDMDL
MODEL 3
REMARK VINA RESULT:      -5.3      6.625      8.577
REMARK  5 active torsions:
REMARK  status: ('A' for Active; 'I' for Inactive)
REMARK       I    between atoms: C_2  and  N_9 
REMARK    1  A    between atoms: C_2  and  S_3 
REMARK    2  A    between atoms: S_3  and  C_4 
REMARK    3  A    between atoms: C_4  and  C_5 
REMARK    4  A    between atoms: N_9  and  C_10 
REMARK    5  A    between atoms: N_9  and  C_13 
ROOT
HETATM    1  O   LIG     1      17.370  32.806  15.813  1.00  0.00    -0.260 OA
HETATM    2  C   LIG     1      16.429  32.498  15.034  1.00  0.00     0.282 C 
HETATM    3  N   LIG     1      15.160  32.047  15.564  1.00  0.00    -0.335 N 
ENDROOT
BRANCH   2   4
HETATM    4  S   LIG     1      16.711  32.658  13.263  1.00  0.00    -0.064 SA
BRANCH   4   5
HETATM    5  C   LIG     1      18.038  33.902  13.433  1.00  0.00     0.136 C 
BRANCH   5   6
HETATM    6  C   LIG     1      18.869  33.990  12.181  1.00  0.00     0.032 C 
HETATM    7  C   LIG     1      19.998  33.272  12.061  1.00  0.00     0.104 C 
HETATM    8 CL   LIG     1      21.004  33.328  10.617  1.00  0.00    -0.096 Cl
HETATM    9 CL   LIG     1      18.316  35.041  10.875  1.00  0.00    -0.087 Cl
ENDBRANCH   5   6
ENDBRANCH   4   5
ENDBRANCH   2   4
BRANCH   3  10
HETATM   10  C   LIG     1      14.700  32.663  16.842  1.00  0.00     0.080 C 
HETATM   11  C   LIG     1      15.279  31.951  18.071  1.00  0.00     0.032 C 
HETATM   12  C   LIG     1      14.921  34.179  16.909  1.00  0.00     0.032 C 
ENDBRANCH   3  10
BRANCH   3  13
HETATM   13  C   LIG     1      14.452  30.951  14.847  1.00  0.00     0.080 C 
HETATM   14  C   LIG     1      13.155  30.506  15.531  1.00  0.00     0.032 C 
HETATM   15  C   LIG     1      15.383  29.767  14.558  1.00  0.00     0.032 C 
ENDBRANCH   3  13
TORSDOF 5
ENDMDL
MODEL 4
REMARK VINA RESULT:      -5.2      1.243      2.563
REMARK  5 active torsions:
REMARK  status: ('A' for Active; 'I' for Inactive)
REMARK       I    between atoms: C_2  and  N_9 
REMARK    1  A    between atoms: C_2  and  S_3 
REMARK    2  A    between atoms: S_3  and  C_4 
REMARK    3  A    between atoms: C_4  and  C_5 
REMARK    4  A    between atoms: N_9  and  C_10 
REMARK    5  A    between atoms: N_9  and  C_13 
ROOT
HETATM    1  O   LIG     1      17.628  35.882  19.685  1.00  0.00    -0.260 OA
HETATM    2  C   LIG     1      16.878  36.213  20.641  1.00  0.00     0.282 C 
HETATM    3  N   LIG     1      17.285  37.252  21.562  1.00  0.00    -0.335 N 
ENDROOT
BRANCH   2   4
HETATM    4  S   LIG     1      15.295  35.372  20.803  1.00  0.00    -0.064 SA
BRANCH   4   5
HETATM    5  C   LIG     1      16.005  33.692  20.701  1.00  0.00     0.136 C 
BRANCH   5   6
HETATM    6  C   LIG     1      15.306  32.865  19.655  1.00  0.00     0.032 C 
HETATM    7  C   LIG     1      15.115  33.351  18.418  1.00  0.00     0.104 C 
HETATM    8 CL   LIG     1      14.312  32.425  17.152  1.00  0.00    -0.096 Cl
HETATM    9 CL   LIG     1      14.763  31.241  20.089  1.00  0.00    -0.087 Cl
ENDBRANCH   5   6
ENDBRANCH   4   5
ENDBRANCH   2   4
BRANCH   3  10
HETATM   10  C   LIG     1      18.073  38.387  21.001  1.00  0.00     0.080 C 
HETATM   11  C   LIG     1      18.644  39.295  22.098  1.00  0.00     0.032 C 
HETATM   12  C   LIG     1      19.154  37.953  20.005  1.00  0.00     0.032 C 
ENDBRANCH   3  10
BRANCH   3  13
HETATM   13  C   LIG     1      16.962  37.074  23.005  1.00  0.00     0.080 C 
HETATM   14  C   LIG     1      17.108  35.629  23.494  1.00  0.00     0.032 C 
HETATM   15  C   LIG     1      15.589  37.662  23.356  1.00  0.00     0.032 C 
ENDBRANCH   3  13
TORSDOF 5
ENDMDL
MODEL 5
REMARK VINA RESULT:      -5.2      4.137      5.504
REMARK  5 active torsions:
REMARK  status: ('A' for Active; 'I' for Inactive)
REMARK       I    between atoms: C_2  and  N_9 
REMARK    1  A    between atoms: C_2  and  S_3 
REMARK    2  A    between atoms: S_3  and  C_4 
REMARK    3  A    between atoms: C_4  and  C_5 
REMARK    4  A    between atoms: N_9  and  C_10 
REMARK    5  A    between atoms: N_9  and  C_13 
ROOT
HETATM    1  O   LIG     1      18.410  35.805  20.623  1.00  0.00    -0.260 OA
HETATM    2  C   LIG     1      17.820  36.845  21.019  1.00  0.00     0.282 C 
HETATM    3  N   LIG     1      18.367  38.152  20.722  1.00  0.00    -0.335 N 
ENDROOT
BRANCH   2   4
HETATM    4  S   LIG     1      16.282  36.648  21.932  1.00  0.00    -0.064 SA
BRANCH   4   5
HETATM    5  C   LIG     1      16.915  35.316  23.010  1.00  0.00     0.136 C 
BRANCH   5   6
HETATM    6  C   LIG     1      17.258  35.837  24.380  1.00  0.00     0.032 C 
HETATM    7  C   LIG     1      17.073  37.132  24.683  1.00  0.00     0.104 C 
HETATM    8 CL   LIG     1      17.447  37.794  26.271  1.00  0.00    -0.096 Cl
HETATM    9 CL   LIG     1      17.887  34.703  25.579  1.00  0.00    -0.087 Cl
ENDBRANCH   5   6
ENDBRANCH   4   5
ENDBRANCH   2   4
BRANCH   3  10
HETATM   10  C   LIG     1      19.057  38.318  19.411  1.00  0.00     0.080 C 
HETATM   11  C   LIG     1      18.447  39.450  18.574  1.00  0.00     0.032 C 
HETATM   12  C   LIG     1      20.578  38.459  19.530  1.00  0.00     0.032 C 
ENDBRANCH   3  10
BRANCH   3  13
HETATM   13  C   LIG     1      18.275  39.203  21.773  1.00  0.00     0.080 C 
HETATM   14  C   LIG     1      19.240  38.989  22.943  1.00  0.00     0.032 C 
HETATM   15  C   LIG     1      16.831  39.404  22.250  1.00  0.00     0.032 C 
ENDBRANCH   3  13
TORSDOF 5
ENDMDL
MODEL 6
REMARK VINA RESULT:      -5.1      1.522      2.688
REMARK  5 active torsions:
REMARK  status: ('A' for Active; 'I' for Inactive)
REMARK       I    between atoms: C_2  and  N_9 
REMARK    1  A    between atoms: C_2  and  S_3 
REMARK    2  A    between atoms: S_3  and  C_4 
REMARK    3  A    between atoms: C_4  and  C_5 
REMARK    4  A    between atoms: N_9  and  C_10 
REMARK    5  A    between atoms: N_9  and  C_13 
ROOT
HETATM    1  O   LIG     1      17.828  36.089  20.288  1.00  0.00    -0.260 OA
HETATM    2  C   LIG     1      16.987  35.966  21.218  1.00  0.00     0.282 C 
HETATM    3  N   LIG     1      16.946  36.930  22.297  1.00  0.00    -0.335 N 
ENDROOT
BRANCH   2   4
HETATM    4  S   LIG     1      15.840  34.580  21.142  1.00  0.00    -0.064 SA
BRANCH   4   5
HETATM    5  C   LIG     1      15.590  34.689  19.336  1.00  0.00     0.136 C 
BRANCH   5   6
HETATM    6  C   LIG     1      15.299  33.337  18.741  1.00  0.00     0.032 C 
HETATM    7  C   LIG     1      14.838  33.231  17.484  1.00  0.00     0.104 C 
HETATM    8 CL   LIG     1      14.489  31.676  16.734  1.00  0.00    -0.096 Cl
HETATM    9 CL   LIG     1      15.597  31.902  19.726  1.00  0.00    -0.087 Cl
ENDBRANCH   5   6
ENDBRANCH   4   5
ENDBRANCH   2   4
BRANCH   3  10
HETATM   10  C   LIG     1      17.254  38.348  21.954  1.00  0.00     0.080 C 
HETATM   11  C   LIG     1      16.175  39.314  22.458  1.00  0.00     0.032 C 
HETATM   12  C   LIG     1      18.657  38.793  22.382  1.00  0.00     0.032 C 
ENDBRANCH   3  10
BRANCH   3  13
HETATM   13  C   LIG     1      16.682  36.427  23.674  1.00  0.00     0.080 C 
HETATM   14  C   LIG     1      17.021  37.438  24.773  1.00  0.00     0.032 C 
HETATM   15  C   LIG     1      17.350  35.068  23.919  1.00  0.00     0.032 C 
ENDBRANCH   3  13
TORSDOF 5
ENDMDL
MODEL 7
REMARK VINA RESULT:      -4.4      3.927      6.663
REMARK  5 active torsions:
REMARK  status: ('A' for Active; 'I' for Inactive)
REMARK       I    between atoms: C_2  and  N_9 
REMARK    1  A    between atoms: C_2  and  S_3 
REMARK    2  A    between atoms: S_3  and  C_4 
REMARK    3  A    between atoms: C_4  and  C_5 
REMARK    4  A    between atoms: N_9  and  C_10 
REMARK    5  A    between atoms: N_9  and  C_13 
ROOT
HETATM    1  O   LIG     1      14.929  31.566  19.106  1.00  0.00    -0.260 OA
HETATM    2  C   LIG     1      15.017  32.471  18.234  1.00  0.00     0.282 C 
HETATM    3  N   LIG     1      14.801  32.162  16.837  1.00  0.00    -0.335 N 
ENDROOT
BRANCH   2   4
HETATM    4  S   LIG     1      15.393  34.142  18.786  1.00  0.00    -0.064 SA
BRANCH   4   5
HETATM    5  C   LIG     1      15.610  33.677  20.539  1.00  0.00     0.136 C 
BRANCH   5   6
HETATM    6  C   LIG     1      15.829  34.890  21.404  1.00  0.00     0.032 C 
HETATM    7  C   LIG     1      14.945  35.902  21.395  1.00  0.00     0.104 C 
HETATM    8 CL   LIG     1      15.145  37.340  22.392  1.00  0.00    -0.096 Cl
HETATM    9 CL   LIG     1      17.258  34.940  22.440  1.00  0.00    -0.087 Cl
ENDBRANCH   5   6
ENDBRANCH   4   5
ENDBRANCH   2   4
BRANCH   3  10
HETATM   10  C   LIG     1      13.778  31.125  16.520  1.00  0.00     0.080 C 
HETATM   11  C   LIG     1      12.347  31.654  16.680  1.00  0.00     0.032 C 
HETATM   12  C   LIG     1      13.984  30.453  15.158  1.00  0.00     0.032 C 
ENDBRANCH   3  10
BRANCH   3  13
HETATM   13  C   LIG     1      15.668  32.835  15.830  1.00  0.00     0.080 C 
HETATM   14  C   LIG     1      17.015  32.138  15.614  1.00  0.00     0.032 C 
HETATM   15  C   LIG     1      15.838  34.329  16.135  1.00  0.00     0.032 C 
ENDBRANCH   3  13
TORSDOF 5
ENDMDL
MODEL 8
REMARK VINA RESULT:      -4.3      6.245      8.045
REMARK  5 active torsions:
REMARK  status: ('A' for Active; 'I' for Inactive)
REMARK       I    between atoms: C_2  and  N_9 
REMARK    1  A    between atoms: C_2  and  S_3 
REMARK    2  A    between atoms: S_3  and  C_4 
REMARK    3  A    between atoms: C_4  and  C_5 
REMARK    4  A    between atoms: N_9  and  C_10 
REMARK    5  A    between atoms: N_9  and  C_13 
ROOT
HETATM    1  O   LIG     1      12.912  31.035  15.579  1.00  0.00    -0.260 OA
HETATM    2  C   LIG     1      14.150  31.016  15.345  1.00  0.00     0.282 C 
HETATM    3  N   LIG     1      14.986  32.128  15.746  1.00  0.00    -0.335 N 
ENDROOT
BRANCH   2   4
HETATM    4  S   LIG     1      14.834  29.566  14.526  1.00  0.00    -0.064 SA
BRANCH   4   5
HETATM    5  C   LIG     1      13.228  28.708  14.372  1.00  0.00     0.136 C 
BRANCH   5   6
HETATM    6  C   LIG     1      13.322  27.535  13.434  1.00  0.00     0.032 C 
HETATM    7  C   LIG     1      12.211  26.915  13.005  1.00  0.00     0.104 C 
HETATM    8 CL   LIG     1      12.260  25.544  11.901  1.00  0.00    -0.096 Cl
HETATM    9 CL   LIG     1      14.921  27.010  12.898  1.00  0.00    -0.087 Cl
ENDBRANCH   5   6
ENDBRANCH   4   5
ENDBRANCH   2   4
BRANCH   3  10
HETATM   10  C   LIG     1      14.628  32.824  17.015  1.00  0.00     0.080 C 
HETATM   11  C   LIG     1      15.136  32.071  18.252  1.00  0.00     0.032 C 
HETATM   12  C   LIG     1      15.037  34.301  17.043  1.00  0.00     0.032 C 
ENDBRANCH   3  10
BRANCH   3  13
HETATM   13  C   LIG     1      16.082  32.545  14.828  1.00  0.00     0.080 C 
HETATM   14  C   LIG     1      15.903  32.049  13.390  1.00  0.00     0.032 C 
HETATM   15  C   LIG     1      17.462  32.184  15.392  1.00  0.00     0.032 C 
ENDBRANCH   3  13
TORSDOF 5
ENDMDL
MODEL 9
REMARK VINA RESULT:      -4.1      4.323      5.590
REMARK  5 active torsions:
REMARK  status: ('A' for Active; 'I' for Inactive)
REMARK       I    between atoms: C_2  and  N_9 
REMARK    1  A    between atoms: C_2  and  S_3 
REMARK    2  A    between atoms: S_3  and  C_4 
REMARK    3  A    between atoms: C_4  and  C_5 
REMARK    4  A    between atoms: N_9  and  C_10 
REMARK    5  A    between atoms: N_9  and  C_13 
ROOT
HETATM    1  O   LIG     1      19.163  38.880  21.308  1.00  0.00    -0.260 OA
HETATM    2  C   LIG     1      18.459  37.952  20.829  1.00  0.00     0.282 C 
HETATM    3  N   LIG     1      17.458  37.300  21.646  1.00  0.00    -0.335 N 
ENDROOT
BRANCH   2   4
HETATM    4  S   LIG     1      18.725  37.490  19.110  1.00  0.00    -0.064 SA
BRANCH   4   5
HETATM    5  C   LIG     1      19.341  39.134  18.605  1.00  0.00     0.136 C 
BRANCH   5   6
HETATM    6  C   LIG     1      18.631  39.630  17.373  1.00  0.00     0.032 C 
HETATM    7  C   LIG     1      18.577  38.871  16.267  1.00  0.00     0.104 C 
HETATM    8 CL   LIG     1      17.753  39.395  14.801  1.00  0.00    -0.096 Cl
HETATM    9 CL   LIG     1      17.859  41.217  17.427  1.00  0.00    -0.087 Cl
ENDBRANCH   5   6
ENDBRANCH   4   5
ENDBRANCH   2   4
BRANCH   3  10
HETATM   10  C   LIG     1      16.736  38.144  22.641  1.00  0.00     0.080 C 
HETATM   11  C   LIG     1      15.247  37.789  22.732  1.00  0.00     0.032 C 
HETATM   12  C   LIG     1      17.399  38.169  24.023  1.00  0.00     0.032 C 
ENDBRANCH   3  10
BRANCH   3  13
HETATM   13  C   LIG     1      17.280  35.829  21.493  1.00  0.00     0.080 C 
HETATM   14  C   LIG     1      16.179  35.443  20.500  1.00  0.00     0.032 C 
HETATM   15  C   LIG     1      17.098  35.136  22.849  1.00  0.00     0.032 C 
ENDBRANCH   3  13
TORSDOF 5
ENDMDL
MODEL 10
REMARK VINA RESULT:      -4.1     14.620     16.021
REMARK  5 active torsions:
REMARK  status: ('A' for Active; 'I' for Inactive)
REMARK       I    between atoms: C_2  and  N_9 
REMARK    1  A    between atoms: C_2  and  S_3 
REMARK    2  A    between atoms: S_3  and  C_4 
REMARK    3  A    between atoms: C_4  and  C_5 
REMARK    4  A    between atoms: N_9  and  C_10 
REMARK    5  A    between atoms: N_9  and  C_13 
ROOT
HETATM    1  O   LIG     1      25.940  23.444  21.296  1.00  0.00    -0.260 OA
HETATM    2  C   LIG     1      25.307  23.022  20.293  1.00  0.00     0.282 C 
HETATM    3  N   LIG     1      24.190  22.117  20.463  1.00  0.00    -0.335 N 
ENDROOT
BRANCH   2   4
HETATM    4  S   LIG     1      25.820  23.595  18.666  1.00  0.00    -0.064 SA
BRANCH   4   5
HETATM    5  C   LIG     1      27.500  24.076  19.199  1.00  0.00     0.136 C 
BRANCH   5   6
HETATM    6  C   LIG     1      28.017  25.241  18.396  1.00  0.00     0.032 C 
HETATM    7  C   LIG     1      28.148  26.452  18.960  1.00  0.00     0.104 C 
HETATM    8 CL   LIG     1      28.755  27.847  18.072  1.00  0.00    -0.096 Cl
HETATM    9 CL   LIG     1      28.460  24.969  16.708  1.00  0.00    -0.087 Cl
ENDBRANCH   5   6
ENDBRANCH   4   5
ENDBRANCH   2   4
BRANCH   3  10
HETATM   10  C   LIG     1      23.337  22.310  21.670  1.00  0.00     0.080 C 
HETATM   11  C   LIG     1      22.021  23.028  21.343  1.00  0.00     0.032 C 
HETATM   12  C   LIG     1      23.096  21.022  22.466  1.00  0.00     0.032 C 
ENDBRANCH   3  10
BRANCH   3  13
HETATM   13  C   LIG     1      24.023  21.017  19.473  1.00  0.00     0.080 C 
HETATM   14  C   LIG     1      25.344  20.368  19.046  1.00  0.00     0.032 C 
HETATM   15  C   LIG     1      23.187  21.462  18.266  1.00  0.00     0.032 C 
ENDBRANCH   3  13
TORSDOF 5
ENDMDL
MODEL 11
REMARK VINA RESULT:      -4.1     14.661     16.076
REMARK  5 active torsions:
REMARK  status: ('A' for Active; 'I' for Inactive)
REMARK       I    between atoms: C_2  and  N_9 
REMARK    1  A    between atoms: C_2  and  S_3 
REMARK    2  A    between atoms: S_3  and  C_4 
REMARK    3  A    between atoms: C_4  and  C_5 
REMARK    4  A    between atoms: N_9  and  C_10 
REMARK    5  A    between atoms: N_9  and  C_13 
ROOT
HETATM    1  O   LIG     1      25.198  22.502  18.215  1.00  0.00    -0.260 OA
HETATM    2  C   LIG     1      25.176  22.570  19.472  1.00  0.00     0.282 C 
HETATM    3  N   LIG     1      24.098  21.953  20.217  1.00  0.00    -0.335 N 
ENDROOT
BRANCH   2   4
HETATM    4  S   LIG     1      26.524  23.430  20.297  1.00  0.00    -0.064 SA
BRANCH   4   5
HETATM    5  C   LIG     1      26.121  25.063  19.585  1.00  0.00     0.136 C 
BRANCH   5   6
HETATM    6  C   LIG     1      27.235  25.568  18.708  1.00  0.00     0.032 C 
HETATM    7  C   LIG     1      27.852  26.727  18.990  1.00  0.00     0.104 C 
HETATM    8 CL   LIG     1      29.167  27.362  18.005  1.00  0.00    -0.096 Cl
HETATM    9 CL   LIG     1      27.721  24.594  17.318  1.00  0.00    -0.087 Cl
ENDBRANCH   5   6
ENDBRANCH   4   5
ENDBRANCH   2   4
BRANCH   3  10
HETATM   10  C   LIG     1      23.540  20.680  19.677  1.00  0.00     0.080 C 
HETATM   11  C   LIG     1      22.825  20.883  18.335  1.00  0.00     0.032 C 
HETATM   12  C   LIG     1      24.563  19.541  19.606  1.00  0.00     0.032 C 
ENDBRANCH   3  10
BRANCH   3  13
HETATM   13  C   LIG     1      23.574  22.671  21.412  1.00  0.00     0.080 C 
HETATM   14  C   LIG     1      23.927  21.994  22.740  1.00  0.00     0.032 C 
HETATM   15  C   LIG     1      22.070  22.948  21.292  1.00  0.00     0.032 C 
ENDBRANCH   3  13
TORSDOF 5
ENDMDL
MODEL 12
REMARK VINA RESULT:      -4.0      4.155      7.147
REMARK  5 active torsions:
REMARK  status: ('A' for Active; 'I' for Inactive)
REMARK       I    between atoms: C_2  and  N_9 
REMARK    1  A    between atoms: C_2  and  S_3 
REMARK    2  A    between atoms: S_3  and  C_4 
REMARK    3  A    between atoms: C_4  and  C_5 
REMARK    4  A    between atoms: N_9  and  C_10 
REMARK    5  A    between atoms: N_9  and  C_13 
ROOT
HETATM    1  O   LIG     1      14.956  31.606  18.562  1.00  0.00    -0.260 OA
HETATM    2  C   LIG     1      15.078  32.411  17.601  1.00  0.00     0.282 C 
HETATM    3  N   LIG     1      15.068  31.924  16.237  1.00  0.00    -0.335 N 
ENDROOT
BRANCH   2   4
HETATM    4  S   LIG     1      15.240  34.163  17.979  1.00  0.00    -0.064 SA
BRANCH   4   5
HETATM    5  C   LIG     1      15.587  33.903  19.753  1.00  0.00     0.136 C 
BRANCH   5   6
HETATM    6  C   LIG     1      15.881  35.205  20.450  1.00  0.00     0.032 C 
HETATM    7  C   LIG     1      17.109  35.744  20.396  1.00  0.00     0.104 C 
HETATM    8 CL   LIG     1      17.507  37.268  21.184  1.00  0.00    -0.096 Cl
HETATM    9 CL   LIG     1      14.571  36.009  21.319  1.00  0.00    -0.087 Cl
ENDBRANCH   5   6
ENDBRANCH   4   5
ENDBRANCH   2   4
BRANCH   3  10
HETATM   10  C   LIG     1      14.183  30.763  15.936  1.00  0.00     0.080 C 
HETATM   11  C   LIG     1      12.696  31.139  15.982  1.00  0.00     0.032 C 
HETATM   12  C   LIG     1      14.543  30.035  14.636  1.00  0.00     0.032 C 
ENDBRANCH   3  10
BRANCH   3  13
HETATM   13  C   LIG     1      15.996  32.560  15.261  1.00  0.00     0.080 C 
HETATM   14  C   LIG     1      15.694  32.202  13.802  1.00  0.00     0.032 C 
HETATM   15  C   LIG     1      17.464  32.303  15.623  1.00  0.00     0.032 C 
ENDBRANCH   3  13
TORSDOF 5
ENDMDL
MODEL 13
REMARK VINA RESULT:      -3.8      7.181      8.874
REMARK  5 active torsions:
REMARK  status: ('A' for Active; 'I' for Inactive)
REMARK       I    between atoms: C_2  and  N_9 
REMARK    1  A    between atoms: C_2  and  S_3 
REMARK    2  A    between atoms: S_3  and  C_4 
REMARK    3  A    between atoms: C_4  and  C_5 
REMARK    4  A    between atoms: N_9  and  C_10 
REMARK    5  A    between atoms: N_9  and  C_13 
ROOT
HETATM    1  O   LIG     1      12.967  29.764  14.503  1.00  0.00    -0.260 OA
HETATM    2  C   LIG     1      14.181  30.012  14.730  1.00  0.00     0.282 C 
HETATM    3  N   LIG     1      14.550  31.045  15.673  1.00  0.00    -0.335 N 
ENDROOT
BRANCH   2   4
HETATM    4  S   LIG     1      15.420  29.032  13.867  1.00  0.00    -0.064 SA
BRANCH   4   5
HETATM    5  C   LIG     1      14.409  27.511  13.827  1.00  0.00     0.136 C 
BRANCH   5   6
HETATM    6  C   LIG     1      14.421  26.882  12.459  1.00  0.00     0.032 C 
HETATM    7  C   LIG     1      15.533  26.910  11.706  1.00  0.00     0.104 C 
HETATM    8 CL   LIG     1      15.607  26.183  10.104  1.00  0.00    -0.096 Cl
HETATM    9 CL   LIG     1      12.950  26.094  11.881  1.00  0.00    -0.087 Cl
ENDBRANCH   5   6
ENDBRANCH   4   5
ENDBRANCH   2   4
BRANCH   3  10
HETATM   10  C   LIG     1      13.670  31.225  16.864  1.00  0.00     0.080 C 
HETATM   11  C   LIG     1      14.468  31.571  18.128  1.00  0.00     0.032 C 
HETATM   12  C   LIG     1      12.517  32.208  16.635  1.00  0.00     0.032 C 
ENDBRANCH   3  10
BRANCH   3  13
HETATM   13  C   LIG     1      15.723  31.902  15.348  1.00  0.00     0.080 C 
HETATM   14  C   LIG     1      15.716  33.254  16.069  1.00  0.00     0.032 C 
HETATM   15  C   LIG     1      15.908  32.061  13.833  1.00  0.00     0.032 C 
ENDBRANCH   3  13
TORSDOF 5
ENDMDL
MODEL 14
REMARK VINA RESULT:      -3.7      4.801      6.285
REMARK  5 active torsions:
REMARK  status: ('A' for Active; 'I' for Inactive)
REMARK       I    between atoms: C_2  and  N_9 
REMARK    1  A    between atoms: C_2  and  S_3 
REMARK    2  A    between atoms: S_3  and  C_4 
REMARK    3  A    between atoms: C_4  and  C_5 
REMARK    4  A    between atoms: N_9  and  C_10 
REMARK    5  A    between atoms: N_9  and  C_13 
ROOT
HETATM    1  O   LIG     1      13.504  30.850  17.683  1.00  0.00    -0.260 OA
HETATM    2  C   LIG     1      14.383  31.609  17.195  1.00  0.00     0.282 C 
HETATM    3  N   LIG     1      14.932  32.692  17.984  1.00  0.00    -0.335 N 
ENDROOT
BRANCH   2   4
HETATM    4  S   LIG     1      14.940  31.286  15.515  1.00  0.00    -0.064 SA
BRANCH   4   5
HETATM    5  C   LIG     1      13.490  30.269  15.068  1.00  0.00     0.136 C 
BRANCH   5   6
HETATM    6  C   LIG     1      13.897  29.052  14.281  1.00  0.00     0.032 C 
HETATM    7  C   LIG     1      15.183  28.856  13.945  1.00  0.00     0.104 C 
HETATM    8 CL   LIG     1      15.717  27.447  13.034  1.00  0.00    -0.096 Cl
HETATM    9 CL   LIG     1      12.651  27.885  13.829  1.00  0.00    -0.087 Cl
ENDBRANCH   5   6
ENDBRANCH   4   5
ENDBRANCH   2   4
BRANCH   3  10
HETATM   10  C   LIG     1      15.093  32.454  19.447  1.00  0.00     0.080 C 
HETATM   11  C   LIG     1      16.088  31.325  19.745  1.00  0.00     0.032 C 
HETATM   12  C   LIG     1      15.420  33.722  20.244  1.00  0.00     0.032 C 
ENDBRANCH   3  10
BRANCH   3  13
HETATM   13  C   LIG     1      15.215  33.983  17.297  1.00  0.00     0.080 C 
HETATM   14  C   LIG     1      13.958  34.706  16.804  1.00  0.00     0.032 C 
HETATM   15  C   LIG     1      16.255  33.816  16.182  1.00  0.00     0.032 C 
ENDBRANCH   3  13
TORSDOF 5
ENDMDL
MODEL 15
REMARK VINA RESULT:      -3.6     14.874     15.860
REMARK  5 active torsions:
REMARK  status: ('A' for Active; 'I' for Inactive)
REMARK       I    between atoms: C_2  and  N_9 
REMARK    1  A    between atoms: C_2  and  S_3 
REMARK    2  A    between atoms: S_3  and  C_4 
REMARK    3  A    between atoms: C_4  and  C_5 
REMARK    4  A    between atoms: N_9  and  C_10 
REMARK    5  A    between atoms: N_9  and  C_13 
ROOT
HETATM    1  O   LIG     1      26.539  24.548  17.824  1.00  0.00    -0.260 OA
HETATM    2  C   LIG     1      27.317  24.667  18.807  1.00  0.00     0.282 C 
HETATM    3  N   LIG     1      28.653  25.193  18.619  1.00  0.00    -0.335 N 
ENDROOT
BRANCH   2   4
HETATM    4  S   LIG     1      26.709  24.189  20.432  1.00  0.00    -0.064 SA
BRANCH   4   5
HETATM    5  C   LIG     1      26.041  22.582  19.876  1.00  0.00     0.136 C 
BRANCH   5   6
HETATM    6  C   LIG     1      24.539  22.551  19.972  1.00  0.00     0.032 C 
HETATM    7  C   LIG     1      23.923  22.872  21.122  1.00  0.00     0.104 C 
HETATM    8 CL   LIG     1      22.170  22.861  21.291  1.00  0.00    -0.096 Cl
HETATM    9 CL   LIG     1      23.611  22.103  18.538  1.00  0.00    -0.087 Cl
ENDBRANCH   5   6
ENDBRANCH   4   5
ENDBRANCH   2   4
BRANCH   3  10
HETATM   10  C   LIG     1      28.827  26.254  17.586  1.00  0.00     0.080 C 
HETATM   11  C   LIG     1      28.808  27.663  18.193  1.00  0.00     0.032 C 
HETATM   12  C   LIG     1      30.049  26.041  16.686  1.00  0.00     0.032 C 
ENDBRANCH   3  10
BRANCH   3  13
HETATM   13  C   LIG     1      29.761  24.584  19.406  1.00  0.00     0.080 C 
HETATM   14  C   LIG     1      29.735  23.052  19.422  1.00  0.00     0.032 C 
HETATM   15  C   LIG     1      29.842  25.171  20.821  1.00  0.00     0.032 C 
ENDBRANCH   3  13
TORSDOF 5
ENDMDL
MODEL 16
REMARK VINA RESULT:      -3.3     15.043     16.523
REMARK  5 active torsions:
REMARK  status: ('A' for Active; 'I' for Inactive)
REMARK       I    between atoms: C_2  and  N_9 
REMARK    1  A    between atoms: C_2  and  S_3 
REMARK    2  A    between atoms: S_3  and  C_4 
REMARK    3  A    between atoms: C_4  and  C_5 
REMARK    4  A    between atoms: N_9  and  C_10 
REMARK    5  A    between atoms: N_9  and  C_13 
ROOT
HETATM    1  O   LIG     1      26.179  20.628  20.857  1.00  0.00    -0.260 OA
HETATM    2  C   LIG     1      25.169  21.375  20.947  1.00  0.00     0.282 C 
HETATM    3  N   LIG     1      23.837  20.816  20.855  1.00  0.00    -0.335 N 
ENDROOT
BRANCH   2   4
HETATM    4  S   LIG     1      25.440  23.134  21.215  1.00  0.00    -0.064 SA
BRANCH   4   5
HETATM    5  C   LIG     1      26.806  23.262  20.009  1.00  0.00     0.136 C 
BRANCH   5   6
HETATM    6  C   LIG     1      27.368  24.658  19.964  1.00  0.00     0.032 C 
HETATM    7  C   LIG     1      27.323  25.374  18.829  1.00  0.00     0.104 C 
HETATM    8 CL   LIG     1      27.955  27.014  18.720  1.00  0.00    -0.096 Cl
HETATM    9 CL   LIG     1      28.065  25.334  21.439  1.00  0.00    -0.087 Cl
ENDBRANCH   5   6
ENDBRANCH   4   5
ENDBRANCH   2   4
BRANCH   3  10
HETATM   10  C   LIG     1      23.628  19.457  21.433  1.00  0.00     0.080 C 
HETATM   11  C   LIG     1      23.000  19.511  22.831  1.00  0.00     0.032 C 
HETATM   12  C   LIG     1      22.865  18.505  20.505  1.00  0.00     0.032 C 
ENDBRANCH   3  10
BRANCH   3  13
HETATM   13  C   LIG     1      22.800  21.596  20.124  1.00  0.00     0.080 C 
HETATM   14  C   LIG     1      23.255  22.081  18.743  1.00  0.00     0.032 C 
HETATM   15  C   LIG     1      22.243  22.741  20.979  1.00  0.00     0.032 C 
ENDBRANCH   3  13
TORSDOF 5
ENDMDL
MODEL 17
REMARK VINA RESULT:      -3.3     15.320     16.443
REMARK  5 active torsions:
REMARK  status: ('A' for Active; 'I' for Inactive)
REMARK       I    between atoms: C_2  and  N_9 
REMARK    1  A    between atoms: C_2  and  S_3 
REMARK    2  A    between atoms: S_3  and  C_4 
REMARK    3  A    between atoms: C_4  and  C_5 
REMARK    4  A    between atoms: N_9  and  C_10 
REMARK    5  A    between atoms: N_9  and  C_13 
ROOT
HETATM    1  O   LIG     1      27.954  21.564  20.351  1.00  0.00    -0.260 OA
HETATM    2  C   LIG     1      26.838  22.036  20.007  1.00  0.00     0.282 C 
HETATM    3  N   LIG     1      25.909  22.517  21.007  1.00  0.00    -0.335 N 
ENDROOT
BRANCH   2   4
HETATM    4  S   LIG     1      26.457  22.110  18.249  1.00  0.00    -0.064 SA
BRANCH   4   5
HETATM    5  C   LIG     1      27.871  23.189  17.833  1.00  0.00     0.136 C 
BRANCH   5   6
HETATM    6  C   LIG     1      27.579  24.628  18.168  1.00  0.00     0.032 C 
HETATM    7  C   LIG     1      28.565  25.540  18.175  1.00  0.00     0.104 C 
HETATM    8 CL   LIG     1      28.280  27.237  18.550  1.00  0.00    -0.096 Cl
HETATM    9 CL   LIG     1      25.912  25.087  18.528  1.00  0.00    -0.087 Cl
ENDBRANCH   5   6
ENDBRANCH   4   5
ENDBRANCH   2   4
BRANCH   3  10
HETATM   10  C   LIG     1      26.490  23.174  22.214  1.00  0.00     0.080 C 
HETATM   11  C   LIG     1      26.885  22.159  23.293  1.00  0.00     0.032 C 
HETATM   12  C   LIG     1      27.637  24.140  21.897  1.00  0.00     0.032 C 
ENDBRANCH   3  10
BRANCH   3  13
HETATM   13  C   LIG     1      24.459  22.250  20.801  1.00  0.00     0.080 C 
HETATM   14  C   LIG     1      23.542  23.180  21.602  1.00  0.00     0.032 C 
HETATM   15  C   LIG     1      24.116  20.772  21.028  1.00  0.00     0.032 C 
ENDBRANCH   3  13
TORSDOF 5
ENDMDL
MODEL 18
REMARK VINA RESULT:      -3.2     15.185     16.812
REMARK  5 active torsions:
REMARK  status: ('A' for Active; 'I' for Inactive)
REMARK       I    between atoms: C_2  and  N_9 
REMARK    1  A    between atoms: C_2  and  S_3 
REMARK    2  A    between atoms: S_3  and  C_4 
REMARK    3  A    between atoms: C_4  and  C_5 
REMARK    4  A    between atoms: N_9  and  C_10 
REMARK    5  A    between atoms: N_9  and  C_13 
ROOT
HETATM    1  O   LIG     1      26.746  22.537  21.302  1.00  0.00    -0.260 OA
HETATM    2  C   LIG     1      25.815  22.002  21.961  1.00  0.00     0.282 C 
HETATM    3  N   LIG     1      24.555  21.689  21.322  1.00  0.00    -0.335 N 
ENDROOT
BRANCH   2   4
HETATM    4  S   LIG     1      26.116  21.624  23.695  1.00  0.00    -0.064 SA
BRANCH   4   5
HETATM    5  C   LIG     1      25.933  23.352  24.260  1.00  0.00     0.136 C 
BRANCH   5   6
HETATM    6  C   LIG     1      25.714  23.421  25.748  1.00  0.00     0.032 C 
HETATM    7  C   LIG     1      26.499  24.194  26.516  1.00  0.00     0.104 C 
HETATM    8 CL   LIG     1      26.284  24.320  28.260  1.00  0.00    -0.096 Cl
HETATM    9 CL   LIG     1      24.395  22.481  26.450  1.00  0.00    -0.087 Cl
ENDBRANCH   5   6
ENDBRANCH   4   5
ENDBRANCH   2   4
BRANCH   3  10
HETATM   10  C   LIG     1      24.605  21.254  19.896  1.00  0.00     0.080 C 
HETATM   11  C   LIG     1      24.939  22.412  18.948  1.00  0.00     0.032 C 
HETATM   12  C   LIG     1      25.513  20.043  19.654  1.00  0.00     0.032 C 
ENDBRANCH   3  10
BRANCH   3  13
HETATM   13  C   LIG     1      23.304  21.902  22.101  1.00  0.00     0.080 C 
HETATM   14  C   LIG     1      22.645  20.602  22.574  1.00  0.00     0.032 C 
HETATM   15  C   LIG     1      22.316  22.807  21.353  1.00  0.00     0.032 C 
ENDBRANCH   3  13
TORSDOF 5
ENDMDL
MODEL 19
REMARK VINA RESULT:      -3.2     15.390     16.949
REMARK  5 active torsions:
REMARK  status: ('A' for Active; 'I' for Inactive)
REMARK       I    between atoms: C_2  and  N_9 
REMARK    1  A    between atoms: C_2  and  S_3 
REMARK    2  A    between atoms: S_3  and  C_4 
REMARK    3  A    between atoms: C_4  and  C_5 
REMARK    4  A    between atoms: N_9  and  C_10 
REMARK    5  A    between atoms: N_9  and  C_13 
ROOT
HETATM    1  O   LIG     1      26.143  20.199  21.737  1.00  0.00    -0.260 OA
HETATM    2  C   LIG     1      25.217  21.052  21.685  1.00  0.00     0.282 C 
HETATM    3  N   LIG     1      23.870  20.646  21.344  1.00  0.00    -0.335 N 
ENDROOT
BRANCH   2   4
HETATM    4  S   LIG     1      25.622  22.763  22.069  1.00  0.00    -0.064 SA
BRANCH   4   5
HETATM    5  C   LIG     1      26.529  22.363  23.603  1.00  0.00     0.136 C 
BRANCH   5   6
HETATM    6  C   LIG     1      25.706  22.679  24.824  1.00  0.00     0.032 C 
HETATM    7  C   LIG     1      24.774  21.815  25.259  1.00  0.00     0.104 C 
HETATM    8 CL   LIG     1      23.789  22.128  26.685  1.00  0.00    -0.096 Cl
HETATM    9 CL   LIG     1      26.008  24.197  25.674  1.00  0.00    -0.087 Cl
ENDBRANCH   5   6
ENDBRANCH   4   5
ENDBRANCH   2   4
BRANCH   3  10
HETATM   10  C   LIG     1      23.422  19.306  21.820  1.00  0.00     0.080 C 
HETATM   11  C   LIG     1      22.578  19.396  23.097  1.00  0.00     0.032 C 
HETATM   12  C   LIG     1      22.727  18.470  20.739  1.00  0.00     0.032 C 
ENDBRANCH   3  10
BRANCH   3  13
HETATM   13  C   LIG     1      23.065  21.553  20.480  1.00  0.00     0.080 C 
HETATM   14  C   LIG     1      23.824  22.067  19.252  1.00  0.00     0.032 C 
HETATM   15  C   LIG     1      22.438  22.698  21.287  1.00  0.00     0.032 C 
ENDBRANCH   3  13
TORSDOF 5
ENDMDL
MODEL 20
REMARK VINA RESULT:      -3.1     15.308     16.822
REMARK  5 active torsions:
REMARK  status: ('A' for Active; 'I' for Inactive)
REMARK       I    between atoms: C_2  and  N_9 
REMARK    1  A    between atoms: C_2  and  S_3 
REMARK    2  A    between atoms: S_3  and  C_4 
REMARK    3  A    between atoms: C_4  and  C_5 
REMARK    4  A    between atoms: N_9  and  C_10 
REMARK    5  A    between atoms: N_9  and  C_13 
ROOT
HETATM    1  O   LIG     1      26.539  20.502  21.478  1.00  0.00    -0.260 OA
HETATM    2  C   LIG     1      25.745  21.480  21.471  1.00  0.00     0.282 C 
HETATM    3  N   LIG     1      24.319  21.261  21.357  1.00  0.00    -0.335 N 
ENDROOT
BRANCH   2   4
HETATM    4  S   LIG     1      26.439  23.134  21.630  1.00  0.00    -0.064 SA
BRANCH   4   5
HETATM    5  C   LIG     1      26.914  22.931  23.382  1.00  0.00     0.136 C 
BRANCH   5   6
HETATM    6  C   LIG     1      27.406  24.227  23.969  1.00  0.00     0.032 C 
HETATM    7  C   LIG     1      28.275  24.995  23.292  1.00  0.00     0.104 C 
HETATM    8 CL   LIG     1      28.878  26.524  23.924  1.00  0.00    -0.096 Cl
HETATM    9 CL   LIG     1      26.800  24.719  25.553  1.00  0.00    -0.087 Cl
ENDBRANCH   5   6
ENDBRANCH   4   5
ENDBRANCH   2   4
BRANCH   3  10
HETATM   10  C   LIG     1      23.763  20.045  22.017  1.00  0.00     0.080 C 
HETATM   11  C   LIG     1      22.913  20.389  23.247  1.00  0.00     0.032 C 
HETATM   12  C   LIG     1      23.018  19.111  21.056  1.00  0.00     0.032 C 
ENDBRANCH   3  10
BRANCH   3  13
HETATM   13  C   LIG     1      23.529  22.213  20.528  1.00  0.00     0.080 C 
HETATM   14  C   LIG     1      22.282  22.755  21.232  1.00  0.00     0.032 C 
HETATM   15  C   LIG     1      23.200  21.626  19.149  1.00  0.00     0.032 C 
ENDBRANCH   3  13
TORSDOF 5
ENDMDL
