REMARK  5 active torsions:
REMARK  status: ('A' for Active; 'I' for Inactive)
REMARK       I    between atoms: C_2  and  N_10 
REMARK    1  A    between atoms: C_2  and  S_3 
REMARK    2  A    between atoms: S_3  and  C_4 
REMARK    3  A    between atoms: C_4  and  C_5 
REMARK    4  A    between atoms: N_10  and  C_11 
REMARK    5  A    between atoms: N_10  and  C_14 
ROOT
HETATM    1  O   LIG     1       1.127   1.831   0.033  1.00  0.00    -0.260 OA
HETATM    2  C   LIG     1       0.824   0.726  -0.489  1.00  0.00     0.282 C 
HETATM    3  N   LIG     1      -0.562   0.308  -0.574  1.00  0.00    -0.335 N 
ENDROOT
BRANCH   2   4
HETATM    4  S   LIG     1       2.162  -0.307  -1.109  1.00  0.00    -0.064 SA
BRANCH   4   5
HETATM    5  C   LIG     1       2.450  -1.170   0.477  1.00  0.00     0.138 C 
BRANCH   5   6
HETATM    6  C   LIG     1       3.289  -0.332   1.409  1.00  0.00     0.054 C 
HETATM    7  C   LIG     1       4.596  -0.086   1.176  1.00  0.00     0.121 C 
HETATM    8 CL   LIG     1       5.441  -0.747  -0.223  1.00  0.00    -0.069 Cl
HETATM    9 CL   LIG     1       5.554   0.894   2.284  1.00  0.00    -0.069 Cl
HETATM   10 CL   LIG     1       2.513   0.286   2.868  1.00  0.00    -0.085 Cl
ENDBRANCH   5   6
ENDBRANCH   4   5
ENDBRANCH   2   4
BRANCH   3  11
HETATM   11  C   LIG     1      -1.552   0.782   0.423  1.00  0.00     0.080 C 
HETATM   12  C   LIG     1      -1.889   2.265   0.219  1.00  0.00     0.032 C 
HETATM   13  C   LIG     1      -1.086   0.503   1.857  1.00  0.00     0.032 C 
ENDBRANCH   3  11
BRANCH   3  14
HETATM   14  C   LIG     1      -0.968  -0.664  -1.615  1.00  0.00     0.080 C 
HETATM   15  C   LIG     1      -1.278  -2.032  -0.996  1.00  0.00     0.032 C 
HETATM   16  C   LIG     1      -2.148  -0.143  -2.447  1.00  0.00     0.032 C 
ENDBRANCH   3  14
TORSDOF 5
