REMARK  5 active torsions:
REMARK  status: ('A' for Active; 'I' for Inactive)
REMARK       I    between atoms: C_2  and  N_9 
REMARK    1  A    between atoms: C_2  and  S_3 
REMARK    2  A    between atoms: S_3  and  C_4 
REMARK    3  A    between atoms: C_4  and  C_5 
REMARK    4  A    between atoms: N_9  and  C_10 
REMARK    5  A    between atoms: N_9  and  C_13 
ROOT
HETATM    1  O   LIG     1       1.649  -1.560   0.776  1.00  0.00    -0.260 OA
HETATM    2  C   LIG     1       1.044  -0.962  -0.153  1.00  0.00     0.282 C 
HETATM    3  N   LIG     1      -0.331  -0.545   0.022  1.00  0.00    -0.335 N 
ENDROOT
BRANCH   2   4
HETATM    4  S   LIG     1       1.947  -0.630  -1.674  1.00  0.00    -0.064 SA
BRANCH   4   5
HETATM    5  C   LIG     1       2.434   1.064  -1.194  1.00  0.00     0.136 C 
BRANCH   5   6
HETATM    6  C   LIG     1       3.465   1.047  -0.097  1.00  0.00     0.032 C 
HETATM    7  C   LIG     1       4.693   0.553  -0.324  1.00  0.00     0.104 C 
HETATM    8 CL   LIG     1       5.941   0.516   0.918  1.00  0.00    -0.096 Cl
HETATM    9 CL   LIG     1       3.027   1.707   1.481  1.00  0.00    -0.087 Cl
ENDBRANCH   5   6
ENDBRANCH   4   5
ENDBRANCH   2   4
BRANCH   3  10
HETATM   10  C   LIG     1      -0.738  -0.098   1.385  1.00  0.00     0.080 C 
HETATM   11  C   LIG     1      -0.888   1.426   1.475  1.00  0.00     0.032 C 
HETATM   12  C   LIG     1      -1.976  -0.822   1.926  1.00  0.00     0.032 C 
ENDBRANCH   3  10
BRANCH   3  13
HETATM   13  C   LIG     1      -1.253  -0.670  -1.141  1.00  0.00     0.080 C 
HETATM   14  C   LIG     1      -2.149   0.555  -1.350  1.00  0.00     0.032 C 
HETATM   15  C   LIG     1      -2.064  -1.971  -1.085  1.00  0.00     0.032 C 
ENDBRANCH   3  13
TORSDOF 5
