MODEL 1
REMARK VINA RESULT:      -5.7      0.000      0.000
REMARK  5 active torsions:
REMARK  status: ('A' for Active; 'I' for Inactive)
REMARK       I    between atoms: C_2  and  N_10 
REMARK    1  A    between atoms: C_2  and  S_3 
REMARK    2  A    between atoms: S_3  and  C_4 
REMARK    3  A    between atoms: C_4  and  C_5 
REMARK    4  A    between atoms: N_10  and  C_11 
REMARK    5  A    between atoms: N_10  and  C_14 
ROOT
HETATM    1  O   LIG     1      16.356  34.889  22.306  1.00  0.00    -0.260 OA
HETATM    2  C   LIG     1      16.588  35.768  21.435  1.00  0.00     0.282 C 
HETATM    3  N   LIG     1      17.242  37.010  21.799  1.00  0.00    -0.335 N 
ENDROOT
BRANCH   2   4
HETATM    4  S   LIG     1      16.073  35.432  19.742  1.00  0.00    -0.064 SA
BRANCH   4   5
HETATM    5  C   LIG     1      15.665  33.675  20.042  1.00  0.00     0.138 C 
BRANCH   5   6
HETATM    6  C   LIG     1      15.081  33.033  18.808  1.00  0.00     0.054 C 
HETATM    7  C   LIG     1      14.655  31.752  18.797  1.00  0.00     0.121 C 
HETATM    8 CL   LIG     1      14.770  30.711  20.215  1.00  0.00    -0.069 Cl
HETATM    9 CL   LIG     1      13.981  31.025  17.340  1.00  0.00    -0.069 Cl
HETATM   10 CL   LIG     1      15.020  34.005  17.337  1.00  0.00    -0.085 Cl
ENDBRANCH   5   6
ENDBRANCH   4   5
ENDBRANCH   2   4
BRANCH   3  11
HETATM   11  C   LIG     1      17.103  37.558  23.169  1.00  0.00     0.080 C 
HETATM   12  C   LIG     1      17.492  36.522  24.231  1.00  0.00     0.032 C 
HETATM   13  C   LIG     1      15.695  38.114  23.414  1.00  0.00     0.032 C 
ENDBRANCH   3  11
BRANCH   3  14
HETATM   14  C   LIG     1      17.983  37.773  20.768  1.00  0.00     0.080 C 
HETATM   15  C   LIG     1      18.699  38.978  21.388  1.00  0.00     0.032 C 
HETATM   16  C   LIG     1      18.959  36.877  19.992  1.00  0.00     0.032 C 
ENDBRANCH   3  14
TORSDOF 5
ENDMDL
MODEL 2
REMARK VINA RESULT:      -5.4      3.734      6.691
REMARK  5 active torsions:
REMARK  status: ('A' for Active; 'I' for Inactive)
REMARK       I    between atoms: C_2  and  N_10 
REMARK    1  A    between atoms: C_2  and  S_3 
REMARK    2  A    between atoms: S_3  and  C_4 
REMARK    3  A    between atoms: C_4  and  C_5 
REMARK    4  A    between atoms: N_10  and  C_11 
REMARK    5  A    between atoms: N_10  and  C_14 
ROOT
HETATM    1  O   LIG     1      16.035  35.147  18.559  1.00  0.00    -0.260 OA
HETATM    2  C   LIG     1      15.520  34.268  19.299  1.00  0.00     0.282 C 
HETATM    3  N   LIG     1      15.088  33.000  18.743  1.00  0.00    -0.335 N 
ENDROOT
BRANCH   2   4
HETATM    4  S   LIG     1      15.334  34.645  21.049  1.00  0.00    -0.064 SA
BRANCH   4   5
HETATM    5  C   LIG     1      17.071  35.163  21.289  1.00  0.00     0.138 C 
BRANCH   5   6
HETATM    6  C   LIG     1      17.170  36.653  21.503  1.00  0.00     0.054 C 
HETATM    7  C   LIG     1      18.044  37.422  20.818  1.00  0.00     0.121 C 
HETATM    8 CL   LIG     1      19.164  36.746  19.637  1.00  0.00    -0.069 Cl
HETATM    9 CL   LIG     1      18.141  39.160  21.091  1.00  0.00    -0.069 Cl
HETATM   10 CL   LIG     1      16.129  37.369  22.734  1.00  0.00    -0.085 Cl
ENDBRANCH   5   6
ENDBRANCH   4   5
ENDBRANCH   2   4
BRANCH   3  11
HETATM   11  C   LIG     1      14.655  32.908  17.328  1.00  0.00     0.080 C 
HETATM   12  C   LIG     1      13.499  31.914  17.157  1.00  0.00     0.032 C 
HETATM   13  C   LIG     1      15.829  32.570  16.401  1.00  0.00     0.032 C 
ENDBRANCH   3  11
BRANCH   3  14
HETATM   14  C   LIG     1      15.000  31.811  19.622  1.00  0.00     0.080 C 
HETATM   15  C   LIG     1      16.397  31.307  20.003  1.00  0.00     0.032 C 
HETATM   16  C   LIG     1      14.143  32.087  20.865  1.00  0.00     0.032 C 
ENDBRANCH   3  14
TORSDOF 5
ENDMDL
MODEL 3
REMARK VINA RESULT:      -5.2      1.151      3.004
REMARK  5 active torsions:
REMARK  status: ('A' for Active; 'I' for Inactive)
REMARK       I    between atoms: C_2  and  N_10 
REMARK    1  A    between atoms: C_2  and  S_3 
REMARK    2  A    between atoms: S_3  and  C_4 
REMARK    3  A    between atoms: C_4  and  C_5 
REMARK    4  A    between atoms: N_10  and  C_11 
REMARK    5  A    between atoms: N_10  and  C_14 
ROOT
HETATM    1  O   LIG     1      16.565  35.843  19.230  1.00  0.00    -0.260 OA
HETATM    2  C   LIG     1      16.372  35.702  20.466  1.00  0.00     0.282 C 
HETATM    3  N   LIG     1      16.968  36.624  21.413  1.00  0.00    -0.335 N 
ENDROOT
BRANCH   2   4
HETATM    4  S   LIG     1      15.350  34.322  21.006  1.00  0.00    -0.064 SA
BRANCH   4   5
HETATM    5  C   LIG     1      16.188  33.079  19.960  1.00  0.00     0.138 C 
BRANCH   5   6
HETATM    6  C   LIG     1      15.191  32.152  19.310  1.00  0.00     0.054 C 
HETATM    7  C   LIG     1      14.680  32.389  18.083  1.00  0.00     0.121 C 
HETATM    8 CL   LIG     1      15.114  33.819  17.146  1.00  0.00    -0.069 Cl
HETATM    9 CL   LIG     1      13.514  31.291  17.349  1.00  0.00    -0.069 Cl
HETATM   10 CL   LIG     1      14.659  30.749  20.239  1.00  0.00    -0.085 Cl
ENDBRANCH   5   6
ENDBRANCH   4   5
ENDBRANCH   2   4
BRANCH   3  11
HETATM   11  C   LIG     1      18.237  37.319  21.089  1.00  0.00     0.080 C 
HETATM   12  C   LIG     1      18.027  38.833  20.945  1.00  0.00     0.032 C 
HETATM   13  C   LIG     1      18.904  36.723  19.844  1.00  0.00     0.032 C 
ENDBRANCH   3  11
BRANCH   3  14
HETATM   14  C   LIG     1      16.345  36.805  22.745  1.00  0.00     0.080 C 
HETATM   15  C   LIG     1      17.414  36.994  23.828  1.00  0.00     0.032 C 
HETATM   16  C   LIG     1      15.334  37.960  22.745  1.00  0.00     0.032 C 
ENDBRANCH   3  14
TORSDOF 5
ENDMDL
MODEL 4
REMARK VINA RESULT:      -4.9      4.158      6.012
REMARK  5 active torsions:
REMARK  status: ('A' for Active; 'I' for Inactive)
REMARK       I    between atoms: C_2  and  N_10 
REMARK    1  A    between atoms: C_2  and  S_3 
REMARK    2  A    between atoms: S_3  and  C_4 
REMARK    3  A    between atoms: C_4  and  C_5 
REMARK    4  A    between atoms: N_10  and  C_11 
REMARK    5  A    between atoms: N_10  and  C_14 
ROOT
HETATM    1  O   LIG     1      15.476  37.602  22.981  1.00  0.00    -0.260 OA
HETATM    2  C   LIG     1      16.688  37.645  22.643  1.00  0.00     0.282 C 
HETATM    3  N   LIG     1      17.129  37.034  21.403  1.00  0.00    -0.335 N 
ENDROOT
BRANCH   2   4
HETATM    4  S   LIG     1      17.841  38.476  23.748  1.00  0.00    -0.064 SA
BRANCH   4   5
HETATM    5  C   LIG     1      17.085  37.834  25.284  1.00  0.00     0.138 C 
BRANCH   5   6
HETATM    6  C   LIG     1      17.984  36.824  25.954  1.00  0.00     0.054 C 
HETATM    7  C   LIG     1      17.873  35.498  25.726  1.00  0.00     0.121 C 
HETATM    8 CL   LIG     1      16.648  34.831  24.648  1.00  0.00    -0.069 Cl
HETATM    9 CL   LIG     1      18.934  34.340  26.524  1.00  0.00    -0.069 Cl
HETATM   10 CL   LIG     1      19.174  37.433  27.106  1.00  0.00    -0.085 Cl
ENDBRANCH   5   6
ENDBRANCH   4   5
ENDBRANCH   2   4
BRANCH   3  11
HETATM   11  C   LIG     1      16.398  35.876  20.836  1.00  0.00     0.080 C 
HETATM   12  C   LIG     1      14.881  36.022  21.021  1.00  0.00     0.032 C 
HETATM   13  C   LIG     1      16.909  34.550  21.412  1.00  0.00     0.032 C 
ENDBRANCH   3  11
BRANCH   3  14
HETATM   14  C   LIG     1      18.364  37.522  20.749  1.00  0.00     0.080 C 
HETATM   15  C   LIG     1      18.619  36.775  19.434  1.00  0.00     0.032 C 
HETATM   16  C   LIG     1      18.331  39.041  20.535  1.00  0.00     0.032 C 
ENDBRANCH   3  14
TORSDOF 5
ENDMDL
MODEL 5
REMARK VINA RESULT:      -4.7      1.384      2.266
REMARK  5 active torsions:
REMARK  status: ('A' for Active; 'I' for Inactive)
REMARK       I    between atoms: C_2  and  N_10 
REMARK    1  A    between atoms: C_2  and  S_3 
REMARK    2  A    between atoms: S_3  and  C_4 
REMARK    3  A    between atoms: C_4  and  C_5 
REMARK    4  A    between atoms: N_10  and  C_11 
REMARK    5  A    between atoms: N_10  and  C_14 
ROOT
HETATM    1  O   LIG     1      16.913  34.592  22.843  1.00  0.00    -0.260 OA
HETATM    2  C   LIG     1      16.481  35.709  22.453  1.00  0.00     0.282 C 
HETATM    3  N   LIG     1      17.053  36.938  22.967  1.00  0.00    -0.335 N 
ENDROOT
BRANCH   2   4
HETATM    4  S   LIG     1      15.136  35.719  21.257  1.00  0.00    -0.064 SA
BRANCH   4   5
HETATM    5  C   LIG     1      16.047  34.783  19.978  1.00  0.00     0.138 C 
BRANCH   5   6
HETATM    6  C   LIG     1      15.293  33.542  19.570  1.00  0.00     0.054 C 
HETATM    7  C   LIG     1      14.988  33.276  18.282  1.00  0.00     0.121 C 
HETATM    8 CL   LIG     1      15.422  34.370  16.969  1.00  0.00    -0.069 Cl
HETATM    9 CL   LIG     1      14.103  31.820  17.833  1.00  0.00    -0.069 Cl
HETATM   10 CL   LIG     1      14.763  32.453  20.853  1.00  0.00    -0.085 Cl
ENDBRANCH   5   6
ENDBRANCH   4   5
ENDBRANCH   2   4
BRANCH   3  11
HETATM   11  C   LIG     1      17.657  36.978  24.320  1.00  0.00     0.080 C 
HETATM   12  C   LIG     1      17.399  35.676  25.089  1.00  0.00     0.032 C 
HETATM   13  C   LIG     1      17.186  38.203  25.113  1.00  0.00     0.032 C 
ENDBRANCH   3  11
BRANCH   3  14
HETATM   14  C   LIG     1      16.954  38.179  22.164  1.00  0.00     0.080 C 
HETATM   15  C   LIG     1      15.835  39.085  22.690  1.00  0.00     0.032 C 
HETATM   16  C   LIG     1      18.296  38.922  22.103  1.00  0.00     0.032 C 
ENDBRANCH   3  14
TORSDOF 5
ENDMDL
MODEL 6
REMARK VINA RESULT:      -4.5     14.689     16.272
REMARK  5 active torsions:
REMARK  status: ('A' for Active; 'I' for Inactive)
REMARK       I    between atoms: C_2  and  N_10 
REMARK    1  A    between atoms: C_2  and  S_3 
REMARK    2  A    between atoms: S_3  and  C_4 
REMARK    3  A    between atoms: C_4  and  C_5 
REMARK    4  A    between atoms: N_10  and  C_11 
REMARK    5  A    between atoms: N_10  and  C_14 
ROOT
HETATM    1  O   LIG     1      26.004  21.739  19.024  1.00  0.00    -0.260 OA
HETATM    2  C   LIG     1      25.374  22.592  19.702  1.00  0.00     0.282 C 
HETATM    3  N   LIG     1      24.071  22.277  20.254  1.00  0.00    -0.335 N 
ENDROOT
BRANCH   2   4
HETATM    4  S   LIG     1      26.139  24.203  19.948  1.00  0.00    -0.064 SA
BRANCH   4   5
HETATM    5  C   LIG     1      26.318  24.573  18.166  1.00  0.00     0.138 C 
BRANCH   5   6
HETATM    6  C   LIG     1      27.769  24.573  17.753  1.00  0.00     0.054 C 
HETATM    7  C   LIG     1      28.570  25.644  17.937  1.00  0.00     0.121 C 
HETATM    8 CL   LIG     1      27.982  27.144  18.651  1.00  0.00    -0.069 Cl
HETATM    9 CL   LIG     1      30.261  25.617  17.441  1.00  0.00    -0.069 Cl
HETATM   10 CL   LIG     1      28.388  23.124  16.958  1.00  0.00    -0.085 Cl
ENDBRANCH   5   6
ENDBRANCH   4   5
ENDBRANCH   2   4
BRANCH   3  11
HETATM   11  C   LIG     1      23.192  21.286  19.586  1.00  0.00     0.080 C 
HETATM   12  C   LIG     1      23.618  19.848  19.911  1.00  0.00     0.032 C 
HETATM   13  C   LIG     1      23.122  21.524  18.073  1.00  0.00     0.032 C 
ENDBRANCH   3  11
BRANCH   3  14
HETATM   14  C   LIG     1      23.586  23.012  21.444  1.00  0.00     0.080 C 
HETATM   15  C   LIG     1      22.053  23.044  21.482  1.00  0.00     0.032 C 
HETATM   16  C   LIG     1      24.168  22.435  22.742  1.00  0.00     0.032 C 
ENDBRANCH   3  14
TORSDOF 5
ENDMDL
MODEL 7
REMARK VINA RESULT:      -4.5     14.735     16.365
REMARK  5 active torsions:
REMARK  status: ('A' for Active; 'I' for Inactive)
REMARK       I    between atoms: C_2  and  N_10 
REMARK    1  A    between atoms: C_2  and  S_3 
REMARK    2  A    between atoms: S_3  and  C_4 
REMARK    3  A    between atoms: C_4  and  C_5 
REMARK    4  A    between atoms: N_10  and  C_11 
REMARK    5  A    between atoms: N_10  and  C_14 
ROOT
HETATM    1  O   LIG     1      25.952  20.984  19.665  1.00  0.00    -0.260 OA
HETATM    2  C   LIG     1      25.344  21.782  20.427  1.00  0.00     0.282 C 
HETATM    3  N   LIG     1      23.897  21.754  20.519  1.00  0.00    -0.335 N 
ENDROOT
BRANCH   2   4
HETATM    4  S   LIG     1      26.329  22.952  21.378  1.00  0.00    -0.064 SA
BRANCH   4   5
HETATM    5  C   LIG     1      27.613  23.165  20.095  1.00  0.00     0.138 C 
BRANCH   5   6
HETATM    6  C   LIG     1      27.432  24.466  19.353  1.00  0.00     0.054 C 
HETATM    7  C   LIG     1      28.167  25.563  19.634  1.00  0.00     0.121 C 
HETATM    8 CL   LIG     1      29.383  25.577  20.911  1.00  0.00    -0.069 Cl
HETATM    9 CL   LIG     1      27.932  27.071  18.753  1.00  0.00    -0.069 Cl
HETATM   10 CL   LIG     1      26.171  24.530  18.120  1.00  0.00    -0.085 Cl
ENDBRANCH   5   6
ENDBRANCH   4   5
ENDBRANCH   2   4
BRANCH   3  11
HETATM   11  C   LIG     1      23.080  21.298  19.368  1.00  0.00     0.080 C 
HETATM   12  C   LIG     1      23.078  19.767  19.253  1.00  0.00     0.032 C 
HETATM   13  C   LIG     1      23.529  21.959  18.060  1.00  0.00     0.032 C 
ENDBRANCH   3  11
BRANCH   3  14
HETATM   14  C   LIG     1      23.234  22.265  21.740  1.00  0.00     0.080 C 
HETATM   15  C   LIG     1      21.936  23.003  21.392  1.00  0.00     0.032 C 
HETATM   16  C   LIG     1      22.987  21.145  22.761  1.00  0.00     0.032 C 
ENDBRANCH   3  14
TORSDOF 5
ENDMDL
MODEL 8
REMARK VINA RESULT:      -4.4     14.943     16.409
REMARK  5 active torsions:
REMARK  status: ('A' for Active; 'I' for Inactive)
REMARK       I    between atoms: C_2  and  N_10 
REMARK    1  A    between atoms: C_2  and  S_3 
REMARK    2  A    between atoms: S_3  and  C_4 
REMARK    3  A    between atoms: C_4  and  C_5 
REMARK    4  A    between atoms: N_10  and  C_11 
REMARK    5  A    between atoms: N_10  and  C_14 
ROOT
HETATM    1  O   LIG     1      25.937  20.847  19.696  1.00  0.00    -0.260 OA
HETATM    2  C   LIG     1      25.337  21.646  20.463  1.00  0.00     0.282 C 
HETATM    3  N   LIG     1      23.888  21.657  20.526  1.00  0.00    -0.335 N 
ENDROOT
BRANCH   2   4
HETATM    4  S   LIG     1      26.335  22.766  21.458  1.00  0.00    -0.064 SA
BRANCH   4   5
HETATM    5  C   LIG     1      26.108  24.208  20.357  1.00  0.00     0.138 C 
BRANCH   5   6
HETATM    6  C   LIG     1      27.385  25.001  20.228  1.00  0.00     0.054 C 
HETATM    7  C   LIG     1      27.971  25.232  19.034  1.00  0.00     0.121 C 
HETATM    8 CL   LIG     1      27.311  24.601  17.526  1.00  0.00    -0.069 Cl
HETATM    9 CL   LIG     1      29.465  26.159  18.912  1.00  0.00    -0.069 Cl
HETATM   10 CL   LIG     1      28.133  25.586  21.715  1.00  0.00    -0.085 Cl
ENDBRANCH   5   6
ENDBRANCH   4   5
ENDBRANCH   2   4
BRANCH   3  11
HETATM   11  C   LIG     1      23.082  21.249  19.351  1.00  0.00     0.080 C 
HETATM   12  C   LIG     1      23.055  19.723  19.191  1.00  0.00     0.032 C 
HETATM   13  C   LIG     1      23.562  21.940  18.069  1.00  0.00     0.032 C 
ENDBRANCH   3  11
BRANCH   3  14
HETATM   14  C   LIG     1      23.216  22.160  21.746  1.00  0.00     0.080 C 
HETATM   15  C   LIG     1      21.986  23.001  21.386  1.00  0.00     0.032 C 
HETATM   16  C   LIG     1      22.855  21.018  22.705  1.00  0.00     0.032 C 
ENDBRANCH   3  14
TORSDOF 5
ENDMDL
MODEL 9
REMARK VINA RESULT:      -4.3     14.844     16.245
REMARK  5 active torsions:
REMARK  status: ('A' for Active; 'I' for Inactive)
REMARK       I    between atoms: C_2  and  N_10 
REMARK    1  A    between atoms: C_2  and  S_3 
REMARK    2  A    between atoms: S_3  and  C_4 
REMARK    3  A    between atoms: C_4  and  C_5 
REMARK    4  A    between atoms: N_10  and  C_11 
REMARK    5  A    between atoms: N_10  and  C_14 
ROOT
HETATM    1  O   LIG     1      25.153  23.981  20.165  1.00  0.00    -0.260 OA
HETATM    2  C   LIG     1      25.170  22.791  19.755  1.00  0.00     0.282 C 
HETATM    3  N   LIG     1      24.156  21.849  20.190  1.00  0.00    -0.335 N 
ENDROOT
BRANCH   2   4
HETATM    4  S   LIG     1      26.489  22.306  18.630  1.00  0.00    -0.064 SA
BRANCH   4   5
HETATM    5  C   LIG     1      27.782  23.299  19.458  1.00  0.00     0.138 C 
BRANCH   5   6
HETATM    6  C   LIG     1      28.027  24.595  18.726  1.00  0.00     0.054 C 
HETATM    7  C   LIG     1      28.117  25.779  19.368  1.00  0.00     0.121 C 
HETATM    8 CL   LIG     1      27.929  25.915  21.116  1.00  0.00    -0.069 Cl
HETATM    9 CL   LIG     1      28.400  27.278  18.487  1.00  0.00    -0.069 Cl
HETATM   10 CL   LIG     1      28.141  24.525  16.966  1.00  0.00    -0.085 Cl
ENDBRANCH   5   6
ENDBRANCH   4   5
ENDBRANCH   2   4
BRANCH   3  11
HETATM   11  C   LIG     1      23.496  22.012  21.507  1.00  0.00     0.080 C 
HETATM   12  C   LIG     1      22.246  22.895  21.404  1.00  0.00     0.032 C 
HETATM   13  C   LIG     1      24.472  22.539  22.566  1.00  0.00     0.032 C 
ENDBRANCH   3  11
BRANCH   3  14
HETATM   14  C   LIG     1      23.843  20.673  19.345  1.00  0.00     0.080 C 
HETATM   15  C   LIG     1      23.281  19.525  20.192  1.00  0.00     0.032 C 
HETATM   16  C   LIG     1      22.895  21.039  18.195  1.00  0.00     0.032 C 
ENDBRANCH   3  14
TORSDOF 5
ENDMDL
MODEL 10
REMARK VINA RESULT:      -4.3      7.290      8.927
REMARK  5 active torsions:
REMARK  status: ('A' for Active; 'I' for Inactive)
REMARK       I    between atoms: C_2  and  N_10 
REMARK    1  A    between atoms: C_2  and  S_3 
REMARK    2  A    between atoms: S_3  and  C_4 
REMARK    3  A    between atoms: C_4  and  C_5 
REMARK    4  A    between atoms: N_10  and  C_11 
REMARK    5  A    between atoms: N_10  and  C_14 
ROOT
HETATM    1  O   LIG     1      19.094  33.175  14.553  1.00  0.00    -0.260 OA
HETATM    2  C   LIG     1      18.690  33.278  13.365  1.00  0.00     0.282 C 
HETATM    3  N   LIG     1      19.619  33.594  12.297  1.00  0.00    -0.335 N 
ENDROOT
BRANCH   2   4
HETATM    4  S   LIG     1      16.935  33.031  13.049  1.00  0.00    -0.064 SA
BRANCH   4   5
HETATM    5  C   LIG     1      16.521  32.578  14.771  1.00  0.00     0.138 C 
BRANCH   5   6
HETATM    6  C   LIG     1      15.372  31.601  14.817  1.00  0.00     0.054 C 
HETATM    7  C   LIG     1      14.519  31.542  15.862  1.00  0.00     0.121 C 
HETATM    8 CL   LIG     1      14.692  32.581  17.275  1.00  0.00    -0.069 Cl
HETATM    9 CL   LIG     1      13.187  30.388  15.891  1.00  0.00    -0.069 Cl
HETATM   10 CL   LIG     1      15.203  30.481  13.464  1.00  0.00    -0.085 Cl
ENDBRANCH   5   6
ENDBRANCH   4   5
ENDBRANCH   2   4
BRANCH   3  11
HETATM   11  C   LIG     1      20.843  34.382  12.575  1.00  0.00     0.080 C 
HETATM   12  C   LIG     1      21.368  35.071  11.309  1.00  0.00     0.032 C 
HETATM   13  C   LIG     1      21.927  33.524  13.239  1.00  0.00     0.032 C 
ENDBRANCH   3  11
BRANCH   3  14
HETATM   14  C   LIG     1      19.295  33.196  10.908  1.00  0.00     0.080 C 
HETATM   15  C   LIG     1      19.121  34.427  10.012  1.00  0.00     0.032 C 
HETATM   16  C   LIG     1      20.341  32.229  10.337  1.00  0.00     0.032 C 
ENDBRANCH   3  14
TORSDOF 5
ENDMDL
MODEL 11
REMARK VINA RESULT:      -4.3      4.372      5.954
REMARK  5 active torsions:
REMARK  status: ('A' for Active; 'I' for Inactive)
REMARK       I    between atoms: C_2  and  N_10 
REMARK    1  A    between atoms: C_2  and  S_3 
REMARK    2  A    between atoms: S_3  and  C_4 
REMARK    3  A    between atoms: C_4  and  C_5 
REMARK    4  A    between atoms: N_10  and  C_11 
REMARK    5  A    between atoms: N_10  and  C_14 
ROOT
HETATM    1  O   LIG     1      17.787  36.624  20.178  1.00  0.00    -0.260 OA
HETATM    2  C   LIG     1      17.741  37.026  21.370  1.00  0.00     0.282 C 
HETATM    3  N   LIG     1      17.023  36.267  22.376  1.00  0.00    -0.335 N 
ENDROOT
BRANCH   2   4
HETATM    4  S   LIG     1      18.583  38.566  21.772  1.00  0.00    -0.064 SA
BRANCH   4   5
HETATM    5  C   LIG     1      18.096  39.424  20.233  1.00  0.00     0.138 C 
BRANCH   5   6
HETATM    6  C   LIG     1      19.116  39.210  19.143  1.00  0.00     0.054 C 
HETATM    7  C   LIG     1      18.912  39.626  17.874  1.00  0.00     0.121 C 
HETATM    8 CL   LIG     1      17.424  40.431  17.378  1.00  0.00    -0.069 Cl
HETATM    9 CL   LIG     1      20.119  39.359  16.619  1.00  0.00    -0.069 Cl
HETATM   10 CL   LIG     1      20.588  38.336  19.567  1.00  0.00    -0.085 Cl
ENDBRANCH   5   6
ENDBRANCH   4   5
ENDBRANCH   2   4
BRANCH   3  11
HETATM   11  C   LIG     1      15.869  35.418  21.994  1.00  0.00     0.080 C 
HETATM   12  C   LIG     1      16.281  34.322  21.002  1.00  0.00     0.032 C 
HETATM   13  C   LIG     1      14.706  36.258  21.452  1.00  0.00     0.032 C 
ENDBRANCH   3  11
BRANCH   3  14
HETATM   14  C   LIG     1      17.397  36.409  23.802  1.00  0.00     0.080 C 
HETATM   15  C   LIG     1      16.595  37.533  24.468  1.00  0.00     0.032 C 
HETATM   16  C   LIG     1      17.246  35.084  24.562  1.00  0.00     0.032 C 
ENDBRANCH   3  14
TORSDOF 5
ENDMDL
MODEL 12
REMARK VINA RESULT:      -4.1     14.732     15.773
REMARK  5 active torsions:
REMARK  status: ('A' for Active; 'I' for Inactive)
REMARK       I    between atoms: C_2  and  N_10 
REMARK    1  A    between atoms: C_2  and  S_3 
REMARK    2  A    between atoms: S_3  and  C_4 
REMARK    3  A    between atoms: C_4  and  C_5 
REMARK    4  A    between atoms: N_10  and  C_11 
REMARK    5  A    between atoms: N_10  and  C_14 
ROOT
HETATM    1  O   LIG     1      27.212  25.700  20.043  1.00  0.00    -0.260 OA
HETATM    2  C   LIG     1      27.305  25.189  18.896  1.00  0.00     0.282 C 
HETATM    3  N   LIG     1      28.549  25.267  18.154  1.00  0.00    -0.335 N 
ENDROOT
BRANCH   2   4
HETATM    4  S   LIG     1      25.849  24.378  18.216  1.00  0.00    -0.064 SA
BRANCH   4   5
HETATM    5  C   LIG     1      26.092  22.813  19.130  1.00  0.00     0.138 C 
BRANCH   5   6
HETATM    6  C   LIG     1      25.112  22.691  20.271  1.00  0.00     0.054 C 
HETATM    7  C   LIG     1      23.836  22.294  20.084  1.00  0.00     0.121 C 
HETATM    8 CL   LIG     1      23.196  21.911  18.487  1.00  0.00    -0.069 Cl
HETATM    9 CL   LIG     1      22.711  22.163  21.435  1.00  0.00    -0.069 Cl
HETATM   10 CL   LIG     1      25.678  23.142  21.880  1.00  0.00    -0.085 Cl
ENDBRANCH   5   6
ENDBRANCH   4   5
ENDBRANCH   2   4
BRANCH   3  11
HETATM   11  C   LIG     1      29.487  26.393  18.378  1.00  0.00     0.080 C 
HETATM   12  C   LIG     1      30.134  26.318  19.767  1.00  0.00     0.032 C 
HETATM   13  C   LIG     1      28.808  27.748  18.145  1.00  0.00     0.032 C 
ENDBRANCH   3  11
BRANCH   3  14
HETATM   14  C   LIG     1      28.839  24.258  17.110  1.00  0.00     0.080 C 
HETATM   15  C   LIG     1      29.011  24.923  15.739  1.00  0.00     0.032 C 
HETATM   16  C   LIG     1      30.058  23.400  17.475  1.00  0.00     0.032 C 
ENDBRANCH   3  14
TORSDOF 5
ENDMDL
MODEL 13
REMARK VINA RESULT:      -4.0      1.369      2.503
REMARK  5 active torsions:
REMARK  status: ('A' for Active; 'I' for Inactive)
REMARK       I    between atoms: C_2  and  N_10 
REMARK    1  A    between atoms: C_2  and  S_3 
REMARK    2  A    between atoms: S_3  and  C_4 
REMARK    3  A    between atoms: C_4  and  C_5 
REMARK    4  A    between atoms: N_10  and  C_11 
REMARK    5  A    between atoms: N_10  and  C_14 
ROOT
HETATM    1  O   LIG     1      17.760  36.298  19.541  1.00  0.00    -0.260 OA
HETATM    2  C   LIG     1      17.452  36.201  20.758  1.00  0.00     0.282 C 
HETATM    3  N   LIG     1      17.615  37.333  21.650  1.00  0.00    -0.335 N 
ENDROOT
BRANCH   2   4
HETATM    4  S   LIG     1      16.818  34.621  21.342  1.00  0.00    -0.064 SA
BRANCH   4   5
HETATM    5  C   LIG     1      15.213  34.759  20.477  1.00  0.00     0.138 C 
BRANCH   5   6
HETATM    6  C   LIG     1      15.205  33.941  19.209  1.00  0.00     0.054 C 
HETATM    7  C   LIG     1      14.941  32.617  19.209  1.00  0.00     0.121 C 
HETATM    8 CL   LIG     1      14.610  31.725  20.693  1.00  0.00    -0.069 Cl
HETATM    9 CL   LIG     1      14.942  31.685  17.713  1.00  0.00    -0.069 Cl
HETATM   10 CL   LIG     1      15.611  34.769  17.705  1.00  0.00    -0.085 Cl
ENDBRANCH   5   6
ENDBRANCH   4   5
ENDBRANCH   2   4
BRANCH   3  11
HETATM   11  C   LIG     1      18.655  38.356  21.383  1.00  0.00     0.080 C 
HETATM   12  C   LIG     1      18.966  39.182  22.639  1.00  0.00     0.032 C 
HETATM   13  C   LIG     1      18.272  39.253  20.200  1.00  0.00     0.032 C 
ENDBRANCH   3  11
BRANCH   3  14
HETATM   14  C   LIG     1      16.792  37.417  22.879  1.00  0.00     0.080 C 
HETATM   15  C   LIG     1      15.305  37.559  22.533  1.00  0.00     0.032 C 
HETATM   16  C   LIG     1      17.042  36.223  23.810  1.00  0.00     0.032 C 
ENDBRANCH   3  14
TORSDOF 5
ENDMDL
MODEL 14
REMARK VINA RESULT:      -4.0     15.102     16.768
REMARK  5 active torsions:
REMARK  status: ('A' for Active; 'I' for Inactive)
REMARK       I    between atoms: C_2  and  N_10 
REMARK    1  A    between atoms: C_2  and  S_3 
REMARK    2  A    between atoms: S_3  and  C_4 
REMARK    3  A    between atoms: C_4  and  C_5 
REMARK    4  A    between atoms: N_10  and  C_11 
REMARK    5  A    between atoms: N_10  and  C_14 
ROOT
HETATM    1  O   LIG     1      25.069  23.550  20.711  1.00  0.00    -0.260 OA
HETATM    2  C   LIG     1      25.064  22.526  21.442  1.00  0.00     0.282 C 
HETATM    3  N   LIG     1      24.127  21.447  21.192  1.00  0.00    -0.335 N 
ENDROOT
BRANCH   2   4
HETATM    4  S   LIG     1      26.242  22.457  22.802  1.00  0.00    -0.064 SA
BRANCH   4   5
HETATM    5  C   LIG     1      25.020  22.865  24.098  1.00  0.00     0.138 C 
BRANCH   5   6
HETATM    6  C   LIG     1      25.692  23.438  25.321  1.00  0.00     0.054 C 
HETATM    7  C   LIG     1      25.298  23.124  26.573  1.00  0.00     0.121 C 
HETATM    8 CL   LIG     1      23.944  22.040  26.887  1.00  0.00    -0.069 Cl
HETATM    9 CL   LIG     1      26.100  23.811  27.984  1.00  0.00    -0.069 Cl
HETATM   10 CL   LIG     1      27.001  24.594  25.063  1.00  0.00    -0.085 Cl
ENDBRANCH   5   6
ENDBRANCH   4   5
ENDBRANCH   2   4
BRANCH   3  11
HETATM   11  C   LIG     1      22.819  21.722  20.551  1.00  0.00     0.080 C 
HETATM   12  C   LIG     1      22.968  21.943  19.040  1.00  0.00     0.032 C 
HETATM   13  C   LIG     1      22.098  22.897  21.223  1.00  0.00     0.032 C 
ENDBRANCH   3  11
BRANCH   3  14
HETATM   14  C   LIG     1      24.450  20.078  21.656  1.00  0.00     0.080 C 
HETATM   15  C   LIG     1      23.175  19.305  22.012  1.00  0.00     0.032 C 
HETATM   16  C   LIG     1      25.300  19.318  20.628  1.00  0.00     0.032 C 
ENDBRANCH   3  14
TORSDOF 5
ENDMDL
MODEL 15
REMARK VINA RESULT:      -3.9     15.823     16.987
REMARK  5 active torsions:
REMARK  status: ('A' for Active; 'I' for Inactive)
REMARK       I    between atoms: C_2  and  N_10 
REMARK    1  A    between atoms: C_2  and  S_3 
REMARK    2  A    between atoms: S_3  and  C_4 
REMARK    3  A    between atoms: C_4  and  C_5 
REMARK    4  A    between atoms: N_10  and  C_11 
REMARK    5  A    between atoms: N_10  and  C_14 
ROOT
HETATM    1  O   LIG     1      26.568  20.747  18.106  1.00  0.00    -0.260 OA
HETATM    2  C   LIG     1      25.573  20.570  18.857  1.00  0.00     0.282 C 
HETATM    3  N   LIG     1      24.902  21.700  19.468  1.00  0.00    -0.335 N 
ENDROOT
BRANCH   2   4
HETATM    4  S   LIG     1      25.028  18.878  19.147  1.00  0.00    -0.064 SA
BRANCH   4   5
HETATM    5  C   LIG     1      24.191  18.697  17.531  1.00  0.00     0.138 C 
BRANCH   5   6
HETATM    6  C   LIG     1      22.724  18.397  17.708  1.00  0.00     0.054 C 
HETATM    7  C   LIG     1      21.873  18.324  16.663  1.00  0.00     0.121 C 
HETATM    8 CL   LIG     1      22.399  18.601  15.003  1.00  0.00    -0.069 Cl
HETATM    9 CL   LIG     1      20.162  17.976  16.899  1.00  0.00    -0.069 Cl
HETATM   10 CL   LIG     1      22.129  18.193  19.357  1.00  0.00    -0.085 Cl
ENDBRANCH   5   6
ENDBRANCH   4   5
ENDBRANCH   2   4
BRANCH   3  11
HETATM   11  C   LIG     1      25.647  22.949  19.760  1.00  0.00     0.080 C 
HETATM   12  C   LIG     1      25.880  23.774  18.488  1.00  0.00     0.032 C 
HETATM   13  C   LIG     1      26.963  22.661  20.493  1.00  0.00     0.032 C 
ENDBRANCH   3  11
BRANCH   3  14
HETATM   14  C   LIG     1      23.484  21.573  19.877  1.00  0.00     0.080 C 
HETATM   15  C   LIG     1      23.188  22.442  21.105  1.00  0.00     0.032 C 
HETATM   16  C   LIG     1      22.529  21.893  18.718  1.00  0.00     0.032 C 
ENDBRANCH   3  14
TORSDOF 5
ENDMDL
MODEL 16
REMARK VINA RESULT:      -3.9     14.791     15.813
REMARK  5 active torsions:
REMARK  status: ('A' for Active; 'I' for Inactive)
REMARK       I    between atoms: C_2  and  N_10 
REMARK    1  A    between atoms: C_2  and  S_3 
REMARK    2  A    between atoms: S_3  and  C_4 
REMARK    3  A    between atoms: C_4  and  C_5 
REMARK    4  A    between atoms: N_10  and  C_11 
REMARK    5  A    between atoms: N_10  and  C_14 
ROOT
HETATM    1  O   LIG     1      28.436  21.729  20.080  1.00  0.00    -0.260 OA
HETATM    2  C   LIG     1      27.754  22.686  19.627  1.00  0.00     0.282 C 
HETATM    3  N   LIG     1      28.130  24.057  19.913  1.00  0.00    -0.335 N 
ENDROOT
BRANCH   2   4
HETATM    4  S   LIG     1      26.307  22.291  18.631  1.00  0.00    -0.064 SA
BRANCH   4   5
HETATM    5  C   LIG     1      25.401  21.458  19.983  1.00  0.00     0.138 C 
BRANCH   5   6
HETATM    6  C   LIG     1      23.986  21.969  20.087  1.00  0.00     0.054 C 
HETATM    7  C   LIG     1      23.501  22.521  21.220  1.00  0.00     0.121 C 
HETATM    8 CL   LIG     1      24.473  22.666  22.684  1.00  0.00    -0.069 Cl
HETATM    9 CL   LIG     1      21.842  23.106  21.315  1.00  0.00    -0.069 Cl
HETATM   10 CL   LIG     1      22.945  21.773  18.676  1.00  0.00    -0.085 Cl
ENDBRANCH   5   6
ENDBRANCH   4   5
ENDBRANCH   2   4
BRANCH   3  11
HETATM   11  C   LIG     1      28.863  24.391  21.158  1.00  0.00     0.080 C 
HETATM   12  C   LIG     1      27.937  24.361  22.381  1.00  0.00     0.032 C 
HETATM   13  C   LIG     1      29.595  25.733  21.039  1.00  0.00     0.032 C 
ENDBRANCH   3  11
BRANCH   3  14
HETATM   14  C   LIG     1      27.704  25.137  18.994  1.00  0.00     0.080 C 
HETATM   15  C   LIG     1      28.059  24.793  17.543  1.00  0.00     0.032 C 
HETATM   16  C   LIG     1      26.210  25.454  19.147  1.00  0.00     0.032 C 
ENDBRANCH   3  14
TORSDOF 5
ENDMDL
MODEL 17
REMARK VINA RESULT:      -3.8      6.797      8.521
REMARK  5 active torsions:
REMARK  status: ('A' for Active; 'I' for Inactive)
REMARK       I    between atoms: C_2  and  N_10 
REMARK    1  A    between atoms: C_2  and  S_3 
REMARK    2  A    between atoms: S_3  and  C_4 
REMARK    3  A    between atoms: C_4  and  C_5 
REMARK    4  A    between atoms: N_10  and  C_11 
REMARK    5  A    between atoms: N_10  and  C_14 
ROOT
HETATM    1  O   LIG     1      17.314  35.372  14.175  1.00  0.00    -0.260 OA
HETATM    2  C   LIG     1      17.925  34.413  13.633  1.00  0.00     0.282 C 
HETATM    3  N   LIG     1      18.497  34.560  12.309  1.00  0.00    -0.335 N 
ENDROOT
BRANCH   2   4
HETATM    4  S   LIG     1      18.050  32.869  14.551  1.00  0.00    -0.064 SA
BRANCH   4   5
HETATM    5  C   LIG     1      16.440  33.052  15.397  1.00  0.00     0.138 C 
BRANCH   5   6
HETATM    6  C   LIG     1      15.475  31.973  14.972  1.00  0.00     0.054 C 
HETATM    7  C   LIG     1      14.524  31.491  15.801  1.00  0.00     0.121 C 
HETATM    8 CL   LIG     1      14.346  32.061  17.459  1.00  0.00    -0.069 Cl
HETATM    9 CL   LIG     1      13.412  30.227  15.279  1.00  0.00    -0.069 Cl
HETATM   10 CL   LIG     1      15.663  31.308  13.349  1.00  0.00    -0.085 Cl
ENDBRANCH   5   6
ENDBRANCH   4   5
ENDBRANCH   2   4
BRANCH   3  11
HETATM   11  C   LIG     1      17.904  35.509  11.335  1.00  0.00     0.080 C 
HETATM   12  C   LIG     1      16.408  35.238  11.127  1.00  0.00     0.032 C 
HETATM   13  C   LIG     1      18.668  35.503  10.006  1.00  0.00     0.032 C 
ENDBRANCH   3  11
BRANCH   3  14
HETATM   14  C   LIG     1      19.628  33.694  11.903  1.00  0.00     0.080 C 
HETATM   15  C   LIG     1      20.694  33.634  13.004  1.00  0.00     0.032 C 
HETATM   16  C   LIG     1      19.152  32.291  11.504  1.00  0.00     0.032 C 
ENDBRANCH   3  14
TORSDOF 5
ENDMDL
MODEL 18
REMARK VINA RESULT:      -3.7     15.503     16.829
REMARK  5 active torsions:
REMARK  status: ('A' for Active; 'I' for Inactive)
REMARK       I    between atoms: C_2  and  N_10 
REMARK    1  A    between atoms: C_2  and  S_3 
REMARK    2  A    between atoms: S_3  and  C_4 
REMARK    3  A    between atoms: C_4  and  C_5 
REMARK    4  A    between atoms: N_10  and  C_11 
REMARK    5  A    between atoms: N_10  and  C_14 
ROOT
HETATM    1  O   LIG     1      25.832  23.282  21.643  1.00  0.00    -0.260 OA
HETATM    2  C   LIG     1      25.805  23.246  20.385  1.00  0.00     0.282 C 
HETATM    3  N   LIG     1      25.598  21.991  19.689  1.00  0.00    -0.335 N 
ENDROOT
BRANCH   2   4
HETATM    4  S   LIG     1      26.042  24.792  19.494  1.00  0.00    -0.064 SA
BRANCH   4   5
HETATM    5  C   LIG     1      27.769  24.437  19.007  1.00  0.00     0.138 C 
BRANCH   5   6
HETATM    6  C   LIG     1      28.281  25.464  18.028  1.00  0.00     0.054 C 
HETATM    7  C   LIG     1      28.756  25.124  16.811  1.00  0.00     0.121 C 
HETATM    8 CL   LIG     1      28.844  23.447  16.272  1.00  0.00    -0.069 Cl
HETATM    9 CL   LIG     1      29.352  26.344  15.687  1.00  0.00    -0.069 Cl
HETATM   10 CL   LIG     1      28.292  27.150  18.549  1.00  0.00    -0.085 Cl
ENDBRANCH   5   6
ENDBRANCH   4   5
ENDBRANCH   2   4
BRANCH   3  11
HETATM   11  C   LIG     1      26.018  20.711  20.308  1.00  0.00     0.080 C 
HETATM   12  C   LIG     1      25.039  20.269  21.404  1.00  0.00     0.032 C 
HETATM   13  C   LIG     1      27.456  20.784  20.835  1.00  0.00     0.032 C 
ENDBRANCH   3  11
BRANCH   3  14
HETATM   14  C   LIG     1      25.040  22.001  18.317  1.00  0.00     0.080 C 
HETATM   15  C   LIG     1      25.605  20.843  17.487  1.00  0.00     0.032 C 
HETATM   16  C   LIG     1      23.505  21.986  18.330  1.00  0.00     0.032 C 
ENDBRANCH   3  14
TORSDOF 5
ENDMDL
MODEL 19
REMARK VINA RESULT:      -3.5     18.373     20.167
REMARK  5 active torsions:
REMARK  status: ('A' for Active; 'I' for Inactive)
REMARK       I    between atoms: C_2  and  N_10 
REMARK    1  A    between atoms: C_2  and  S_3 
REMARK    2  A    between atoms: S_3  and  C_4 
REMARK    3  A    between atoms: C_4  and  C_5 
REMARK    4  A    between atoms: N_10  and  C_11 
REMARK    5  A    between atoms: N_10  and  C_14 
ROOT
HETATM    1  O   LIG     1      19.550  22.693  31.874  1.00  0.00    -0.260 OA
HETATM    2  C   LIG     1      19.804  21.515  32.240  1.00  0.00     0.282 C 
HETATM    3  N   LIG     1      19.710  20.416  31.299  1.00  0.00    -0.335 N 
ENDROOT
BRANCH   2   4
HETATM    4  S   LIG     1      20.274  21.251  33.958  1.00  0.00    -0.064 SA
BRANCH   4   5
HETATM    5  C   LIG     1      21.317  22.748  34.074  1.00  0.00     0.138 C 
BRANCH   5   6
HETATM    6  C   LIG     1      21.497  23.177  35.509  1.00  0.00     0.054 C 
HETATM    7  C   LIG     1      22.648  22.970  36.183  1.00  0.00     0.121 C 
HETATM    8 CL   LIG     1      24.030  22.153  35.453  1.00  0.00    -0.069 Cl
HETATM    9 CL   LIG     1      22.830  23.478  37.861  1.00  0.00    -0.069 Cl
HETATM   10 CL   LIG     1      20.116  23.926  36.313  1.00  0.00    -0.085 Cl
ENDBRANCH   5   6
ENDBRANCH   4   5
ENDBRANCH   2   4
BRANCH   3  11
HETATM   11  C   LIG     1      18.776  20.489  30.150  1.00  0.00     0.080 C 
HETATM   12  C   LIG     1      17.897  19.234  30.060  1.00  0.00     0.032 C 
HETATM   13  C   LIG     1      19.520  20.750  28.835  1.00  0.00     0.032 C 
ENDBRANCH   3  11
BRANCH   3  14
HETATM   14  C   LIG     1      20.492  19.181  31.540  1.00  0.00     0.080 C 
HETATM   15  C   LIG     1      21.988  19.494  31.657  1.00  0.00     0.032 C 
HETATM   16  C   LIG     1      19.980  18.417  32.768  1.00  0.00     0.032 C 
ENDBRANCH   3  14
TORSDOF 5
ENDMDL
