MODEL 1
REMARK VINA RESULT:      -7.5      0.000      0.000
REMARK  3 active torsions:
REMARK  status: ('A' for Active; 'I' for Inactive)
REMARK    1  A    between atoms: N_2  and  C_4 
REMARK    2  A    between atoms: C_10  and  O_11 
REMARK    3  A    between atoms: O_11  and  C_12 
REMARK       I    between atoms: C_12  and  N_13 
ROOT
HETATM    1  C   LIG     1      16.370  35.656  20.587  1.00  0.00     0.726 A 
HETATM    2  N   LIG     1      17.418  36.225  19.935  1.00  0.00    -0.067 NA
HETATM    3  C   LIG     1      18.108  37.271  20.461  1.00  0.00     0.060 A 
HETATM    4  C   LIG     1      19.259  37.831  19.678  1.00  0.00     0.072 C 
HETATM    5  C   LIG     1      17.749  37.774  21.731  1.00  0.00     0.017 A 
HETATM    6  C   LIG     1      18.531  38.889  22.381  1.00  0.00     0.055 C 
HETATM    7  C   LIG     1      16.624  37.207  22.366  1.00  0.00     0.201 A 
HETATM    8  N   LIG     1      15.984  36.157  21.790  1.00  0.00    -0.037 NA
ENDROOT
BRANCH   7   9
HETATM    9  O   LIG     1      16.151  37.679  23.593  1.00  0.00    -0.241 OA
BRANCH   9  10
HETATM   10  C   LIG     1      16.928  37.699  24.759  1.00  0.00     0.368 C 
HETATM   11  N   LIG     1      17.457  36.471  25.286  1.00  0.00    -0.336 N 
HETATM   12  C   LIG     1      18.262  36.489  26.511  1.00  0.00     0.154 C 
HETATM   13  C   LIG     1      17.191  35.215  24.580  1.00  0.00     0.154 C 
HETATM   14  O   LIG     1      17.149  38.789  25.355  1.00  0.00    -0.238 OA
ENDBRANCH   9  10
ENDBRANCH   7   9
BRANCH   1  15
HETATM   15  N   LIG     1      15.667  34.543  20.002  1.00  0.00    -0.223 N 
HETATM   16  C   LIG     1      15.514  34.466  18.545  1.00  0.00     0.168 C 
HETATM   17  C   LIG     1      15.110  33.499  20.865  1.00  0.00     0.168 C 
ENDBRANCH   1  15
TORSDOF 3
ENDMDL
MODEL 2
REMARK VINA RESULT:      -7.0      5.290      8.337
REMARK  3 active torsions:
REMARK  status: ('A' for Active; 'I' for Inactive)
REMARK    1  A    between atoms: N_2  and  C_4 
REMARK    2  A    between atoms: C_10  and  O_11 
REMARK    3  A    between atoms: O_11  and  C_12 
REMARK       I    between atoms: C_12  and  N_13 
ROOT
HETATM    1  C   LIG     1      16.534  32.636  14.280  1.00  0.00     0.726 A 
HETATM    2  N   LIG     1      16.243  31.407  13.777  1.00  0.00    -0.067 NA
HETATM    3  C   LIG     1      15.302  30.606  14.342  1.00  0.00     0.060 A 
HETATM    4  C   LIG     1      15.037  29.268  13.715  1.00  0.00     0.072 C 
HETATM    5  C   LIG     1      14.583  31.063  15.468  1.00  0.00     0.017 A 
HETATM    6  C   LIG     1      13.482  30.234  16.084  1.00  0.00     0.055 C 
HETATM    7  C   LIG     1      14.939  32.318  16.008  1.00  0.00     0.201 A 
HETATM    8  N   LIG     1      15.882  33.073  15.390  1.00  0.00    -0.037 NA
ENDROOT
BRANCH   7   9
HETATM    9  O   LIG     1      14.331  32.827  17.159  1.00  0.00    -0.241 OA
BRANCH   9  10
HETATM   10  C   LIG     1      15.024  33.556  18.135  1.00  0.00     0.368 C 
HETATM   11  N   LIG     1      15.230  32.986  19.439  1.00  0.00    -0.336 N 
HETATM   12  C   LIG     1      15.946  33.751  20.463  1.00  0.00     0.154 C 
HETATM   13  C   LIG     1      14.727  31.640  19.720  1.00  0.00     0.154 C 
HETATM   14  O   LIG     1      15.453  34.714  17.876  1.00  0.00    -0.238 OA
ENDBRANCH   9  10
ENDBRANCH   7   9
BRANCH   1  15
HETATM   15  N   LIG     1      17.533  33.461  13.650  1.00  0.00    -0.223 N 
HETATM   16  C   LIG     1      17.857  34.773  14.220  1.00  0.00     0.168 C 
HETATM   17  C   LIG     1      18.217  32.984  12.445  1.00  0.00     0.168 C 
ENDBRANCH   1  15
TORSDOF 3
ENDMDL
MODEL 3
REMARK VINA RESULT:      -7.0      4.121      7.755
REMARK  3 active torsions:
REMARK  status: ('A' for Active; 'I' for Inactive)
REMARK    1  A    between atoms: N_2  and  C_4 
REMARK    2  A    between atoms: C_10  and  O_11 
REMARK    3  A    between atoms: O_11  and  C_12 
REMARK       I    between atoms: C_12  and  N_13 
ROOT
HETATM    1  C   LIG     1      15.846  34.635  19.844  1.00  0.00     0.726 A 
HETATM    2  N   LIG     1      15.475  33.443  20.380  1.00  0.00    -0.067 NA
HETATM    3  C   LIG     1      15.054  32.409  19.605  1.00  0.00     0.060 A 
HETATM    4  C   LIG     1      14.673  31.123  20.280  1.00  0.00     0.072 C 
HETATM    5  C   LIG     1      15.020  32.559  18.202  1.00  0.00     0.017 A 
HETATM    6  C   LIG     1      14.624  31.414  17.301  1.00  0.00     0.055 C 
HETATM    7  C   LIG     1      15.355  33.822  17.670  1.00  0.00     0.201 A 
HETATM    8  N   LIG     1      15.778  34.811  18.499  1.00  0.00    -0.037 NA
ENDROOT
BRANCH   7   9
HETATM    9  O   LIG     1      15.289  34.089  16.299  1.00  0.00    -0.241 OA
BRANCH   9  10
HETATM   10  C   LIG     1      16.424  34.260  15.495  1.00  0.00     0.368 C 
HETATM   11  N   LIG     1      16.776  33.251  14.533  1.00  0.00    -0.336 N 
HETATM   12  C   LIG     1      17.968  33.425  13.698  1.00  0.00     0.154 C 
HETATM   13  C   LIG     1      15.928  32.065  14.395  1.00  0.00     0.154 C 
HETATM   14  O   LIG     1      17.144  35.288  15.625  1.00  0.00    -0.238 OA
ENDBRANCH   9  10
ENDBRANCH   7   9
BRANCH   1  15
HETATM   15  N   LIG     1      16.295  35.706  20.696  1.00  0.00    -0.223 N 
HETATM   16  C   LIG     1      15.414  36.210  21.755  1.00  0.00     0.168 C 
HETATM   17  C   LIG     1      17.627  36.285  20.499  1.00  0.00     0.168 C 
ENDBRANCH   1  15
TORSDOF 3
ENDMDL
MODEL 4
REMARK VINA RESULT:      -6.8      6.214      9.782
REMARK  3 active torsions:
REMARK  status: ('A' for Active; 'I' for Inactive)
REMARK    1  A    between atoms: N_2  and  C_4 
REMARK    2  A    between atoms: C_10  and  O_11 
REMARK    3  A    between atoms: O_11  and  C_12 
REMARK       I    between atoms: C_12  and  N_13 
ROOT
HETATM    1  C   LIG     1      15.386  32.522  17.143  1.00  0.00     0.726 A 
HETATM    2  N   LIG     1      14.394  31.706  16.698  1.00  0.00    -0.067 NA
HETATM    3  C   LIG     1      14.432  31.140  15.463  1.00  0.00     0.060 A 
HETATM    4  C   LIG     1      13.299  30.243  15.055  1.00  0.00     0.072 C 
HETATM    5  C   LIG     1      15.539  31.380  14.620  1.00  0.00     0.017 A 
HETATM    6  C   LIG     1      15.654  30.716  13.269  1.00  0.00     0.055 C 
HETATM    7  C   LIG     1      16.531  32.273  15.080  1.00  0.00     0.201 A 
HETATM    8  N   LIG     1      16.437  32.798  16.328  1.00  0.00    -0.037 NA
ENDROOT
BRANCH   7   9
HETATM    9  O   LIG     1      17.631  32.625  14.293  1.00  0.00    -0.241 OA
BRANCH   9  10
HETATM   10  C   LIG     1      17.687  33.801  13.533  1.00  0.00     0.368 C 
HETATM   11  N   LIG     1      18.310  33.785  12.237  1.00  0.00    -0.336 N 
HETATM   12  C   LIG     1      18.378  35.017  11.446  1.00  0.00     0.154 C 
HETATM   13  C   LIG     1      18.860  32.530  11.722  1.00  0.00     0.154 C 
HETATM   14  O   LIG     1      17.207  34.875  13.990  1.00  0.00    -0.238 OA
ENDBRANCH   9  10
ENDBRANCH   7   9
BRANCH   1  15
HETATM   15  N   LIG     1      15.315  33.098  18.461  1.00  0.00    -0.223 N 
HETATM   16  C   LIG     1      15.158  32.224  19.629  1.00  0.00     0.168 C 
HETATM   17  C   LIG     1      15.399  34.551  18.626  1.00  0.00     0.168 C 
ENDBRANCH   1  15
TORSDOF 3
ENDMDL
MODEL 5
REMARK VINA RESULT:      -6.8      1.227      3.313
REMARK  3 active torsions:
REMARK  status: ('A' for Active; 'I' for Inactive)
REMARK    1  A    between atoms: N_2  and  C_4 
REMARK    2  A    between atoms: C_10  and  O_11 
REMARK    3  A    between atoms: O_11  and  C_12 
REMARK       I    between atoms: C_12  and  N_13 
ROOT
HETATM    1  C   LIG     1      18.071  37.242  20.529  1.00  0.00     0.726 A 
HETATM    2  N   LIG     1      17.485  36.328  19.711  1.00  0.00    -0.067 NA
HETATM    3  C   LIG     1      16.377  35.636  20.087  1.00  0.00     0.060 A 
HETATM    4  C   LIG     1      15.789  34.652  19.118  1.00  0.00     0.072 C 
HETATM    5  C   LIG     1      15.797  35.883  21.351  1.00  0.00     0.017 A 
HETATM    6  C   LIG     1      14.528  35.187  21.780  1.00  0.00     0.055 C 
HETATM    7  C   LIG     1      16.453  36.795  22.205  1.00  0.00     0.201 A 
HETATM    8  N   LIG     1      17.551  37.461  21.765  1.00  0.00    -0.037 NA
ENDROOT
BRANCH   7   9
HETATM    9  O   LIG     1      15.993  37.058  23.499  1.00  0.00    -0.241 OA
BRANCH   9  10
HETATM   10  C   LIG     1      16.842  37.398  24.561  1.00  0.00     0.368 C 
HETATM   11  N   LIG     1      17.509  36.363  25.303  1.00  0.00    -0.336 N 
HETATM   12  C   LIG     1      18.389  36.718  26.419  1.00  0.00     0.154 C 
HETATM   13  C   LIG     1      17.305  34.964  24.921  1.00  0.00     0.154 C 
HETATM   14  O   LIG     1      17.008  38.609  24.877  1.00  0.00    -0.238 OA
ENDBRANCH   9  10
ENDBRANCH   7   9
BRANCH   1  15
HETATM   15  N   LIG     1      19.240  37.962  20.093  1.00  0.00    -0.223 N 
HETATM   16  C   LIG     1      19.310  39.416  20.280  1.00  0.00     0.168 C 
HETATM   17  C   LIG     1      20.348  37.239  19.464  1.00  0.00     0.168 C 
ENDBRANCH   1  15
TORSDOF 3
ENDMDL
MODEL 6
REMARK VINA RESULT:      -6.6      7.907      9.935
REMARK  3 active torsions:
REMARK  status: ('A' for Active; 'I' for Inactive)
REMARK    1  A    between atoms: N_2  and  C_4 
REMARK    2  A    between atoms: C_10  and  O_11 
REMARK    3  A    between atoms: O_11  and  C_12 
REMARK       I    between atoms: C_12  and  N_13 
ROOT
HETATM    1  C   LIG     1      14.675  30.288  14.722  1.00  0.00     0.726 A 
HETATM    2  N   LIG     1      14.290  30.534  16.002  1.00  0.00    -0.067 NA
HETATM    3  C   LIG     1      14.593  31.700  16.631  1.00  0.00     0.060 A 
HETATM    4  C   LIG     1      14.119  31.892  18.042  1.00  0.00     0.072 C 
HETATM    5  C   LIG     1      15.308  32.701  15.936  1.00  0.00     0.017 A 
HETATM    6  C   LIG     1      15.605  34.036  16.574  1.00  0.00     0.055 C 
HETATM    7  C   LIG     1      15.746  32.404  14.628  1.00  0.00     0.201 A 
HETATM    8  N   LIG     1      15.401  31.223  14.054  1.00  0.00    -0.037 NA
ENDROOT
BRANCH   7   9
HETATM    9  O   LIG     1      16.516  33.303  13.884  1.00  0.00    -0.241 OA
BRANCH   9  10
HETATM   10  C   LIG     1      17.917  33.307  13.896  1.00  0.00     0.368 C 
HETATM   11  N   LIG     1      18.638  33.974  12.846  1.00  0.00    -0.336 N 
HETATM   12  C   LIG     1      20.103  33.971  12.852  1.00  0.00     0.154 C 
HETATM   13  C   LIG     1      17.892  34.657  11.787  1.00  0.00     0.154 C 
HETATM   14  O   LIG     1      18.545  32.715  14.816  1.00  0.00    -0.238 OA
ENDBRANCH   9  10
ENDBRANCH   7   9
BRANCH   1  15
HETATM   15  N   LIG     1      14.329  29.044  14.085  1.00  0.00    -0.223 N 
HETATM   16  C   LIG     1      15.390  28.167  13.578  1.00  0.00     0.168 C 
HETATM   17  C   LIG     1      12.920  28.664  13.947  1.00  0.00     0.168 C 
ENDBRANCH   1  15
TORSDOF 3
ENDMDL
MODEL 7
REMARK VINA RESULT:      -6.5      7.859     10.311
REMARK  3 active torsions:
REMARK  status: ('A' for Active; 'I' for Inactive)
REMARK    1  A    between atoms: N_2  and  C_4 
REMARK    2  A    between atoms: C_10  and  O_11 
REMARK    3  A    between atoms: O_11  and  C_12 
REMARK       I    between atoms: C_12  and  N_13 
ROOT
HETATM    1  C   LIG     1      15.333  30.992  14.571  1.00  0.00     0.726 A 
HETATM    2  N   LIG     1      14.888  31.681  15.655  1.00  0.00    -0.067 NA
HETATM    3  C   LIG     1      15.466  32.846  16.051  1.00  0.00     0.060 A 
HETATM    4  C   LIG     1      14.904  33.546  17.254  1.00  0.00     0.072 C 
HETATM    5  C   LIG     1      16.543  33.377  15.309  1.00  0.00     0.017 A 
HETATM    6  C   LIG     1      17.168  34.702  15.673  1.00  0.00     0.055 C 
HETATM    7  C   LIG     1      17.025  32.619  14.220  1.00  0.00     0.201 A 
HETATM    8  N   LIG     1      16.397  31.467  13.871  1.00  0.00    -0.037 NA
ENDROOT
BRANCH   7   9
HETATM    9  O   LIG     1      18.128  33.028  13.465  1.00  0.00    -0.241 OA
BRANCH   9  10
HETATM   10  C   LIG     1      18.036  33.940  12.405  1.00  0.00     0.368 C 
HETATM   11  N   LIG     1      19.063  33.971  11.399  1.00  0.00    -0.336 N 
HETATM   12  C   LIG     1      18.974  34.932  10.296  1.00  0.00     0.154 C 
HETATM   13  C   LIG     1      20.181  33.030  11.488  1.00  0.00     0.154 C 
HETATM   14  O   LIG     1      17.066  34.744  12.342  1.00  0.00    -0.238 OA
ENDBRANCH   9  10
ENDBRANCH   7   9
BRANCH   1  15
HETATM   15  N   LIG     1      14.691  29.765  14.177  1.00  0.00    -0.223 N 
HETATM   16  C   LIG     1      13.259  29.579  14.433  1.00  0.00     0.168 C 
HETATM   17  C   LIG     1      15.473  28.711  13.524  1.00  0.00     0.168 C 
ENDBRANCH   1  15
TORSDOF 3
ENDMDL
MODEL 8
REMARK VINA RESULT:      -6.5      5.807      9.237
REMARK  3 active torsions:
REMARK  status: ('A' for Active; 'I' for Inactive)
REMARK    1  A    between atoms: N_2  and  C_4 
REMARK    2  A    between atoms: C_10  and  O_11 
REMARK    3  A    between atoms: O_11  and  C_12 
REMARK       I    between atoms: C_12  and  N_13 
ROOT
HETATM    1  C   LIG     1      15.147  32.849  17.787  1.00  0.00     0.726 A 
HETATM    2  N   LIG     1      14.341  31.777  17.566  1.00  0.00    -0.067 NA
HETATM    3  C   LIG     1      14.238  31.198  16.341  1.00  0.00     0.060 A 
HETATM    4  C   LIG     1      13.332  30.011  16.189  1.00  0.00     0.072 C 
HETATM    5  C   LIG     1      15.004  31.700  15.266  1.00  0.00     0.017 A 
HETATM    6  C   LIG     1      14.971  31.043  13.908  1.00  0.00     0.055 C 
HETATM    7  C   LIG     1      15.792  32.846  15.503  1.00  0.00     0.201 A 
HETATM    8  N   LIG     1      15.858  33.372  16.753  1.00  0.00    -0.037 NA
ENDROOT
BRANCH   7   9
HETATM    9  O   LIG     1      16.534  33.456  14.487  1.00  0.00    -0.241 OA
BRANCH   9  10
HETATM   10  C   LIG     1      17.915  33.274  14.330  1.00  0.00     0.368 C 
HETATM   11  N   LIG     1      18.584  33.841  13.191  1.00  0.00    -0.336 N 
HETATM   12  C   LIG     1      20.026  33.643  13.020  1.00  0.00     0.154 C 
HETATM   13  C   LIG     1      17.813  34.619  12.220  1.00  0.00     0.154 C 
HETATM   14  O   LIG     1      18.566  32.602  15.176  1.00  0.00    -0.238 OA
ENDBRANCH   9  10
ENDBRANCH   7   9
BRANCH   1  15
HETATM   15  N   LIG     1      15.237  33.432  19.100  1.00  0.00    -0.223 N 
HETATM   16  C   LIG     1      14.992  32.600  20.283  1.00  0.00     0.168 C 
HETATM   17  C   LIG     1      15.570  34.852  19.245  1.00  0.00     0.168 C 
ENDBRANCH   1  15
TORSDOF 3
ENDMDL
MODEL 9
REMARK VINA RESULT:      -6.1      2.673      5.466
REMARK  3 active torsions:
REMARK  status: ('A' for Active; 'I' for Inactive)
REMARK    1  A    between atoms: N_2  and  C_4 
REMARK    2  A    between atoms: C_10  and  O_11 
REMARK    3  A    between atoms: O_11  and  C_12 
REMARK       I    between atoms: C_12  and  N_13 
ROOT
HETATM    1  C   LIG     1      18.457  37.642  20.154  1.00  0.00     0.726 A 
HETATM    2  N   LIG     1      18.212  38.234  21.353  1.00  0.00    -0.067 NA
HETATM    3  C   LIG     1      17.450  37.635  22.306  1.00  0.00     0.060 A 
HETATM    4  C   LIG     1      17.239  38.356  23.606  1.00  0.00     0.072 C 
HETATM    5  C   LIG     1      16.914  36.352  22.064  1.00  0.00     0.017 A 
HETATM    6  C   LIG     1      16.120  35.622  23.121  1.00  0.00     0.055 C 
HETATM    7  C   LIG     1      17.133  35.779  20.793  1.00  0.00     0.201 A 
HETATM    8  N   LIG     1      17.912  36.426  19.888  1.00  0.00    -0.037 NA
ENDROOT
BRANCH   7   9
HETATM    9  O   LIG     1      16.589  34.542  20.435  1.00  0.00    -0.241 OA
BRANCH   9  10
HETATM   10  C   LIG     1      15.889  34.329  19.240  1.00  0.00     0.368 C 
HETATM   11  N   LIG     1      15.378  33.020  18.935  1.00  0.00    -0.336 N 
HETATM   12  C   LIG     1      14.655  32.793  17.681  1.00  0.00     0.154 C 
HETATM   13  C   LIG     1      15.581  31.931  19.893  1.00  0.00     0.154 C 
HETATM   14  O   LIG     1      15.722  35.278  18.425  1.00  0.00    -0.238 OA
ENDBRANCH   9  10
ENDBRANCH   7   9
BRANCH   1  15
HETATM   15  N   LIG     1      19.275  38.304  19.171  1.00  0.00    -0.223 N 
HETATM   16  C   LIG     1      18.696  38.681  17.878  1.00  0.00     0.168 C 
HETATM   17  C   LIG     1      20.680  38.593  19.469  1.00  0.00     0.168 C 
ENDBRANCH   1  15
TORSDOF 3
ENDMDL
MODEL 10
REMARK VINA RESULT:      -5.2      6.649      9.919
REMARK  3 active torsions:
REMARK  status: ('A' for Active; 'I' for Inactive)
REMARK    1  A    between atoms: N_2  and  C_4 
REMARK    2  A    between atoms: C_10  and  O_11 
REMARK    3  A    between atoms: O_11  and  C_12 
REMARK       I    between atoms: C_12  and  N_13 
ROOT
HETATM    1  C   LIG     1      15.531  32.619  17.159  1.00  0.00     0.726 A 
HETATM    2  N   LIG     1      16.153  33.687  16.593  1.00  0.00    -0.067 NA
HETATM    3  C   LIG     1      16.563  33.674  15.297  1.00  0.00     0.060 A 
HETATM    4  C   LIG     1      17.232  34.901  14.749  1.00  0.00     0.072 C 
HETATM    5  C   LIG     1      16.318  32.534  14.500  1.00  0.00     0.017 A 
HETATM    6  C   LIG     1      16.694  32.504  13.039  1.00  0.00     0.055 C 
HETATM    7  C   LIG     1      15.721  31.416  15.122  1.00  0.00     0.201 A 
HETATM    8  N   LIG     1      15.327  31.498  16.419  1.00  0.00    -0.037 NA
ENDROOT
BRANCH   7   9
HETATM    9  O   LIG     1      15.498  30.219  14.435  1.00  0.00    -0.241 OA
BRANCH   9  10
HETATM   10  C   LIG     1      14.246  29.593  14.371  1.00  0.00     0.368 C 
HETATM   11  N   LIG     1      14.145  28.247  13.875  1.00  0.00    -0.336 N 
HETATM   12  C   LIG     1      12.835  27.595  13.798  1.00  0.00     0.154 C 
HETATM   13  C   LIG     1      15.361  27.543  13.463  1.00  0.00     0.154 C 
HETATM   14  O   LIG     1      13.208  30.213  14.731  1.00  0.00    -0.238 OA
ENDBRANCH   9  10
ENDBRANCH   7   9
BRANCH   1  15
HETATM   15  N   LIG     1      15.105  32.672  18.533  1.00  0.00    -0.223 N 
HETATM   16  C   LIG     1      15.303  33.901  19.309  1.00  0.00     0.168 C 
HETATM   17  C   LIG     1      14.478  31.498  19.147  1.00  0.00     0.168 C 
ENDBRANCH   1  15
TORSDOF 3
ENDMDL
MODEL 11
REMARK VINA RESULT:      -5.1      2.678      4.990
REMARK  3 active torsions:
REMARK  status: ('A' for Active; 'I' for Inactive)
REMARK    1  A    between atoms: N_2  and  C_4 
REMARK    2  A    between atoms: C_10  and  O_11 
REMARK    3  A    between atoms: O_11  and  C_12 
REMARK       I    between atoms: C_12  and  N_13 
ROOT
HETATM    1  C   LIG     1      15.695  33.331  17.398  1.00  0.00     0.726 A 
HETATM    2  N   LIG     1      15.403  32.207  18.105  1.00  0.00    -0.067 NA
HETATM    3  C   LIG     1      15.147  32.245  19.439  1.00  0.00     0.060 A 
HETATM    4  C   LIG     1      14.823  30.958  20.140  1.00  0.00     0.072 C 
HETATM    5  C   LIG     1      15.158  33.485  20.115  1.00  0.00     0.017 A 
HETATM    6  C   LIG     1      14.812  33.581  21.581  1.00  0.00     0.055 C 
HETATM    7  C   LIG     1      15.517  34.632  19.375  1.00  0.00     0.201 A 
HETATM    8  N   LIG     1      15.752  34.526  18.042  1.00  0.00    -0.037 NA
ENDROOT
BRANCH   7   9
HETATM    9  O   LIG     1      15.620  35.893  19.969  1.00  0.00    -0.241 OA
BRANCH   9  10
HETATM   10  C   LIG     1      16.740  36.307  20.702  1.00  0.00     0.368 C 
HETATM   11  N   LIG     1      16.560  36.997  21.951  1.00  0.00    -0.336 N 
HETATM   12  C   LIG     1      17.730  37.440  22.714  1.00  0.00     0.154 C 
HETATM   13  C   LIG     1      15.204  37.240  22.447  1.00  0.00     0.154 C 
HETATM   14  O   LIG     1      17.902  36.090  20.262  1.00  0.00    -0.238 OA
ENDBRANCH   9  10
ENDBRANCH   7   9
BRANCH   1  15
HETATM   15  N   LIG     1      15.953  33.252  15.983  1.00  0.00    -0.223 N 
HETATM   16  C   LIG     1      15.368  32.161  15.197  1.00  0.00     0.168 C 
HETATM   17  C   LIG     1      16.798  34.262  15.340  1.00  0.00     0.168 C 
ENDBRANCH   1  15
TORSDOF 3
ENDMDL
MODEL 12
REMARK VINA RESULT:      -4.6     17.126     19.294
REMARK  3 active torsions:
REMARK  status: ('A' for Active; 'I' for Inactive)
REMARK    1  A    between atoms: N_2  and  C_4 
REMARK    2  A    between atoms: C_10  and  O_11 
REMARK    3  A    between atoms: O_11  and  C_12 
REMARK       I    between atoms: C_12  and  N_13 
ROOT
HETATM    1  C   LIG     1      27.378  27.041  36.624  1.00  0.00     0.726 A 
HETATM    2  N   LIG     1      26.936  27.981  37.501  1.00  0.00    -0.067 NA
HETATM    3  C   LIG     1      26.576  29.228  37.095  1.00  0.00     0.060 A 
HETATM    4  C   LIG     1      26.089  30.200  38.129  1.00  0.00     0.072 C 
HETATM    5  C   LIG     1      26.636  29.558  35.723  1.00  0.00     0.017 A 
HETATM    6  C   LIG     1      26.180  30.907  35.222  1.00  0.00     0.055 C 
HETATM    7  C   LIG     1      27.149  28.587  34.838  1.00  0.00     0.201 A 
HETATM    8  N   LIG     1      27.483  27.357  35.307  1.00  0.00    -0.037 NA
ENDROOT
BRANCH   7   9
HETATM    9  O   LIG     1      27.309  28.842  33.473  1.00  0.00    -0.241 OA
BRANCH   9  10
HETATM   10  C   LIG     1      27.272  27.838  32.495  1.00  0.00     0.368 C 
HETATM   11  N   LIG     1      28.488  27.424  31.850  1.00  0.00    -0.336 N 
HETATM   12  C   LIG     1      28.449  26.382  30.821  1.00  0.00     0.154 C 
HETATM   13  C   LIG     1      29.755  28.046  32.242  1.00  0.00     0.154 C 
HETATM   14  O   LIG     1      26.173  27.312  32.169  1.00  0.00    -0.238 OA
ENDBRANCH   9  10
ENDBRANCH   7   9
BRANCH   1  15
HETATM   15  N   LIG     1      27.743  25.729  37.090  1.00  0.00    -0.223 N 
HETATM   16  C   LIG     1      26.939  25.076  38.129  1.00  0.00     0.168 C 
HETATM   17  C   LIG     1      28.916  25.056  36.525  1.00  0.00     0.168 C 
ENDBRANCH   1  15
TORSDOF 3
ENDMDL
MODEL 13
REMARK VINA RESULT:      -4.6     15.488     16.538
REMARK  3 active torsions:
REMARK  status: ('A' for Active; 'I' for Inactive)
REMARK    1  A    between atoms: N_2  and  C_4 
REMARK    2  A    between atoms: C_10  and  O_11 
REMARK    3  A    between atoms: O_11  and  C_12 
REMARK       I    between atoms: C_12  and  N_13 
ROOT
HETATM    1  C   LIG     1      28.002  24.896  22.037  1.00  0.00     0.726 A 
HETATM    2  N   LIG     1      28.247  25.796  21.048  1.00  0.00    -0.067 NA
HETATM    3  C   LIG     1      27.646  25.708  19.833  1.00  0.00     0.060 A 
HETATM    4  C   LIG     1      27.967  26.752  18.802  1.00  0.00     0.072 C 
HETATM    5  C   LIG     1      26.721  24.670  19.587  1.00  0.00     0.017 A 
HETATM    6  C   LIG     1      25.980  24.576  18.275  1.00  0.00     0.055 C 
HETATM    7  C   LIG     1      26.522  23.715  20.606  1.00  0.00     0.201 A 
HETATM    8  N   LIG     1      27.147  23.866  21.802  1.00  0.00    -0.037 NA
ENDROOT
BRANCH   7   9
HETATM    9  O   LIG     1      25.677  22.615  20.434  1.00  0.00    -0.241 OA
BRANCH   9  10
HETATM   10  C   LIG     1      24.499  22.429  21.171  1.00  0.00     0.368 C 
HETATM   11  N   LIG     1      24.164  21.121  21.664  1.00  0.00    -0.336 N 
HETATM   12  C   LIG     1      22.928  20.924  22.425  1.00  0.00     0.154 C 
HETATM   13  C   LIG     1      25.073  20.003  21.404  1.00  0.00     0.154 C 
HETATM   14  O   LIG     1      23.726  23.403  21.386  1.00  0.00    -0.238 OA
ENDBRANCH   9  10
ENDBRANCH   7   9
BRANCH   1  15
HETATM   15  N   LIG     1      28.652  25.026  23.315  1.00  0.00    -0.223 N 
HETATM   16  C   LIG     1      29.195  23.836  23.979  1.00  0.00     0.168 C 
HETATM   17  C   LIG     1      28.763  26.345  23.945  1.00  0.00     0.168 C 
ENDBRANCH   1  15
TORSDOF 3
ENDMDL
MODEL 14
REMARK VINA RESULT:      -4.5     15.611     16.539
REMARK  3 active torsions:
REMARK  status: ('A' for Active; 'I' for Inactive)
REMARK    1  A    between atoms: N_2  and  C_4 
REMARK    2  A    between atoms: C_10  and  O_11 
REMARK    3  A    between atoms: O_11  and  C_12 
REMARK       I    between atoms: C_12  and  N_13 
ROOT
HETATM    1  C   LIG     1      25.901  23.705  19.932  1.00  0.00     0.726 A 
HETATM    2  N   LIG     1      25.002  23.016  19.180  1.00  0.00    -0.067 NA
HETATM    3  C   LIG     1      24.037  22.243  19.744  1.00  0.00     0.060 A 
HETATM    4  C   LIG     1      23.079  21.526  18.839  1.00  0.00     0.072 C 
HETATM    5  C   LIG     1      23.941  22.166  21.151  1.00  0.00     0.017 A 
HETATM    6  C   LIG     1      22.842  21.375  21.819  1.00  0.00     0.055 C 
HETATM    7  C   LIG     1      24.917  22.844  21.912  1.00  0.00     0.201 A 
HETATM    8  N   LIG     1      25.849  23.606  21.286  1.00  0.00    -0.037 NA
ENDROOT
BRANCH   7   9
HETATM    9  O   LIG     1      24.946  22.774  23.308  1.00  0.00    -0.241 OA
BRANCH   9  10
HETATM   10  C   LIG     1      25.909  22.047  24.021  1.00  0.00     0.368 C 
HETATM   11  N   LIG     1      26.609  22.669  25.113  1.00  0.00    -0.336 N 
HETATM   12  C   LIG     1      27.623  21.913  25.852  1.00  0.00     0.154 C 
HETATM   13  C   LIG     1      26.287  24.050  25.476  1.00  0.00     0.154 C 
HETATM   14  O   LIG     1      26.174  20.858  23.696  1.00  0.00    -0.238 OA
ENDBRANCH   9  10
ENDBRANCH   7   9
BRANCH   1  15
HETATM   15  N   LIG     1      26.905  24.520  19.298  1.00  0.00    -0.223 N 
HETATM   16  C   LIG     1      27.303  24.238  17.915  1.00  0.00     0.168 C 
HETATM   17  C   LIG     1      27.522  25.623  20.040  1.00  0.00     0.168 C 
ENDBRANCH   1  15
TORSDOF 3
ENDMDL
MODEL 15
REMARK VINA RESULT:      -4.5     15.377     16.631
REMARK  3 active torsions:
REMARK  status: ('A' for Active; 'I' for Inactive)
REMARK    1  A    between atoms: N_2  and  C_4 
REMARK    2  A    between atoms: C_10  and  O_11 
REMARK    3  A    between atoms: O_11  and  C_12 
REMARK       I    between atoms: C_12  and  N_13 
ROOT
HETATM    1  C   LIG     1      25.572  22.888  23.383  1.00  0.00     0.726 A 
HETATM    2  N   LIG     1      24.344  22.637  22.858  1.00  0.00    -0.067 NA
HETATM    3  C   LIG     1      24.108  22.706  21.521  1.00  0.00     0.060 A 
HETATM    4  C   LIG     1      22.724  22.402  21.025  1.00  0.00     0.072 C 
HETATM    5  C   LIG     1      25.167  23.023  20.643  1.00  0.00     0.017 A 
HETATM    6  C   LIG     1      24.965  23.043  19.147  1.00  0.00     0.055 C 
HETATM    7  C   LIG     1      26.420  23.335  21.213  1.00  0.00     0.201 A 
HETATM    8  N   LIG     1      26.592  23.238  22.556  1.00  0.00    -0.037 NA
ENDROOT
BRANCH   7   9
HETATM    9  O   LIG     1      27.512  23.725  20.431  1.00  0.00    -0.241 OA
BRANCH   9  10
HETATM   10  C   LIG     1      27.832  25.065  20.174  1.00  0.00     0.368 C 
HETATM   11  N   LIG     1      28.101  25.489  18.827  1.00  0.00    -0.336 N 
HETATM   12  C   LIG     1      28.446  26.887  18.558  1.00  0.00     0.154 C 
HETATM   13  C   LIG     1      28.014  24.513  17.738  1.00  0.00     0.154 C 
HETATM   14  O   LIG     1      27.902  25.893  21.123  1.00  0.00    -0.238 OA
ENDBRANCH   9  10
ENDBRANCH   7   9
BRANCH   1  15
HETATM   15  N   LIG     1      25.786  22.798  24.805  1.00  0.00    -0.223 N 
HETATM   16  C   LIG     1      26.146  24.000  25.564  1.00  0.00     0.168 C 
HETATM   17  C   LIG     1      25.645  21.506  25.481  1.00  0.00     0.168 C 
ENDBRANCH   1  15
TORSDOF 3
ENDMDL
