REMARK  3 active torsions:
REMARK  status: ('A' for Active; 'I' for Inactive)
REMARK    1  A    between atoms: N_2  and  C_4 
REMARK    2  A    between atoms: C_10  and  O_11 
REMARK    3  A    between atoms: O_11  and  C_12 
REMARK       I    between atoms: C_12  and  N_13 
ROOT
HETATM    1  C   LIG     1      -2.150   0.448   0.690  1.00  0.00     0.726 A 
HETATM    2  N   LIG     1      -2.555  -0.694   0.074  1.00  0.00    -0.067 NA
HETATM    3  C   LIG     1      -1.667  -1.583  -0.444  1.00  0.00     0.060 A 
HETATM    4  C   LIG     1      -2.201  -2.824  -1.098  1.00  0.00     0.072 C 
HETATM    5  C   LIG     1      -0.282  -1.335  -0.323  1.00  0.00     0.017 A 
HETATM    6  C   LIG     1       0.738  -2.329  -0.823  1.00  0.00     0.055 C 
HETATM    7  C   LIG     1       0.116  -0.118   0.270  1.00  0.00     0.201 A 
HETATM    8  N   LIG     1      -0.822   0.723   0.776  1.00  0.00    -0.037 NA
ENDROOT
BRANCH   7   9
HETATM    9  O   LIG     1       1.461   0.248   0.376  1.00  0.00    -0.241 OA
BRANCH   9  10
HETATM   10  C   LIG     1       2.289   0.459  -0.735  1.00  0.00     0.368 C 
HETATM   11  N   LIG     1       3.698   0.673  -0.545  1.00  0.00    -0.336 N 
HETATM   12  C   LIG     1       4.563   0.904  -1.705  1.00  0.00     0.154 C 
HETATM   13  C   LIG     1       4.250   0.647   0.811  1.00  0.00     0.154 C 
HETATM   14  O   LIG     1       1.798   0.478  -1.897  1.00  0.00    -0.238 OA
ENDBRANCH   9  10
ENDBRANCH   7   9
BRANCH   1  15
HETATM   15  N   LIG     1      -3.120   1.363   1.234  1.00  0.00    -0.223 N 
HETATM   16  C   LIG     1      -2.669   2.595   1.890  1.00  0.00     0.168 C 
HETATM   17  C   LIG     1      -4.549   1.056   1.130  1.00  0.00     0.168 C 
ENDBRANCH   1  15
TORSDOF 3
