MODEL 1
REMARK VINA RESULT:      -7.5      0.000      0.000
REMARK  4 active torsions:
REMARK  status: ('A' for Active; 'I' for Inactive)
REMARK    1  A    between atoms: C_2  and  C_3 
REMARK    2  A    between atoms: C_2  and  O_9 
REMARK    3  A    between atoms: O_9  and  C_10 
REMARK    4  A    between atoms: C_10  and  C_11 
ROOT
HETATM    1  C   LIG     1      17.690  37.922  21.790  1.00  0.00     0.039 A 
HETATM    2  C   LIG     1      18.403  39.106  21.529  1.00  0.00     0.017 A 
HETATM    3  C   LIG     1      19.245  39.194  20.416  1.00  0.00     0.001 A 
HETATM    4  C   LIG     1      19.381  38.105  19.552  1.00  0.00     0.000 A 
HETATM    5  C   LIG     1      18.678  36.924  19.800  1.00  0.00     0.001 A 
HETATM    6  C   LIG     1      17.835  36.830  20.913  1.00  0.00     0.017 A 
ENDROOT
BRANCH   1   7
HETATM    7  C   LIG     1      16.799  37.831  22.968  1.00  0.00     0.293 C 
HETATM    8  O   LIG     1      15.710  38.469  22.989  1.00  0.00    -0.259 OA
BRANCH   7   9
HETATM    9  O   LIG     1      17.164  37.029  24.058  1.00  0.00    -0.318 OA
BRANCH   9  10
HETATM   10  C   LIG     1      17.378  37.537  25.372  1.00  0.00     0.178 C 
BRANCH  10  11
HETATM   11  C   LIG     1      18.410  36.684  26.115  1.00  0.00     0.022 C 
HETATM   12  C   LIG     1      17.984  35.219  26.163  1.00  0.00     0.007 C 
ENDBRANCH  10  11
ENDBRANCH   9  10
ENDBRANCH   7   9
ENDBRANCH   1   7
TORSDOF 4
ENDMDL
MODEL 2
REMARK VINA RESULT:      -7.5      0.455      1.471
REMARK  4 active torsions:
REMARK  status: ('A' for Active; 'I' for Inactive)
REMARK    1  A    between atoms: C_2  and  C_3 
REMARK    2  A    between atoms: C_2  and  O_9 
REMARK    3  A    between atoms: O_9  and  C_10 
REMARK    4  A    between atoms: C_10  and  C_11 
ROOT
HETATM    1  C   LIG     1      17.400  37.712  22.115  1.00  0.00     0.039 A 
HETATM    2  C   LIG     1      17.532  36.637  21.217  1.00  0.00     0.017 A 
HETATM    3  C   LIG     1      18.342  36.758  20.084  1.00  0.00     0.001 A 
HETATM    4  C   LIG     1      19.029  37.949  19.836  1.00  0.00     0.000 A 
HETATM    5  C   LIG     1      18.906  39.023  20.720  1.00  0.00     0.001 A 
HETATM    6  C   LIG     1      18.096  38.908  21.855  1.00  0.00     0.017 A 
ENDROOT
BRANCH   1   7
HETATM    7  C   LIG     1      16.544  37.583  23.314  1.00  0.00     0.293 C 
HETATM    8  O   LIG     1      15.400  38.117  23.335  1.00  0.00    -0.259 OA
BRANCH   7   9
HETATM    9  O   LIG     1      17.002  36.859  24.424  1.00  0.00    -0.318 OA
BRANCH   9  10
HETATM   10  C   LIG     1      17.576  37.468  25.578  1.00  0.00     0.178 C 
BRANCH  10  11
HETATM   11  C   LIG     1      18.310  36.424  26.425  1.00  0.00     0.022 C 
HETATM   12  C   LIG     1      17.902  35.007  26.032  1.00  0.00     0.007 C 
ENDBRANCH  10  11
ENDBRANCH   9  10
ENDBRANCH   7   9
ENDBRANCH   1   7
TORSDOF 4
ENDMDL
MODEL 3
REMARK VINA RESULT:      -7.3      1.032      4.819
REMARK  4 active torsions:
REMARK  status: ('A' for Active; 'I' for Inactive)
REMARK    1  A    between atoms: C_2  and  C_3 
REMARK    2  A    between atoms: C_2  and  O_9 
REMARK    3  A    between atoms: O_9  and  C_10 
REMARK    4  A    between atoms: C_10  and  C_11 
ROOT
HETATM    1  C   LIG     1      17.190  36.861  24.303  1.00  0.00     0.039 A 
HETATM    2  C   LIG     1      17.829  37.562  25.341  1.00  0.00     0.017 A 
HETATM    3  C   LIG     1      18.364  36.874  26.435  1.00  0.00     0.001 A 
HETATM    4  C   LIG     1      18.268  35.482  26.503  1.00  0.00     0.000 A 
HETATM    5  C   LIG     1      17.636  34.775  25.478  1.00  0.00     0.001 A 
HETATM    6  C   LIG     1      17.098  35.458  24.382  1.00  0.00     0.017 A 
ENDROOT
BRANCH   1   7
HETATM    7  C   LIG     1      16.625  37.590  23.146  1.00  0.00     0.293 C 
HETATM    8  O   LIG     1      15.526  38.202  23.259  1.00  0.00    -0.259 OA
BRANCH   7   9
HETATM    9  O   LIG     1      17.316  37.606  21.927  1.00  0.00    -0.318 OA
BRANCH   9  10
HETATM   10  C   LIG     1      18.123  38.698  21.494  1.00  0.00     0.178 C 
BRANCH  10  11
HETATM   11  C   LIG     1      18.946  38.302  20.265  1.00  0.00     0.022 C 
HETATM   12  C   LIG     1      18.634  36.874  19.828  1.00  0.00     0.007 C 
ENDBRANCH  10  11
ENDBRANCH   9  10
ENDBRANCH   7   9
ENDBRANCH   1   7
TORSDOF 4
ENDMDL
MODEL 4
REMARK VINA RESULT:      -7.2      1.954      4.767
REMARK  4 active torsions:
REMARK  status: ('A' for Active; 'I' for Inactive)
REMARK    1  A    between atoms: C_2  and  C_3 
REMARK    2  A    between atoms: C_2  and  O_9 
REMARK    3  A    between atoms: O_9  and  C_10 
REMARK    4  A    between atoms: C_10  and  C_11 
ROOT
HETATM    1  C   LIG     1      17.211  36.764  24.281  1.00  0.00     0.039 A 
HETATM    2  C   LIG     1      17.912  37.513  25.244  1.00  0.00     0.017 A 
HETATM    3  C   LIG     1      18.475  36.882  26.358  1.00  0.00     0.001 A 
HETATM    4  C   LIG     1      18.346  35.501  26.522  1.00  0.00     0.000 A 
HETATM    5  C   LIG     1      17.653  34.746  25.572  1.00  0.00     0.001 A 
HETATM    6  C   LIG     1      17.087  35.372  24.456  1.00  0.00     0.017 A 
ENDROOT
BRANCH   1   7
HETATM    7  C   LIG     1      16.616  37.432  23.103  1.00  0.00     0.293 C 
HETATM    8  O   LIG     1      15.534  38.072  23.218  1.00  0.00    -0.259 OA
BRANCH   7   9
HETATM    9  O   LIG     1      17.262  37.359  21.861  1.00  0.00    -0.318 OA
BRANCH   9  10
HETATM   10  C   LIG     1      17.247  36.199  21.033  1.00  0.00     0.178 C 
BRANCH  10  11
HETATM   11  C   LIG     1      15.830  35.624  20.942  1.00  0.00     0.022 C 
HETATM   12  C   LIG     1      15.860  34.120  20.686  1.00  0.00     0.007 C 
ENDBRANCH  10  11
ENDBRANCH   9  10
ENDBRANCH   7   9
ENDBRANCH   1   7
TORSDOF 4
ENDMDL
MODEL 5
REMARK VINA RESULT:      -6.7      2.213      2.905
REMARK  4 active torsions:
REMARK  status: ('A' for Active; 'I' for Inactive)
REMARK    1  A    between atoms: C_2  and  C_3 
REMARK    2  A    between atoms: C_2  and  O_9 
REMARK    3  A    between atoms: O_9  and  C_10 
REMARK    4  A    between atoms: C_10  and  C_11 
ROOT
HETATM    1  C   LIG     1      16.519  36.952  22.646  1.00  0.00     0.039 A 
HETATM    2  C   LIG     1      17.342  35.853  22.342  1.00  0.00     0.017 A 
HETATM    3  C   LIG     1      16.853  34.797  21.565  1.00  0.00     0.001 A 
HETATM    4  C   LIG     1      15.543  34.829  21.083  1.00  0.00     0.000 A 
HETATM    5  C   LIG     1      14.717  35.916  21.378  1.00  0.00     0.001 A 
HETATM    6  C   LIG     1      15.200  36.974  22.156  1.00  0.00     0.017 A 
ENDROOT
BRANCH   1   7
HETATM    7  C   LIG     1      17.038  38.068  23.468  1.00  0.00     0.293 C 
HETATM    8  O   LIG     1      16.659  39.251  23.241  1.00  0.00    -0.259 OA
BRANCH   7   9
HETATM    9  O   LIG     1      17.946  37.808  24.504  1.00  0.00    -0.318 OA
BRANCH   9  10
HETATM   10  C   LIG     1      17.550  37.504  25.839  1.00  0.00     0.178 C 
BRANCH  10  11
HETATM   11  C   LIG     1      18.363  36.326  26.384  1.00  0.00     0.022 C 
HETATM   12  C   LIG     1      17.759  34.992  25.954  1.00  0.00     0.007 C 
ENDBRANCH  10  11
ENDBRANCH   9  10
ENDBRANCH   7   9
ENDBRANCH   1   7
TORSDOF 4
ENDMDL
MODEL 6
REMARK VINA RESULT:      -6.6      2.270      3.530
REMARK  4 active torsions:
REMARK  status: ('A' for Active; 'I' for Inactive)
REMARK    1  A    between atoms: C_2  and  C_3 
REMARK    2  A    between atoms: C_2  and  O_9 
REMARK    3  A    between atoms: O_9  and  C_10 
REMARK    4  A    between atoms: C_10  and  C_11 
ROOT
HETATM    1  C   LIG     1      17.640  37.371  21.296  1.00  0.00     0.039 A 
HETATM    2  C   LIG     1      17.947  38.722  21.544  1.00  0.00     0.017 A 
HETATM    3  C   LIG     1      18.893  39.388  20.759  1.00  0.00     0.001 A 
HETATM    4  C   LIG     1      19.540  38.716  19.719  1.00  0.00     0.000 A 
HETATM    5  C   LIG     1      19.243  37.376  19.462  1.00  0.00     0.001 A 
HETATM    6  C   LIG     1      18.298  36.704  20.245  1.00  0.00     0.017 A 
ENDROOT
BRANCH   1   7
HETATM    7  C   LIG     1      16.639  36.668  22.127  1.00  0.00     0.293 C 
HETATM    8  O   LIG     1      16.791  36.601  23.379  1.00  0.00    -0.259 OA
BRANCH   7   9
HETATM    9  O   LIG     1      15.518  36.083  21.523  1.00  0.00    -0.318 OA
BRANCH   9  10
HETATM   10  C   LIG     1      15.296  34.676  21.472  1.00  0.00     0.178 C 
BRANCH  10  11
HETATM   11  C   LIG     1      15.704  34.118  20.105  1.00  0.00     0.022 C 
HETATM   12  C   LIG     1      15.336  32.643  19.977  1.00  0.00     0.007 C 
ENDBRANCH  10  11
ENDBRANCH   9  10
ENDBRANCH   7   9
ENDBRANCH   1   7
TORSDOF 4
ENDMDL
MODEL 7
REMARK VINA RESULT:      -6.2      1.944      4.215
REMARK  4 active torsions:
REMARK  status: ('A' for Active; 'I' for Inactive)
REMARK    1  A    between atoms: C_2  and  C_3 
REMARK    2  A    between atoms: C_2  and  O_9 
REMARK    3  A    between atoms: O_9  and  C_10 
REMARK    4  A    between atoms: C_10  and  C_11 
ROOT
HETATM    1  C   LIG     1      16.372  36.906  22.554  1.00  0.00     0.039 A 
HETATM    2  C   LIG     1      17.225  35.788  22.509  1.00  0.00     0.017 A 
HETATM    3  C   LIG     1      16.831  34.624  21.842  1.00  0.00     0.001 A 
HETATM    4  C   LIG     1      15.586  34.563  21.213  1.00  0.00     0.000 A 
HETATM    5  C   LIG     1      14.730  35.666  21.250  1.00  0.00     0.001 A 
HETATM    6  C   LIG     1      15.119  36.833  21.917  1.00  0.00     0.017 A 
ENDROOT
BRANCH   1   7
HETATM    7  C   LIG     1      16.790  38.137  23.259  1.00  0.00     0.293 C 
HETATM    8  O   LIG     1      16.630  38.237  24.508  1.00  0.00    -0.259 OA
BRANCH   7   9
HETATM    9  O   LIG     1      17.372  39.189  22.539  1.00  0.00    -0.318 OA
BRANCH   9  10
HETATM   10  C   LIG     1      18.708  39.158  22.041  1.00  0.00     0.178 C 
BRANCH  10  11
HETATM   11  C   LIG     1      18.710  39.205  20.511  1.00  0.00     0.022 C 
HETATM   12  C   LIG     1      18.909  37.814  19.915  1.00  0.00     0.007 C 
ENDBRANCH  10  11
ENDBRANCH   9  10
ENDBRANCH   7   9
ENDBRANCH   1   7
TORSDOF 4
ENDMDL
MODEL 8
REMARK VINA RESULT:      -6.2      6.881      8.196
REMARK  4 active torsions:
REMARK  status: ('A' for Active; 'I' for Inactive)
REMARK    1  A    between atoms: C_2  and  C_3 
REMARK    2  A    between atoms: C_2  and  O_9 
REMARK    3  A    between atoms: O_9  and  C_10 
REMARK    4  A    between atoms: C_10  and  C_11 
ROOT
HETATM    1  C   LIG     1      14.767  32.431  16.488  1.00  0.00     0.039 A 
HETATM    2  C   LIG     1      15.437  31.912  15.365  1.00  0.00     0.017 A 
HETATM    3  C   LIG     1      14.918  30.809  14.678  1.00  0.00     0.001 A 
HETATM    4  C   LIG     1      13.727  30.216  15.103  1.00  0.00     0.000 A 
HETATM    5  C   LIG     1      13.053  30.722  16.217  1.00  0.00     0.001 A 
HETATM    6  C   LIG     1      13.568  31.824  16.908  1.00  0.00     0.017 A 
ENDROOT
BRANCH   1   7
HETATM    7  C   LIG     1      15.317  33.598  17.212  1.00  0.00     0.293 C 
HETATM    8  O   LIG     1      15.651  34.636  16.578  1.00  0.00    -0.259 OA
BRANCH   7   9
HETATM    9  O   LIG     1      15.458  33.549  18.606  1.00  0.00    -0.318 OA
BRANCH   9  10
HETATM   10  C   LIG     1      15.620  34.708  19.421  1.00  0.00     0.178 C 
BRANCH  10  11
HETATM   11  C   LIG     1      15.688  34.316  20.900  1.00  0.00     0.022 C 
HETATM   12  C   LIG     1      16.762  35.115  21.634  1.00  0.00     0.007 C 
ENDBRANCH  10  11
ENDBRANCH   9  10
ENDBRANCH   7   9
ENDBRANCH   1   7
TORSDOF 4
ENDMDL
MODEL 9
REMARK VINA RESULT:      -6.1      2.205      5.014
REMARK  4 active torsions:
REMARK  status: ('A' for Active; 'I' for Inactive)
REMARK    1  A    between atoms: C_2  and  C_3 
REMARK    2  A    between atoms: C_2  and  O_9 
REMARK    3  A    between atoms: O_9  and  C_10 
REMARK    4  A    between atoms: C_10  and  C_11 
ROOT
HETATM    1  C   LIG     1      16.819  36.149  22.027  1.00  0.00     0.039 A 
HETATM    2  C   LIG     1      17.067  35.116  22.949  1.00  0.00     0.017 A 
HETATM    3  C   LIG     1      17.284  35.409  24.299  1.00  0.00     0.001 A 
HETATM    4  C   LIG     1      17.252  36.733  24.743  1.00  0.00     0.000 A 
HETATM    5  C   LIG     1      17.005  37.768  23.837  1.00  0.00     0.001 A 
HETATM    6  C   LIG     1      16.790  37.480  22.485  1.00  0.00     0.017 A 
ENDROOT
BRANCH   1   7
HETATM    7  C   LIG     1      16.590  35.837  20.599  1.00  0.00     0.293 C 
HETATM    8  O   LIG     1      15.477  35.375  20.223  1.00  0.00    -0.259 OA
BRANCH   7   9
HETATM    9  O   LIG     1      17.610  36.062  19.664  1.00  0.00    -0.318 OA
BRANCH   9  10
HETATM   10  C   LIG     1      18.840  36.707  19.982  1.00  0.00     0.178 C 
BRANCH  10  11
HETATM   11  C   LIG     1      18.865  38.127  19.407  1.00  0.00     0.022 C 
HETATM   12  C   LIG     1      20.238  38.769  19.579  1.00  0.00     0.007 C 
ENDBRANCH  10  11
ENDBRANCH   9  10
ENDBRANCH   7   9
ENDBRANCH   1   7
TORSDOF 4
ENDMDL
MODEL 10
REMARK VINA RESULT:      -5.9      9.405     11.061
REMARK  4 active torsions:
REMARK  status: ('A' for Active; 'I' for Inactive)
REMARK    1  A    between atoms: C_2  and  C_3 
REMARK    2  A    between atoms: C_2  and  O_9 
REMARK    3  A    between atoms: O_9  and  C_10 
REMARK    4  A    between atoms: C_10  and  C_11 
ROOT
HETATM    1  C   LIG     1      15.575  31.758  14.992  1.00  0.00     0.039 A 
HETATM    2  C   LIG     1      14.866  32.091  16.160  1.00  0.00     0.017 A 
HETATM    3  C   LIG     1      13.716  31.379  16.517  1.00  0.00     0.001 A 
HETATM    4  C   LIG     1      13.264  30.329  15.715  1.00  0.00     0.000 A 
HETATM    5  C   LIG     1      13.960  29.988  14.553  1.00  0.00     0.001 A 
HETATM    6  C   LIG     1      15.110  30.698  14.190  1.00  0.00     0.017 A 
ENDROOT
BRANCH   1   7
HETATM    7  C   LIG     1      16.792  32.511  14.616  1.00  0.00     0.293 C 
HETATM    8  O   LIG     1      17.822  32.453  15.343  1.00  0.00    -0.259 OA
BRANCH   7   9
HETATM    9  O   LIG     1      16.800  33.283  13.446  1.00  0.00    -0.318 OA
BRANCH   9  10
HETATM   10  C   LIG     1      17.871  34.151  13.083  1.00  0.00     0.178 C 
BRANCH  10  11
HETATM   11  C   LIG     1      18.903  33.402  12.234  1.00  0.00     0.022 C 
HETATM   12  C   LIG     1      20.326  33.798  12.617  1.00  0.00     0.007 C 
ENDBRANCH  10  11
ENDBRANCH   9  10
ENDBRANCH   7   9
ENDBRANCH   1   7
TORSDOF 4
ENDMDL
MODEL 11
REMARK VINA RESULT:      -5.8      7.766      9.151
REMARK  4 active torsions:
REMARK  status: ('A' for Active; 'I' for Inactive)
REMARK    1  A    between atoms: C_2  and  C_3 
REMARK    2  A    between atoms: C_2  and  O_9 
REMARK    3  A    between atoms: O_9  and  C_10 
REMARK    4  A    between atoms: C_10  and  C_11 
ROOT
HETATM    1  C   LIG     1      14.940  31.868  15.723  1.00  0.00     0.039 A 
HETATM    2  C   LIG     1      13.800  31.093  16.004  1.00  0.00     0.017 A 
HETATM    3  C   LIG     1      13.475  29.995  15.201  1.00  0.00     0.001 A 
HETATM    4  C   LIG     1      14.284  29.659  14.113  1.00  0.00     0.000 A 
HETATM    5  C   LIG     1      15.418  30.420  13.824  1.00  0.00     0.001 A 
HETATM    6  C   LIG     1      15.748  31.520  14.624  1.00  0.00     0.017 A 
ENDROOT
BRANCH   1   7
HETATM    7  C   LIG     1      15.283  33.029  16.574  1.00  0.00     0.293 C 
HETATM    8  O   LIG     1      16.049  33.931  16.135  1.00  0.00    -0.259 OA
BRANCH   7   9
HETATM    9  O   LIG     1      14.749  33.127  17.866  1.00  0.00    -0.318 OA
BRANCH   9  10
HETATM   10  C   LIG     1      15.450  33.706  18.965  1.00  0.00     0.178 C 
BRANCH  10  11
HETATM   11  C   LIG     1      15.245  32.869  20.231  1.00  0.00     0.022 C 
HETATM   12  C   LIG     1      14.911  31.420  19.888  1.00  0.00     0.007 C 
ENDBRANCH  10  11
ENDBRANCH   9  10
ENDBRANCH   7   9
ENDBRANCH   1   7
TORSDOF 4
ENDMDL
MODEL 12
REMARK VINA RESULT:      -5.8      8.540     10.679
REMARK  4 active torsions:
REMARK  status: ('A' for Active; 'I' for Inactive)
REMARK    1  A    between atoms: C_2  and  C_3 
REMARK    2  A    between atoms: C_2  and  O_9 
REMARK    3  A    between atoms: O_9  and  C_10 
REMARK    4  A    between atoms: C_10  and  C_11 
ROOT
HETATM    1  C   LIG     1      15.111  31.862  15.590  1.00  0.00     0.039 A 
HETATM    2  C   LIG     1      15.389  31.020  14.498  1.00  0.00     0.017 A 
HETATM    3  C   LIG     1      14.507  29.990  14.157  1.00  0.00     0.001 A 
HETATM    4  C   LIG     1      13.340  29.790  14.899  1.00  0.00     0.000 A 
HETATM    5  C   LIG     1      13.054  30.620  15.985  1.00  0.00     0.001 A 
HETATM    6  C   LIG     1      13.933  31.652  16.331  1.00  0.00     0.017 A 
ENDROOT
BRANCH   1   7
HETATM    7  C   LIG     1      16.045  32.952  15.949  1.00  0.00     0.293 C 
HETATM    8  O   LIG     1      15.691  33.844  16.768  1.00  0.00    -0.259 OA
BRANCH   7   9
HETATM    9  O   LIG     1      17.327  32.986  15.383  1.00  0.00    -0.318 OA
BRANCH   9  10
HETATM   10  C   LIG     1      17.738  33.958  14.424  1.00  0.00     0.178 C 
BRANCH  10  11
HETATM   11  C   LIG     1      17.819  33.333  13.028  1.00  0.00     0.022 C 
HETATM   12  C   LIG     1      18.707  34.161  12.103  1.00  0.00     0.007 C 
ENDBRANCH  10  11
ENDBRANCH   9  10
ENDBRANCH   7   9
ENDBRANCH   1   7
TORSDOF 4
ENDMDL
MODEL 13
REMARK VINA RESULT:      -5.8      9.313     11.094
REMARK  4 active torsions:
REMARK  status: ('A' for Active; 'I' for Inactive)
REMARK    1  A    between atoms: C_2  and  C_3 
REMARK    2  A    between atoms: C_2  and  O_9 
REMARK    3  A    between atoms: O_9  and  C_10 
REMARK    4  A    between atoms: C_10  and  C_11 
ROOT
HETATM    1  C   LIG     1      16.458  32.559  14.222  1.00  0.00     0.039 A 
HETATM    2  C   LIG     1      15.984  31.491  13.437  1.00  0.00     0.017 A 
HETATM    3  C   LIG     1      15.027  30.609  13.948  1.00  0.00     0.001 A 
HETATM    4  C   LIG     1      14.531  30.784  15.242  1.00  0.00     0.000 A 
HETATM    5  C   LIG     1      14.993  31.840  16.030  1.00  0.00     0.001 A 
HETATM    6  C   LIG     1      15.952  32.725  15.525  1.00  0.00     0.017 A 
ENDROOT
BRANCH   1   7
HETATM    7  C   LIG     1      17.470  33.492  13.680  1.00  0.00     0.293 C 
HETATM    8  O   LIG     1      17.530  34.678  14.107  1.00  0.00    -0.259 OA
BRANCH   7   9
HETATM    9  O   LIG     1      18.367  33.052  12.697  1.00  0.00    -0.318 OA
BRANCH   9  10
HETATM   10  C   LIG     1      19.406  33.867  12.159  1.00  0.00     0.178 C 
BRANCH  10  11
HETATM   11  C   LIG     1      20.742  33.548  12.836  1.00  0.00     0.022 C 
HETATM   12  C   LIG     1      21.724  34.708  12.695  1.00  0.00     0.007 C 
ENDBRANCH  10  11
ENDBRANCH   9  10
ENDBRANCH   7   9
ENDBRANCH   1   7
TORSDOF 4
ENDMDL
MODEL 14
REMARK VINA RESULT:      -5.7      7.436      8.784
REMARK  4 active torsions:
REMARK  status: ('A' for Active; 'I' for Inactive)
REMARK    1  A    between atoms: C_2  and  C_3 
REMARK    2  A    between atoms: C_2  and  O_9 
REMARK    3  A    between atoms: O_9  and  C_10 
REMARK    4  A    between atoms: C_10  and  C_11 
ROOT
HETATM    1  C   LIG     1      14.911  31.674  15.984  1.00  0.00     0.039 A 
HETATM    2  C   LIG     1      14.356  30.578  15.298  1.00  0.00     0.017 A 
HETATM    3  C   LIG     1      14.723  30.312  13.975  1.00  0.00     0.001 A 
HETATM    4  C   LIG     1      15.648  31.132  13.325  1.00  0.00     0.000 A 
HETATM    5  C   LIG     1      16.207  32.223  13.996  1.00  0.00     0.001 A 
HETATM    6  C   LIG     1      15.842  32.495  15.319  1.00  0.00     0.017 A 
ENDROOT
BRANCH   1   7
HETATM    7  C   LIG     1      14.522  31.954  17.383  1.00  0.00     0.293 C 
HETATM    8  O   LIG     1      13.373  31.633  17.797  1.00  0.00    -0.259 OA
BRANCH   7   9
HETATM    9  O   LIG     1      15.434  32.570  18.251  1.00  0.00    -0.318 OA
BRANCH   9  10
HETATM   10  C   LIG     1      15.592  32.201  19.619  1.00  0.00     0.178 C 
BRANCH  10  11
HETATM   11  C   LIG     1      15.051  33.302  20.536  1.00  0.00     0.022 C 
HETATM   12  C   LIG     1      16.063  34.432  20.698  1.00  0.00     0.007 C 
ENDBRANCH  10  11
ENDBRANCH   9  10
ENDBRANCH   7   9
ENDBRANCH   1   7
TORSDOF 4
ENDMDL
MODEL 15
REMARK VINA RESULT:      -5.6     10.914     12.675
REMARK  4 active torsions:
REMARK  status: ('A' for Active; 'I' for Inactive)
REMARK    1  A    between atoms: C_2  and  C_3 
REMARK    2  A    between atoms: C_2  and  O_9 
REMARK    3  A    between atoms: O_9  and  C_10 
REMARK    4  A    between atoms: C_10  and  C_11 
ROOT
HETATM    1  C   LIG     1      14.327  30.538  15.131  1.00  0.00     0.039 A 
HETATM    2  C   LIG     1      13.353  30.747  16.125  1.00  0.00     0.017 A 
HETATM    3  C   LIG     1      13.444  31.848  16.983  1.00  0.00     0.001 A 
HETATM    4  C   LIG     1      14.503  32.750  16.857  1.00  0.00     0.000 A 
HETATM    5  C   LIG     1      15.475  32.553  15.874  1.00  0.00     0.001 A 
HETATM    6  C   LIG     1      15.390  31.453  15.013  1.00  0.00     0.017 A 
ENDROOT
BRANCH   1   7
HETATM    7  C   LIG     1      14.229  29.373  14.224  1.00  0.00     0.293 C 
HETATM    8  O   LIG     1      15.258  28.946  13.630  1.00  0.00    -0.259 OA
BRANCH   7   9
HETATM    9  O   LIG     1      12.993  28.742  14.031  1.00  0.00    -0.318 OA
BRANCH   9  10
HETATM   10  C   LIG     1      12.857  27.365  13.686  1.00  0.00     0.178 C 
BRANCH  10  11
HETATM   11  C   LIG     1      11.565  27.135  12.897  1.00  0.00     0.022 C 
HETATM   12  C   LIG     1      11.642  25.853  12.073  1.00  0.00     0.007 C 
ENDBRANCH  10  11
ENDBRANCH   9  10
ENDBRANCH   7   9
ENDBRANCH   1   7
TORSDOF 4
ENDMDL
MODEL 16
REMARK VINA RESULT:      -5.6     10.602     12.531
REMARK  4 active torsions:
REMARK  status: ('A' for Active; 'I' for Inactive)
REMARK    1  A    between atoms: C_2  and  C_3 
REMARK    2  A    between atoms: C_2  and  O_9 
REMARK    3  A    between atoms: O_9  and  C_10 
REMARK    4  A    between atoms: C_10  and  C_11 
ROOT
HETATM    1  C   LIG     1      14.438  30.524  15.064  1.00  0.00     0.039 A 
HETATM    2  C   LIG     1      15.531  31.378  14.826  1.00  0.00     0.017 A 
HETATM    3  C   LIG     1      15.732  32.508  15.626  1.00  0.00     0.001 A 
HETATM    4  C   LIG     1      14.849  32.795  16.669  1.00  0.00     0.000 A 
HETATM    5  C   LIG     1      13.761  31.954  16.915  1.00  0.00     0.001 A 
HETATM    6  C   LIG     1      13.554  30.823  16.118  1.00  0.00     0.017 A 
ENDROOT
BRANCH   1   7
HETATM    7  C   LIG     1      14.227  29.328  14.218  1.00  0.00     0.293 C 
HETATM    8  O   LIG     1      13.071  28.837  14.094  1.00  0.00    -0.259 OA
BRANCH   7   9
HETATM    9  O   LIG     1      15.313  28.747  13.549  1.00  0.00    -0.318 OA
BRANCH   9  10
HETATM   10  C   LIG     1      15.353  27.378  13.154  1.00  0.00     0.178 C 
BRANCH  10  11
HETATM   11  C   LIG     1      16.210  27.208  11.897  1.00  0.00     0.022 C 
HETATM   12  C   LIG     1      15.514  26.321  10.868  1.00  0.00     0.007 C 
ENDBRANCH  10  11
ENDBRANCH   9  10
ENDBRANCH   7   9
ENDBRANCH   1   7
TORSDOF 4
ENDMDL
MODEL 17
REMARK VINA RESULT:      -5.4      2.632      5.582
REMARK  4 active torsions:
REMARK  status: ('A' for Active; 'I' for Inactive)
REMARK    1  A    between atoms: C_2  and  C_3 
REMARK    2  A    between atoms: C_2  and  O_9 
REMARK    3  A    between atoms: O_9  and  C_10 
REMARK    4  A    between atoms: C_10  and  C_11 
ROOT
HETATM    1  C   LIG     1      17.887  37.794  21.199  1.00  0.00     0.039 A 
HETATM    2  C   LIG     1      17.922  36.523  20.598  1.00  0.00     0.017 A 
HETATM    3  C   LIG     1      17.086  35.500  21.058  1.00  0.00     0.001 A 
HETATM    4  C   LIG     1      16.209  35.735  22.119  1.00  0.00     0.000 A 
HETATM    5  C   LIG     1      16.165  36.993  22.724  1.00  0.00     0.001 A 
HETATM    6  C   LIG     1      16.999  38.020  22.268  1.00  0.00     0.017 A 
ENDROOT
BRANCH   1   7
HETATM    7  C   LIG     1      18.771  38.876  20.710  1.00  0.00     0.293 C 
HETATM    8  O   LIG     1      18.774  39.999  21.286  1.00  0.00    -0.259 OA
BRANCH   7   9
HETATM    9  O   LIG     1      19.610  38.647  19.611  1.00  0.00    -0.318 OA
BRANCH   9  10
HETATM   10  C   LIG     1      19.136  38.521  18.272  1.00  0.00     0.178 C 
BRANCH  10  11
HETATM   11  C   LIG     1      18.446  39.813  17.824  1.00  0.00     0.022 C 
HETATM   12  C   LIG     1      18.458  39.947  16.304  1.00  0.00     0.007 C 
ENDBRANCH  10  11
ENDBRANCH   9  10
ENDBRANCH   7   9
ENDBRANCH   1   7
TORSDOF 4
ENDMDL
MODEL 18
REMARK VINA RESULT:      -5.4     12.167     13.905
REMARK  4 active torsions:
REMARK  status: ('A' for Active; 'I' for Inactive)
REMARK    1  A    between atoms: C_2  and  C_3 
REMARK    2  A    between atoms: C_2  and  O_9 
REMARK    3  A    between atoms: O_9  and  C_10 
REMARK    4  A    between atoms: C_10  and  C_11 
ROOT
HETATM    1  C   LIG     1      14.139  29.199  14.315  1.00  0.00     0.039 A 
HETATM    2  C   LIG     1      15.309  29.850  13.884  1.00  0.00     0.017 A 
HETATM    3  C   LIG     1      15.670  31.088  14.427  1.00  0.00     0.001 A 
HETATM    4  C   LIG     1      14.871  31.684  15.405  1.00  0.00     0.000 A 
HETATM    5  C   LIG     1      13.707  31.047  15.841  1.00  0.00     0.001 A 
HETATM    6  C   LIG     1      13.341  29.809  15.300  1.00  0.00     0.017 A 
ENDROOT
BRANCH   1   7
HETATM    7  C   LIG     1      13.759  27.890  13.739  1.00  0.00     0.293 C 
HETATM    8  O   LIG     1      14.618  27.192  13.131  1.00  0.00    -0.259 OA
BRANCH   7   9
HETATM    9  O   LIG     1      12.445  27.423  13.877  1.00  0.00    -0.318 OA
BRANCH   9  10
HETATM   10  C   LIG     1      11.561  27.221  12.777  1.00  0.00     0.178 C 
BRANCH  10  11
HETATM   11  C   LIG     1      11.427  25.728  12.464  1.00  0.00     0.022 C 
HETATM   12  C   LIG     1      11.877  25.420  11.039  1.00  0.00     0.007 C 
ENDBRANCH  10  11
ENDBRANCH   9  10
ENDBRANCH   7   9
ENDBRANCH   1   7
TORSDOF 4
ENDMDL
MODEL 19
REMARK VINA RESULT:      -5.3      8.542      9.807
REMARK  4 active torsions:
REMARK  status: ('A' for Active; 'I' for Inactive)
REMARK    1  A    between atoms: C_2  and  C_3 
REMARK    2  A    between atoms: C_2  and  O_9 
REMARK    3  A    between atoms: O_9  and  C_10 
REMARK    4  A    between atoms: C_10  and  C_11 
ROOT
HETATM    1  C   LIG     1      14.161  30.932  15.670  1.00  0.00     0.039 A 
HETATM    2  C   LIG     1      15.361  30.950  14.936  1.00  0.00     0.017 A 
HETATM    3  C   LIG     1      15.565  30.042  13.892  1.00  0.00     0.001 A 
HETATM    4  C   LIG     1      14.576  29.110  13.570  1.00  0.00     0.000 A 
HETATM    5  C   LIG     1      13.380  29.083  14.291  1.00  0.00     0.001 A 
HETATM    6  C   LIG     1      13.171  29.989  15.337  1.00  0.00     0.017 A 
ENDROOT
BRANCH   1   7
HETATM    7  C   LIG     1      13.946  31.894  16.774  1.00  0.00     0.293 C 
HETATM    8  O   LIG     1      12.776  32.142  17.178  1.00  0.00    -0.259 OA
BRANCH   7   9
HETATM    9  O   LIG     1      15.046  32.522  17.374  1.00  0.00    -0.318 OA
BRANCH   9  10
HETATM   10  C   LIG     1      15.025  33.049  18.699  1.00  0.00     0.178 C 
BRANCH  10  11
HETATM   11  C   LIG     1      15.751  32.105  19.662  1.00  0.00     0.022 C 
HETATM   12  C   LIG     1      14.813  31.023  20.188  1.00  0.00     0.007 C 
ENDBRANCH  10  11
ENDBRANCH   9  10
ENDBRANCH   7   9
ENDBRANCH   1   7
TORSDOF 4
ENDMDL
MODEL 20
REMARK VINA RESULT:      -5.1      9.915     11.619
REMARK  4 active torsions:
REMARK  status: ('A' for Active; 'I' for Inactive)
REMARK    1  A    between atoms: C_2  and  C_3 
REMARK    2  A    between atoms: C_2  and  O_9 
REMARK    3  A    between atoms: O_9  and  C_10 
REMARK    4  A    between atoms: C_10  and  C_11 
ROOT
HETATM    1  C   LIG     1      14.927  30.046  13.970  1.00  0.00     0.039 A 
HETATM    2  C   LIG     1      15.620  28.880  13.595  1.00  0.00     0.017 A 
HETATM    3  C   LIG     1      14.959  27.648  13.553  1.00  0.00     0.001 A 
HETATM    4  C   LIG     1      13.604  27.567  13.883  1.00  0.00     0.000 A 
HETATM    5  C   LIG     1      12.906  28.717  14.257  1.00  0.00     0.001 A 
HETATM    6  C   LIG     1      13.562  29.952  14.301  1.00  0.00     0.017 A 
ENDROOT
BRANCH   1   7
HETATM    7  C   LIG     1      15.627  31.349  14.013  1.00  0.00     0.293 C 
HETATM    8  O   LIG     1      16.593  31.574  13.231  1.00  0.00    -0.259 OA
BRANCH   7   9
HETATM    9  O   LIG     1      15.211  32.334  14.918  1.00  0.00    -0.318 OA
BRANCH   9  10
HETATM   10  C   LIG     1      15.935  32.676  16.097  1.00  0.00     0.178 C 
BRANCH  10  11
HETATM   11  C   LIG     1      14.971  32.974  17.250  1.00  0.00     0.022 C 
HETATM   12  C   LIG     1      13.883  31.908  17.350  1.00  0.00     0.007 C 
ENDBRANCH  10  11
ENDBRANCH   9  10
ENDBRANCH   7   9
ENDBRANCH   1   7
TORSDOF 4
ENDMDL
