REMARK  4 active torsions:
REMARK  status: ('A' for Active; 'I' for Inactive)
REMARK    1  A    between atoms: C_2  and  C_3 
REMARK    2  A    between atoms: C_2  and  O_9 
REMARK    3  A    between atoms: O_9  and  C_10 
REMARK    4  A    between atoms: C_10  and  C_11 
ROOT
HETATM    1  C   LIG     1       1.550   0.135   0.302  1.00  0.00     0.039 A 
HETATM    2  C   LIG     1       2.024   0.524  -0.964  1.00  0.00     0.017 A 
HETATM    3  C   LIG     1       3.385   0.424  -1.271  1.00  0.00     0.001 A 
HETATM    4  C   LIG     1       4.284  -0.066  -0.321  1.00  0.00     0.000 A 
HETATM    5  C   LIG     1       3.825  -0.456   0.939  1.00  0.00     0.001 A 
HETATM    6  C   LIG     1       2.465  -0.357   1.252  1.00  0.00     0.017 A 
ENDROOT
BRANCH   1   7
HETATM    7  C   LIG     1       0.110   0.241   0.625  1.00  0.00     0.293 C 
HETATM    8  O   LIG     1      -0.311  -0.111   1.762  1.00  0.00    -0.259 OA
BRANCH   7   9
HETATM    9  O   LIG     1      -0.784   0.740  -0.332  1.00  0.00    -0.318 OA
BRANCH   9  10
HETATM   10  C   LIG     1      -2.192   0.825  -0.125  1.00  0.00     0.178 C 
BRANCH  10  11
HETATM   11  C   LIG     1      -2.837  -0.558  -0.255  1.00  0.00     0.022 C 
HETATM   12  C   LIG     1      -4.352  -0.479  -0.089  1.00  0.00     0.007 C 
ENDBRANCH  10  11
ENDBRANCH   9  10
ENDBRANCH   7   9
ENDBRANCH   1   7
TORSDOF 4
