MODEL 1
REMARK VINA RESULT:      -3.9      0.000      0.000
REMARK  9 active torsions:
REMARK  status: ('A' for Active; 'I' for Inactive)
REMARK    1  A    between atoms: C_2  and  C_3 
REMARK       I    between atoms: C_2  and  N_5 
REMARK    2  A    between atoms: N_5  and  C_6 
REMARK    3  A    between atoms: N_5  and  C_16 
REMARK    4  A    between atoms: C_7  and  C_8 
REMARK    5  A    between atoms: C_13  and  C_14 
REMARK    6  A    between atoms: C_16  and  O_17 
REMARK    7  A    between atoms: O_17  and  C_18 
REMARK    8  A    between atoms: C_18  and  C_19 
REMARK    9  A    between atoms: C_19  and  C_20 
ROOT
HETATM    1  O   LIG     1      27.645  22.680  17.968  1.00  0.00    -0.272 OA
HETATM    2  C   LIG     1      26.576  22.963  18.574  1.00  0.00     0.239 C 
HETATM    3  N   LIG     1      25.979  21.991  19.465  1.00  0.00    -0.294 N 
ENDROOT
BRANCH   3   4
HETATM    4  C   LIG     1      24.723  22.258  20.117  1.00  0.00     0.052 A 
HETATM    5  C   LIG     1      23.503  22.002  19.441  1.00  0.00    -0.031 A 
HETATM    6  C   LIG     1      22.288  22.307  20.074  1.00  0.00     0.009 A 
HETATM    7  C   LIG     1      22.272  22.856  21.354  1.00  0.00     0.001 A 
HETATM    8  C   LIG     1      23.467  23.086  22.032  1.00  0.00     0.009 A 
HETATM    9  C   LIG     1      24.700  22.777  21.435  1.00  0.00    -0.031 A 
BRANCH   5  10
HETATM   10  C   LIG     1      23.465  21.344  18.081  1.00  0.00     0.036 C 
HETATM   11  C   LIG     1      22.702  20.024  18.138  1.00  0.00     0.010 C 
ENDBRANCH   5  10
BRANCH   9  12
HETATM   12  C   LIG     1      25.965  23.031  22.222  1.00  0.00     0.036 C 
HETATM   13  C   LIG     1      25.858  22.484  23.641  1.00  0.00     0.010 C 
ENDBRANCH   9  12
ENDBRANCH   3   4
BRANCH   3  14
HETATM   14  C   LIG     1      26.591  20.670  19.629  1.00  0.00     0.301 C 
BRANCH  14  15
HETATM   15  O   LIG     1      25.681  19.809  20.287  1.00  0.00    -0.372 OA
BRANCH  15  16
HETATM   16  C   LIG     1      26.243  19.307  21.484  1.00  0.00     0.170 C 
BRANCH  16  17
HETATM   17  C   LIG     1      25.130  18.955  22.477  1.00  0.00     0.026 C 
BRANCH  17  18
HETATM   18  C   LIG     1      23.746  19.160  21.852  1.00  0.00    -0.002 C 
HETATM   19  C   LIG     1      22.723  19.576  22.905  1.00  0.00     0.005 C 
ENDBRANCH  17  18
ENDBRANCH  16  17
ENDBRANCH  15  16
ENDBRANCH  14  15
ENDBRANCH   3  14
BRANCH   2  20
HETATM   20  C   LIG     1      25.945  24.302  18.308  1.00  0.00     0.217 C 
HETATM   21 CL   LIG     1      26.418  25.462  19.572  1.00  0.00    -0.121 Cl
ENDBRANCH   2  20
TORSDOF 9
ENDMDL
MODEL 2
REMARK VINA RESULT:      -3.9      0.486      2.901
REMARK  9 active torsions:
REMARK  status: ('A' for Active; 'I' for Inactive)
REMARK    1  A    between atoms: C_2  and  C_3 
REMARK       I    between atoms: C_2  and  N_5 
REMARK    2  A    between atoms: N_5  and  C_6 
REMARK    3  A    between atoms: N_5  and  C_16 
REMARK    4  A    between atoms: C_7  and  C_8 
REMARK    5  A    between atoms: C_13  and  C_14 
REMARK    6  A    between atoms: C_16  and  O_17 
REMARK    7  A    between atoms: O_17  and  C_18 
REMARK    8  A    between atoms: C_18  and  C_19 
REMARK    9  A    between atoms: C_19  and  C_20 
ROOT
HETATM    1  O   LIG     1      27.666  22.652  17.878  1.00  0.00    -0.272 OA
HETATM    2  C   LIG     1      26.618  22.958  18.508  1.00  0.00     0.239 C 
HETATM    3  N   LIG     1      25.994  21.983  19.376  1.00  0.00    -0.294 N 
ENDROOT
BRANCH   3   4
HETATM    4  C   LIG     1      24.758  22.279  20.053  1.00  0.00     0.052 A 
HETATM    5  C   LIG     1      24.776  22.826  21.360  1.00  0.00    -0.031 A 
HETATM    6  C   LIG     1      23.563  23.069  22.024  1.00  0.00     0.009 A 
HETATM    7  C   LIG     1      22.348  22.777  21.409  1.00  0.00     0.001 A 
HETATM    8  C   LIG     1      22.323  22.262  20.115  1.00  0.00     0.009 A 
HETATM    9  C   LIG     1      23.517  22.023  19.417  1.00  0.00    -0.031 A 
BRANCH   5  10
HETATM   10  C   LIG     1      26.065  23.225  22.042  1.00  0.00     0.036 C 
HETATM   11  C   LIG     1      26.202  22.530  23.394  1.00  0.00     0.010 C 
ENDBRANCH   5  10
BRANCH   9  12
HETATM   12  C   LIG     1      23.432  21.480  18.009  1.00  0.00     0.036 C 
HETATM   13  C   LIG     1      22.688  20.150  17.968  1.00  0.00     0.010 C 
ENDBRANCH   9  12
ENDBRANCH   3   4
BRANCH   3  14
HETATM   14  C   LIG     1      26.555  20.635  19.493  1.00  0.00     0.301 C 
BRANCH  14  15
HETATM   15  O   LIG     1      26.039  20.008  20.651  1.00  0.00    -0.372 OA
BRANCH  15  16
HETATM   16  C   LIG     1      25.406  18.788  20.320  1.00  0.00     0.170 C 
BRANCH  16  17
HETATM   17  C   LIG     1      24.061  18.682  21.047  1.00  0.00     0.026 C 
BRANCH  17  18
HETATM   18  C   LIG     1      24.111  19.382  22.409  1.00  0.00    -0.002 C 
HETATM   19  C   LIG     1      22.713  19.537  23.000  1.00  0.00     0.005 C 
ENDBRANCH  17  18
ENDBRANCH  16  17
ENDBRANCH  15  16
ENDBRANCH  14  15
ENDBRANCH   3  14
BRANCH   2  20
HETATM   20  C   LIG     1      26.036  24.327  18.290  1.00  0.00     0.217 C 
HETATM   21 CL   LIG     1      26.794  25.495  19.399  1.00  0.00    -0.121 Cl
ENDBRANCH   2  20
TORSDOF 9
ENDMDL
MODEL 3
REMARK VINA RESULT:      -3.8     15.767     17.807
REMARK  9 active torsions:
REMARK  status: ('A' for Active; 'I' for Inactive)
REMARK    1  A    between atoms: C_2  and  C_3 
REMARK       I    between atoms: C_2  and  N_5 
REMARK    2  A    between atoms: N_5  and  C_6 
REMARK    3  A    between atoms: N_5  and  C_16 
REMARK    4  A    between atoms: C_7  and  C_8 
REMARK    5  A    between atoms: C_13  and  C_14 
REMARK    6  A    between atoms: C_16  and  O_17 
REMARK    7  A    between atoms: O_17  and  C_18 
REMARK    8  A    between atoms: C_18  and  C_19 
REMARK    9  A    between atoms: C_19  and  C_20 
ROOT
HETATM    1  O   LIG     1      16.367  34.984  19.819  1.00  0.00    -0.272 OA
HETATM    2  C   LIG     1      16.242  35.679  20.863  1.00  0.00     0.239 C 
HETATM    3  N   LIG     1      17.393  36.370  21.406  1.00  0.00    -0.294 N 
ENDROOT
BRANCH   3   4
HETATM    4  C   LIG     1      17.298  37.113  22.635  1.00  0.00     0.052 A 
HETATM    5  C   LIG     1      17.185  36.430  23.872  1.00  0.00    -0.031 A 
HETATM    6  C   LIG     1      17.051  37.169  25.058  1.00  0.00     0.009 A 
HETATM    7  C   LIG     1      17.030  38.561  25.028  1.00  0.00     0.001 A 
HETATM    8  C   LIG     1      17.166  39.238  23.818  1.00  0.00     0.009 A 
HETATM    9  C   LIG     1      17.318  38.530  22.615  1.00  0.00    -0.031 A 
BRANCH   5  10
HETATM   10  C   LIG     1      17.273  34.924  23.965  1.00  0.00     0.036 C 
HETATM   11  C   LIG     1      17.483  34.480  25.409  1.00  0.00     0.010 C 
ENDBRANCH   5  10
BRANCH   9  12
HETATM   12  C   LIG     1      17.480  39.314  21.333  1.00  0.00     0.036 C 
HETATM   13  C   LIG     1      18.766  40.134  21.339  1.00  0.00     0.010 C 
ENDBRANCH   9  12
ENDBRANCH   3   4
BRANCH   3  14
HETATM   14  C   LIG     1      18.705  36.228  20.767  1.00  0.00     0.301 C 
BRANCH  14  15
HETATM   15  O   LIG     1      18.757  37.046  19.614  1.00  0.00    -0.372 OA
BRANCH  15  16
HETATM   16  C   LIG     1      20.069  37.531  19.404  1.00  0.00     0.170 C 
BRANCH  16  17
HETATM   17  C   LIG     1      20.021  38.841  18.610  1.00  0.00     0.026 C 
BRANCH  17  18
HETATM   18  C   LIG     1      18.686  38.993  17.872  1.00  0.00    -0.002 C 
HETATM   19  C   LIG     1      18.869  39.734  16.552  1.00  0.00     0.005 C 
ENDBRANCH  17  18
ENDBRANCH  16  17
ENDBRANCH  15  16
ENDBRANCH  14  15
ENDBRANCH   3  14
BRANCH   2  20
HETATM   20  C   LIG     1      14.893  35.725  21.526  1.00  0.00     0.217 C 
HETATM   21 CL   LIG     1      14.236  34.079  21.685  1.00  0.00    -0.121 Cl
ENDBRANCH   2  20
TORSDOF 9
ENDMDL
MODEL 4
REMARK VINA RESULT:      -3.5     15.139     17.024
REMARK  9 active torsions:
REMARK  status: ('A' for Active; 'I' for Inactive)
REMARK    1  A    between atoms: C_2  and  C_3 
REMARK       I    between atoms: C_2  and  N_5 
REMARK    2  A    between atoms: N_5  and  C_6 
REMARK    3  A    between atoms: N_5  and  C_16 
REMARK    4  A    between atoms: C_7  and  C_8 
REMARK    5  A    between atoms: C_13  and  C_14 
REMARK    6  A    between atoms: C_16  and  O_17 
REMARK    7  A    between atoms: O_17  and  C_18 
REMARK    8  A    between atoms: C_18  and  C_19 
REMARK    9  A    between atoms: C_19  and  C_20 
ROOT
HETATM    1  O   LIG     1      16.102  34.131  22.736  1.00  0.00    -0.272 OA
HETATM    2  C   LIG     1      16.752  35.211  22.756  1.00  0.00     0.239 C 
HETATM    3  N   LIG     1      16.558  36.183  21.702  1.00  0.00    -0.294 N 
ENDROOT
BRANCH   3   4
HETATM    4  C   LIG     1      17.337  37.394  21.659  1.00  0.00     0.052 A 
HETATM    5  C   LIG     1      17.120  38.412  22.620  1.00  0.00    -0.031 A 
HETATM    6  C   LIG     1      17.856  39.605  22.540  1.00  0.00     0.009 A 
HETATM    7  C   LIG     1      18.794  39.792  21.527  1.00  0.00     0.001 A 
HETATM    8  C   LIG     1      19.029  38.785  20.594  1.00  0.00     0.009 A 
HETATM    9  C   LIG     1      18.322  37.573  20.656  1.00  0.00    -0.031 A 
BRANCH   5  10
HETATM   10  C   LIG     1      16.165  38.230  23.778  1.00  0.00     0.036 C 
HETATM   11  C   LIG     1      16.903  38.320  25.110  1.00  0.00     0.010 C 
ENDBRANCH   5  10
BRANCH   9  12
HETATM   12  C   LIG     1      18.628  36.507  19.630  1.00  0.00     0.036 C 
HETATM   13  C   LIG     1      20.131  36.310  19.462  1.00  0.00     0.010 C 
ENDBRANCH   9  12
ENDBRANCH   3   4
BRANCH   3  14
HETATM   14  C   LIG     1      15.641  35.896  20.595  1.00  0.00     0.301 C 
BRANCH  14  15
HETATM   15  O   LIG     1      16.086  34.747  19.901  1.00  0.00    -0.372 OA
BRANCH  15  16
HETATM   16  C   LIG     1      15.291  34.515  18.755  1.00  0.00     0.170 C 
BRANCH  16  17
HETATM   17  C   LIG     1      15.125  33.008  18.530  1.00  0.00     0.026 C 
BRANCH  17  18
HETATM   18  C   LIG     1      15.737  32.205  19.682  1.00  0.00    -0.002 C 
HETATM   19  C   LIG     1      14.794  31.098  20.142  1.00  0.00     0.005 C 
ENDBRANCH  17  18
ENDBRANCH  16  17
ENDBRANCH  15  16
ENDBRANCH  14  15
ENDBRANCH   3  14
BRANCH   2  20
HETATM   20  C   LIG     1      17.741  35.421  23.869  1.00  0.00     0.217 C 
HETATM   21 CL   LIG     1      17.114  34.724  25.382  1.00  0.00    -0.121 Cl
ENDBRANCH   2  20
TORSDOF 9
ENDMDL
MODEL 5
REMARK VINA RESULT:      -3.5      1.698      2.946
REMARK  9 active torsions:
REMARK  status: ('A' for Active; 'I' for Inactive)
REMARK    1  A    between atoms: C_2  and  C_3 
REMARK       I    between atoms: C_2  and  N_5 
REMARK    2  A    between atoms: N_5  and  C_6 
REMARK    3  A    between atoms: N_5  and  C_16 
REMARK    4  A    between atoms: C_7  and  C_8 
REMARK    5  A    between atoms: C_13  and  C_14 
REMARK    6  A    between atoms: C_16  and  O_17 
REMARK    7  A    between atoms: O_17  and  C_18 
REMARK    8  A    between atoms: C_18  and  C_19 
REMARK    9  A    between atoms: C_19  and  C_20 
ROOT
HETATM    1  O   LIG     1      27.684  22.702  17.897  1.00  0.00    -0.272 OA
HETATM    2  C   LIG     1      26.624  22.963  18.528  1.00  0.00     0.239 C 
HETATM    3  N   LIG     1      26.070  21.980  19.435  1.00  0.00    -0.294 N 
ENDROOT
BRANCH   3   4
HETATM    4  C   LIG     1      24.824  22.220  20.115  1.00  0.00     0.052 A 
HETATM    5  C   LIG     1      23.595  22.001  19.445  1.00  0.00    -0.031 A 
HETATM    6  C   LIG     1      22.389  22.279  20.108  1.00  0.00     0.009 A 
HETATM    7  C   LIG     1      22.393  22.766  21.413  1.00  0.00     0.001 A 
HETATM    8  C   LIG     1      23.598  22.960  22.085  1.00  0.00     0.009 A 
HETATM    9  C   LIG     1      24.821  22.676  21.458  1.00  0.00    -0.031 A 
BRANCH   5  10
HETATM   10  C   LIG     1      23.535  21.408  18.056  1.00  0.00     0.036 C 
HETATM   11  C   LIG     1      22.792  20.075  18.065  1.00  0.00     0.010 C 
ENDBRANCH   5  10
BRANCH   9  12
HETATM   12  C   LIG     1      26.098  22.887  22.238  1.00  0.00     0.036 C 
HETATM   13  C   LIG     1      25.838  22.893  23.741  1.00  0.00     0.010 C 
ENDBRANCH   9  12
ENDBRANCH   3   4
BRANCH   3  14
HETATM   14  C   LIG     1      26.716  20.673  19.587  1.00  0.00     0.301 C 
BRANCH  14  15
HETATM   15  O   LIG     1      26.360  19.842  18.499  1.00  0.00    -0.372 OA
BRANCH  15  16
HETATM   16  C   LIG     1      27.490  19.149  18.008  1.00  0.00     0.170 C 
BRANCH  16  17
HETATM   17  C   LIG     1      27.408  19.029  16.482  1.00  0.00     0.026 C 
BRANCH  17  18
HETATM   18  C   LIG     1      26.182  19.767  15.934  1.00  0.00    -0.002 C 
HETATM   19  C   LIG     1      25.981  19.474  14.451  1.00  0.00     0.005 C 
ENDBRANCH  17  18
ENDBRANCH  16  17
ENDBRANCH  15  16
ENDBRANCH  14  15
ENDBRANCH   3  14
BRANCH   2  20
HETATM   20  C   LIG     1      25.956  24.286  18.274  1.00  0.00     0.217 C 
HETATM   21 CL   LIG     1      26.335  25.423  19.589  1.00  0.00    -0.121 Cl
ENDBRANCH   2  20
TORSDOF 9
ENDMDL
MODEL 6
REMARK VINA RESULT:      -3.4      2.017      4.360
REMARK  9 active torsions:
REMARK  status: ('A' for Active; 'I' for Inactive)
REMARK    1  A    between atoms: C_2  and  C_3 
REMARK       I    between atoms: C_2  and  N_5 
REMARK    2  A    between atoms: N_5  and  C_6 
REMARK    3  A    between atoms: N_5  and  C_16 
REMARK    4  A    between atoms: C_7  and  C_8 
REMARK    5  A    between atoms: C_13  and  C_14 
REMARK    6  A    between atoms: C_16  and  O_17 
REMARK    7  A    between atoms: O_17  and  C_18 
REMARK    8  A    between atoms: C_18  and  C_19 
REMARK    9  A    between atoms: C_19  and  C_20 
ROOT
HETATM    1  O   LIG     1      28.034  20.434  20.062  1.00  0.00    -0.272 OA
HETATM    2  C   LIG     1      26.814  20.616  20.320  1.00  0.00     0.239 C 
HETATM    3  N   LIG     1      26.252  21.946  20.227  1.00  0.00    -0.294 N 
ENDROOT
BRANCH   3   4
HETATM    4  C   LIG     1      24.880  22.197  20.583  1.00  0.00     0.052 A 
HETATM    5  C   LIG     1      23.854  22.031  19.619  1.00  0.00    -0.031 A 
HETATM    6  C   LIG     1      22.526  22.321  19.969  1.00  0.00     0.009 A 
HETATM    7  C   LIG     1      22.211  22.768  21.250  1.00  0.00     0.001 A 
HETATM    8  C   LIG     1      23.212  22.910  22.209  1.00  0.00     0.009 A 
HETATM    9  C   LIG     1      24.549  22.613  21.897  1.00  0.00    -0.031 A 
BRANCH   5  10
HETATM   10  C   LIG     1      24.134  21.483  18.239  1.00  0.00     0.036 C 
HETATM   11  C   LIG     1      23.143  20.379  17.881  1.00  0.00     0.010 C 
ENDBRANCH   5  10
BRANCH   9  12
HETATM   12  C   LIG     1      25.593  22.766  22.979  1.00  0.00     0.036 C 
HETATM   13  C   LIG     1      24.963  22.756  24.367  1.00  0.00     0.010 C 
ENDBRANCH   9  12
ENDBRANCH   3   4
BRANCH   3  14
HETATM   14  C   LIG     1      27.108  23.082  19.873  1.00  0.00     0.301 C 
BRANCH  14  15
HETATM   15  O   LIG     1      27.153  23.216  18.465  1.00  0.00    -0.372 OA
BRANCH  15  16
HETATM   16  C   LIG     1      26.665  24.482  18.066  1.00  0.00     0.170 C 
BRANCH  16  17
HETATM   17  C   LIG     1      26.683  25.449  19.255  1.00  0.00     0.026 C 
BRANCH  17  18
HETATM   18  C   LIG     1      27.792  26.495  19.101  1.00  0.00    -0.002 C 
HETATM   19  C   LIG     1      28.657  26.205  17.879  1.00  0.00     0.005 C 
ENDBRANCH  17  18
ENDBRANCH  16  17
ENDBRANCH  15  16
ENDBRANCH  14  15
ENDBRANCH   3  14
BRANCH   2  20
HETATM   20  C   LIG     1      25.999  19.430  20.759  1.00  0.00     0.217 C 
HETATM   21 CL   LIG     1      26.126  19.221  22.522  1.00  0.00    -0.121 Cl
ENDBRANCH   2  20
TORSDOF 9
ENDMDL
MODEL 7
REMARK VINA RESULT:      -3.4      2.379      4.796
REMARK  9 active torsions:
REMARK  status: ('A' for Active; 'I' for Inactive)
REMARK    1  A    between atoms: C_2  and  C_3 
REMARK       I    between atoms: C_2  and  N_5 
REMARK    2  A    between atoms: N_5  and  C_6 
REMARK    3  A    between atoms: N_5  and  C_16 
REMARK    4  A    between atoms: C_7  and  C_8 
REMARK    5  A    between atoms: C_13  and  C_14 
REMARK    6  A    between atoms: C_16  and  O_17 
REMARK    7  A    between atoms: O_17  and  C_18 
REMARK    8  A    between atoms: C_18  and  C_19 
REMARK    9  A    between atoms: C_19  and  C_20 
ROOT
HETATM    1  O   LIG     1      27.216  20.985  23.119  1.00  0.00    -0.272 OA
HETATM    2  C   LIG     1      26.426  20.783  22.158  1.00  0.00     0.239 C 
HETATM    3  N   LIG     1      26.032  21.887  21.310  1.00  0.00    -0.294 N 
ENDROOT
BRANCH   3   4
HETATM    4  C   LIG     1      25.077  21.702  20.249  1.00  0.00     0.052 A 
HETATM    5  C   LIG     1      25.513  21.301  18.962  1.00  0.00    -0.031 A 
HETATM    6  C   LIG     1      24.576  21.166  17.926  1.00  0.00     0.009 A 
HETATM    7  C   LIG     1      23.225  21.421  18.154  1.00  0.00     0.001 A 
HETATM    8  C   LIG     1      22.787  21.792  19.424  1.00  0.00     0.009 A 
HETATM    9  C   LIG     1      23.696  21.920  20.486  1.00  0.00    -0.031 A 
BRANCH   5  10
HETATM   10  C   LIG     1      26.955  20.944  18.681  1.00  0.00     0.036 C 
HETATM   11  C   LIG     1      27.236  20.954  17.181  1.00  0.00     0.010 C 
ENDBRANCH   5  10
BRANCH   9  12
HETATM   12  C   LIG     1      23.165  22.307  21.847  1.00  0.00     0.036 C 
HETATM   13  C   LIG     1      22.635  21.094  22.604  1.00  0.00     0.010 C 
ENDBRANCH   9  12
ENDBRANCH   3   4
BRANCH   3  14
HETATM   14  C   LIG     1      26.518  23.241  21.592  1.00  0.00     0.301 C 
BRANCH  14  15
HETATM   15  O   LIG     1      27.689  23.486  20.837  1.00  0.00    -0.372 OA
BRANCH  15  16
HETATM   16  C   LIG     1      27.656  24.780  20.267  1.00  0.00     0.170 C 
BRANCH  16  17
HETATM   17  C   LIG     1      26.254  25.076  19.722  1.00  0.00     0.026 C 
BRANCH  17  18
HETATM   18  C   LIG     1      26.154  24.730  18.233  1.00  0.00    -0.002 C 
HETATM   19  C   LIG     1      27.537  24.644  17.594  1.00  0.00     0.005 C 
ENDBRANCH  17  18
ENDBRANCH  16  17
ENDBRANCH  15  16
ENDBRANCH  14  15
ENDBRANCH   3  14
BRANCH   2  20
HETATM   20  C   LIG     1      25.891  19.391  21.963  1.00  0.00     0.217 C 
HETATM   21 CL   LIG     1      25.270  18.754  23.504  1.00  0.00    -0.121 Cl
ENDBRANCH   2  20
TORSDOF 9
ENDMDL
MODEL 8
REMARK VINA RESULT:      -3.4      2.082      3.547
REMARK  9 active torsions:
REMARK  status: ('A' for Active; 'I' for Inactive)
REMARK    1  A    between atoms: C_2  and  C_3 
REMARK       I    between atoms: C_2  and  N_5 
REMARK    2  A    between atoms: N_5  and  C_6 
REMARK    3  A    between atoms: N_5  and  C_16 
REMARK    4  A    between atoms: C_7  and  C_8 
REMARK    5  A    between atoms: C_13  and  C_14 
REMARK    6  A    between atoms: C_16  and  O_17 
REMARK    7  A    between atoms: O_17  and  C_18 
REMARK    8  A    between atoms: C_18  and  C_19 
REMARK    9  A    between atoms: C_19  and  C_20 
ROOT
HETATM    1  O   LIG     1      28.518  19.011  19.673  1.00  0.00    -0.272 OA
HETATM    2  C   LIG     1      27.453  19.403  19.125  1.00  0.00     0.239 C 
HETATM    3  N   LIG     1      26.474  20.132  19.903  1.00  0.00    -0.294 N 
ENDROOT
BRANCH   3   4
HETATM    4  C   LIG     1      25.217  20.532  19.324  1.00  0.00     0.052 A 
HETATM    5  C   LIG     1      24.123  19.631  19.310  1.00  0.00    -0.031 A 
HETATM    6  C   LIG     1      22.918  20.020  18.705  1.00  0.00     0.009 A 
HETATM    7  C   LIG     1      22.790  21.278  18.122  1.00  0.00     0.001 A 
HETATM    8  C   LIG     1      23.854  22.177  18.154  1.00  0.00     0.009 A 
HETATM    9  C   LIG     1      25.068  21.827  18.766  1.00  0.00    -0.031 A 
BRANCH   5  10
HETATM   10  C   LIG     1      24.188  18.283  19.990  1.00  0.00     0.036 C 
HETATM   11  C   LIG     1      23.164  18.193  21.118  1.00  0.00     0.010 C 
ENDBRANCH   5  10
BRANCH   9  12
HETATM   12  C   LIG     1      26.184  22.845  18.790  1.00  0.00     0.036 C 
HETATM   13  C   LIG     1      25.782  24.095  19.565  1.00  0.00     0.010 C 
ENDBRANCH   9  12
ENDBRANCH   3   4
BRANCH   3  14
HETATM   14  C   LIG     1      26.702  20.378  21.330  1.00  0.00     0.301 C 
BRANCH  14  15
HETATM   15  O   LIG     1      25.490  20.778  21.938  1.00  0.00    -0.372 OA
BRANCH  15  16
HETATM   16  C   LIG     1      25.663  21.985  22.654  1.00  0.00     0.170 C 
BRANCH  16  17
HETATM   17  C   LIG     1      24.335  22.747  22.726  1.00  0.00     0.026 C 
BRANCH  17  18
HETATM   18  C   LIG     1      23.208  21.960  22.048  1.00  0.00    -0.002 C 
HETATM   19  C   LIG     1      22.219  22.896  21.361  1.00  0.00     0.005 C 
ENDBRANCH  17  18
ENDBRANCH  16  17
ENDBRANCH  15  16
ENDBRANCH  14  15
ENDBRANCH   3  14
BRANCH   2  20
HETATM   20  C   LIG     1      27.230  19.054  17.680  1.00  0.00     0.217 C 
HETATM   21 CL   LIG     1      27.689  20.426  16.643  1.00  0.00    -0.121 Cl
ENDBRANCH   2  20
TORSDOF 9
ENDMDL
MODEL 9
REMARK VINA RESULT:      -3.4     14.017     16.624
REMARK  9 active torsions:
REMARK  status: ('A' for Active; 'I' for Inactive)
REMARK    1  A    between atoms: C_2  and  C_3 
REMARK       I    between atoms: C_2  and  N_5 
REMARK    2  A    between atoms: N_5  and  C_6 
REMARK    3  A    between atoms: N_5  and  C_16 
REMARK    4  A    between atoms: C_7  and  C_8 
REMARK    5  A    between atoms: C_13  and  C_14 
REMARK    6  A    between atoms: C_16  and  O_17 
REMARK    7  A    between atoms: O_17  and  C_18 
REMARK    8  A    between atoms: C_18  and  C_19 
REMARK    9  A    between atoms: C_19  and  C_20 
ROOT
HETATM    1  O   LIG     1      29.679  30.587  32.709  1.00  0.00    -0.272 OA
HETATM    2  C   LIG     1      29.345  29.449  33.136  1.00  0.00     0.239 C 
HETATM    3  N   LIG     1      28.121  29.298  33.892  1.00  0.00    -0.294 N 
ENDROOT
BRANCH   3   4
HETATM    4  C   LIG     1      27.748  28.025  34.452  1.00  0.00     0.052 A 
HETATM    5  C   LIG     1      26.956  27.123  33.699  1.00  0.00    -0.031 A 
HETATM    6  C   LIG     1      26.565  25.903  34.274  1.00  0.00     0.009 A 
HETATM    7  C   LIG     1      26.948  25.576  35.573  1.00  0.00     0.001 A 
HETATM    8  C   LIG     1      27.747  26.449  36.308  1.00  0.00     0.009 A 
HETATM    9  C   LIG     1      28.170  27.669  35.757  1.00  0.00    -0.031 A 
BRANCH   5  10
HETATM   10  C   LIG     1      26.573  27.400  32.263  1.00  0.00     0.036 C 
HETATM   11  C   LIG     1      27.049  26.277  31.347  1.00  0.00     0.010 C 
ENDBRANCH   5  10
BRANCH   9  12
HETATM   12  C   LIG     1      29.051  28.570  36.592  1.00  0.00     0.036 C 
HETATM   13  C   LIG     1      28.757  28.415  38.080  1.00  0.00     0.010 C 
ENDBRANCH   9  12
ENDBRANCH   3   4
BRANCH   3  14
HETATM   14  C   LIG     1      27.294  30.470  34.196  1.00  0.00     0.301 C 
BRANCH  14  15
HETATM   15  O   LIG     1      26.229  30.088  35.043  1.00  0.00    -0.372 OA
BRANCH  15  16
HETATM   16  C   LIG     1      25.810  31.176  35.844  1.00  0.00     0.170 C 
BRANCH  16  17
HETATM   17  C   LIG     1      25.924  30.809  37.327  1.00  0.00     0.026 C 
BRANCH  17  18
HETATM   18  C   LIG     1      26.576  31.940  38.129  1.00  0.00    -0.002 C 
HETATM   19  C   LIG     1      28.055  32.079  37.783  1.00  0.00     0.005 C 
ENDBRANCH  17  18
ENDBRANCH  16  17
ENDBRANCH  15  16
ENDBRANCH  14  15
ENDBRANCH   3  14
BRANCH   2  20
HETATM   20  C   LIG     1      30.269  28.294  32.868  1.00  0.00     0.217 C 
HETATM   21 CL   LIG     1      30.289  27.920  31.127  1.00  0.00    -0.121 Cl
ENDBRANCH   2  20
TORSDOF 9
ENDMDL
MODEL 10
REMARK VINA RESULT:      -3.3      1.669      3.458
REMARK  9 active torsions:
REMARK  status: ('A' for Active; 'I' for Inactive)
REMARK    1  A    between atoms: C_2  and  C_3 
REMARK       I    between atoms: C_2  and  N_5 
REMARK    2  A    between atoms: N_5  and  C_6 
REMARK    3  A    between atoms: N_5  and  C_16 
REMARK    4  A    between atoms: C_7  and  C_8 
REMARK    5  A    between atoms: C_13  and  C_14 
REMARK    6  A    between atoms: C_16  and  O_17 
REMARK    7  A    between atoms: O_17  and  C_18 
REMARK    8  A    between atoms: C_18  and  C_19 
REMARK    9  A    between atoms: C_19  and  C_20 
ROOT
HETATM    1  O   LIG     1      25.813  24.382  18.115  1.00  0.00    -0.272 OA
HETATM    2  C   LIG     1      25.904  23.875  19.265  1.00  0.00     0.239 C 
HETATM    3  N   LIG     1      25.141  22.688  19.588  1.00  0.00    -0.294 N 
ENDROOT
BRANCH   3   4
HETATM    4  C   LIG     1      25.171  22.127  20.914  1.00  0.00     0.052 A 
HETATM    5  C   LIG     1      24.239  22.561  21.890  1.00  0.00    -0.031 A 
HETATM    6  C   LIG     1      24.307  22.035  23.190  1.00  0.00     0.009 A 
HETATM    7  C   LIG     1      25.278  21.095  23.525  1.00  0.00     0.001 A 
HETATM    8  C   LIG     1      26.181  20.646  22.563  1.00  0.00     0.009 A 
HETATM    9  C   LIG     1      26.130  21.139  21.249  1.00  0.00    -0.031 A 
BRANCH   5  10
HETATM   10  C   LIG     1      23.124  23.526  21.558  1.00  0.00     0.036 C 
HETATM   11  C   LIG     1      21.814  22.781  21.321  1.00  0.00     0.010 C 
ENDBRANCH   5  10
BRANCH   9  12
HETATM   12  C   LIG     1      27.121  20.605  20.241  1.00  0.00     0.036 C 
HETATM   13  C   LIG     1      26.938  19.107  20.018  1.00  0.00     0.010 C 
ENDBRANCH   9  12
ENDBRANCH   3   4
BRANCH   3  14
HETATM   14  C   LIG     1      24.236  22.102  18.595  1.00  0.00     0.301 C 
BRANCH  14  15
HETATM   15  O   LIG     1      24.960  21.217  17.764  1.00  0.00    -0.372 OA
BRANCH  15  16
HETATM   16  C   LIG     1      24.224  20.030  17.535  1.00  0.00     0.170 C 
BRANCH  16  17
HETATM   17  C   LIG     1      23.392  19.683  18.773  1.00  0.00     0.026 C 
BRANCH  17  18
HETATM   18  C   LIG     1      22.144  18.880  18.394  1.00  0.00    -0.002 C 
HETATM   19  C   LIG     1      21.834  19.013  16.907  1.00  0.00     0.005 C 
ENDBRANCH  17  18
ENDBRANCH  16  17
ENDBRANCH  15  16
ENDBRANCH  14  15
ENDBRANCH   3  14
BRANCH   2  20
HETATM   20  C   LIG     1      26.784  24.562  20.273  1.00  0.00     0.217 C 
HETATM   21 CL   LIG     1      27.488  26.034  19.564  1.00  0.00    -0.121 Cl
ENDBRANCH   2  20
TORSDOF 9
ENDMDL
MODEL 11
REMARK VINA RESULT:      -3.3     14.561     17.428
REMARK  9 active torsions:
REMARK  status: ('A' for Active; 'I' for Inactive)
REMARK    1  A    between atoms: C_2  and  C_3 
REMARK       I    between atoms: C_2  and  N_5 
REMARK    2  A    between atoms: N_5  and  C_6 
REMARK    3  A    between atoms: N_5  and  C_16 
REMARK    4  A    between atoms: C_7  and  C_8 
REMARK    5  A    between atoms: C_13  and  C_14 
REMARK    6  A    between atoms: C_16  and  O_17 
REMARK    7  A    between atoms: O_17  and  C_18 
REMARK    8  A    between atoms: C_18  and  C_19 
REMARK    9  A    between atoms: C_19  and  C_20 
ROOT
HETATM    1  O   LIG     1      29.149  31.009  34.226  1.00  0.00    -0.272 OA
HETATM    2  C   LIG     1      28.935  29.778  34.398  1.00  0.00     0.239 C 
HETATM    3  N   LIG     1      27.634  29.333  34.846  1.00  0.00    -0.294 N 
ENDROOT
BRANCH   3   4
HETATM    4  C   LIG     1      27.380  27.942  35.119  1.00  0.00     0.052 A 
HETATM    5  C   LIG     1      27.798  27.370  36.346  1.00  0.00    -0.031 A 
HETATM    6  C   LIG     1      27.582  26.003  36.580  1.00  0.00     0.009 A 
HETATM    7  C   LIG     1      26.962  25.209  35.618  1.00  0.00     0.001 A 
HETATM    8  C   LIG     1      26.527  25.770  34.420  1.00  0.00     0.009 A 
HETATM    9  C   LIG     1      26.712  27.138  34.161  1.00  0.00    -0.031 A 
BRANCH   5  10
HETATM   10  C   LIG     1      28.411  28.203  37.449  1.00  0.00     0.036 C 
HETATM   11  C   LIG     1      29.815  27.710  37.786  1.00  0.00     0.010 C 
ENDBRANCH   5  10
BRANCH   9  12
HETATM   12  C   LIG     1      26.205  27.699  32.853  1.00  0.00     0.036 C 
HETATM   13  C   LIG     1      26.891  27.041  31.660  1.00  0.00     0.010 C 
ENDBRANCH   9  12
ENDBRANCH   3   4
BRANCH   3  14
HETATM   14  C   LIG     1      26.582  30.310  35.138  1.00  0.00     0.301 C 
BRANCH  14  15
HETATM   15  O   LIG     1      25.758  29.819  36.178  1.00  0.00    -0.372 OA
BRANCH  15  16
HETATM   16  C   LIG     1      25.867  30.631  37.330  1.00  0.00     0.170 C 
BRANCH  16  17
HETATM   17  C   LIG     1      26.680  31.889  37.010  1.00  0.00     0.026 C 
BRANCH  17  18
HETATM   18  C   LIG     1      27.677  32.205  38.129  1.00  0.00    -0.002 C 
HETATM   19  C   LIG     1      29.109  31.927  37.686  1.00  0.00     0.005 C 
ENDBRANCH  17  18
ENDBRANCH  16  17
ENDBRANCH  15  16
ENDBRANCH  14  15
ENDBRANCH   3  14
BRANCH   2  20
HETATM   20  C   LIG     1      30.073  28.823  34.163  1.00  0.00     0.217 C 
HETATM   21 CL   LIG     1      30.141  28.367  32.444  1.00  0.00    -0.121 Cl
ENDBRANCH   2  20
TORSDOF 9
ENDMDL
MODEL 12
REMARK VINA RESULT:      -3.2      2.363      5.072
REMARK  9 active torsions:
REMARK  status: ('A' for Active; 'I' for Inactive)
REMARK    1  A    between atoms: C_2  and  C_3 
REMARK       I    between atoms: C_2  and  N_5 
REMARK    2  A    between atoms: N_5  and  C_6 
REMARK    3  A    between atoms: N_5  and  C_16 
REMARK    4  A    between atoms: C_7  and  C_8 
REMARK    5  A    between atoms: C_13  and  C_14 
REMARK    6  A    between atoms: C_16  and  O_17 
REMARK    7  A    between atoms: O_17  and  C_18 
REMARK    8  A    between atoms: C_18  and  C_19 
REMARK    9  A    between atoms: C_19  and  C_20 
ROOT
HETATM    1  O   LIG     1      26.775  20.899  23.413  1.00  0.00    -0.272 OA
HETATM    2  C   LIG     1      26.158  20.687  22.335  1.00  0.00     0.239 C 
HETATM    3  N   LIG     1      25.812  21.799  21.476  1.00  0.00    -0.294 N 
ENDROOT
BRANCH   3   4
HETATM    4  C   LIG     1      25.046  21.596  20.274  1.00  0.00     0.052 A 
HETATM    5  C   LIG     1      23.630  21.590  20.326  1.00  0.00    -0.031 A 
HETATM    6  C   LIG     1      22.898  21.349  19.153  1.00  0.00     0.009 A 
HETATM    7  C   LIG     1      23.550  21.117  17.944  1.00  0.00     0.001 A 
HETATM    8  C   LIG     1      24.942  21.147  17.882  1.00  0.00     0.009 A 
HETATM    9  C   LIG     1      25.704  21.402  19.033  1.00  0.00    -0.031 A 
BRANCH   5  10
HETATM   10  C   LIG     1      22.875  21.904  21.598  1.00  0.00     0.036 C 
HETATM   11  C   LIG     1      22.058  23.183  21.442  1.00  0.00     0.010 C 
ENDBRANCH   5  10
BRANCH   9  12
HETATM   12  C   LIG     1      27.210  21.441  18.907  1.00  0.00     0.036 C 
HETATM   13  C   LIG     1      27.651  22.384  17.793  1.00  0.00     0.010 C 
ENDBRANCH   9  12
ENDBRANCH   3   4
BRANCH   3  14
HETATM   14  C   LIG     1      26.143  23.169  21.878  1.00  0.00     0.301 C 
BRANCH  14  15
HETATM   15  O   LIG     1      27.488  23.447  21.541  1.00  0.00    -0.372 OA
BRANCH  15  16
HETATM   16  C   LIG     1      27.593  24.697  20.889  1.00  0.00     0.170 C 
BRANCH  16  17
HETATM   17  C   LIG     1      26.299  25.002  20.127  1.00  0.00     0.026 C 
BRANCH  17  18
HETATM   18  C   LIG     1      26.583  25.797  18.849  1.00  0.00    -0.002 C 
HETATM   19  C   LIG     1      28.051  26.205  18.768  1.00  0.00     0.005 C 
ENDBRANCH  17  18
ENDBRANCH  16  17
ENDBRANCH  15  16
ENDBRANCH  14  15
ENDBRANCH   3  14
BRANCH   2  20
HETATM   20  C   LIG     1      25.770  19.271  22.009  1.00  0.00     0.217 C 
HETATM   21 CL   LIG     1      27.008  18.523  20.972  1.00  0.00    -0.121 Cl
ENDBRANCH   2  20
TORSDOF 9
ENDMDL
MODEL 13
REMARK VINA RESULT:      -3.1      2.430      5.300
REMARK  9 active torsions:
REMARK  status: ('A' for Active; 'I' for Inactive)
REMARK    1  A    between atoms: C_2  and  C_3 
REMARK       I    between atoms: C_2  and  N_5 
REMARK    2  A    between atoms: N_5  and  C_6 
REMARK    3  A    between atoms: N_5  and  C_16 
REMARK    4  A    between atoms: C_7  and  C_8 
REMARK    5  A    between atoms: C_13  and  C_14 
REMARK    6  A    between atoms: C_16  and  O_17 
REMARK    7  A    between atoms: O_17  and  C_18 
REMARK    8  A    between atoms: C_18  and  C_19 
REMARK    9  A    between atoms: C_19  and  C_20 
ROOT
HETATM    1  O   LIG     1      25.501  20.824  23.052  1.00  0.00    -0.272 OA
HETATM    2  C   LIG     1      25.438  21.808  22.266  1.00  0.00     0.239 C 
HETATM    3  N   LIG     1      26.500  22.028  21.308  1.00  0.00    -0.294 N 
ENDROOT
BRANCH   3   4
HETATM    4  C   LIG     1      26.493  23.181  20.445  1.00  0.00     0.052 A 
HETATM    5  C   LIG     1      27.128  24.379  20.856  1.00  0.00    -0.031 A 
HETATM    6  C   LIG     1      27.076  25.508  20.023  1.00  0.00     0.009 A 
HETATM    7  C   LIG     1      26.407  25.458  18.802  1.00  0.00     0.001 A 
HETATM    8  C   LIG     1      25.802  24.275  18.382  1.00  0.00     0.009 A 
HETATM    9  C   LIG     1      25.850  23.123  19.183  1.00  0.00    -0.031 A 
BRANCH   5  10
HETATM   10  C   LIG     1      27.925  24.464  22.137  1.00  0.00     0.036 C 
HETATM   11  C   LIG     1      28.754  25.744  22.178  1.00  0.00     0.010 C 
ENDBRANCH   5  10
BRANCH   9  12
HETATM   12  C   LIG     1      25.192  21.862  18.673  1.00  0.00     0.036 C 
HETATM   13  C   LIG     1      23.753  22.120  18.239  1.00  0.00     0.010 C 
ENDBRANCH   9  12
ENDBRANCH   3   4
BRANCH   3  14
HETATM   14  C   LIG     1      27.662  21.135  21.279  1.00  0.00     0.301 C 
BRANCH  14  15
HETATM   15  O   LIG     1      27.512  20.201  20.228  1.00  0.00    -0.372 OA
BRANCH  15  16
HETATM   16  C   LIG     1      28.732  20.025  19.535  1.00  0.00     0.170 C 
BRANCH  16  17
HETATM   17  C   LIG     1      29.431  21.376  19.355  1.00  0.00     0.026 C 
BRANCH  17  18
HETATM   18  C   LIG     1      29.122  21.981  17.982  1.00  0.00    -0.002 C 
HETATM   19  C   LIG     1      29.467  23.466  17.944  1.00  0.00     0.005 C 
ENDBRANCH  17  18
ENDBRANCH  16  17
ENDBRANCH  15  16
ENDBRANCH  14  15
ENDBRANCH   3  14
BRANCH   2  20
HETATM   20  C   LIG     1      24.266  22.741  22.392  1.00  0.00     0.217 C 
HETATM   21 CL   LIG     1      22.807  21.981  21.712  1.00  0.00    -0.121 Cl
ENDBRANCH   2  20
TORSDOF 9
ENDMDL
MODEL 14
REMARK VINA RESULT:      -3.0      2.191      3.389
REMARK  9 active torsions:
REMARK  status: ('A' for Active; 'I' for Inactive)
REMARK    1  A    between atoms: C_2  and  C_3 
REMARK       I    between atoms: C_2  and  N_5 
REMARK    2  A    between atoms: N_5  and  C_6 
REMARK    3  A    between atoms: N_5  and  C_16 
REMARK    4  A    between atoms: C_7  and  C_8 
REMARK    5  A    between atoms: C_13  and  C_14 
REMARK    6  A    between atoms: C_16  and  O_17 
REMARK    7  A    between atoms: O_17  and  C_18 
REMARK    8  A    between atoms: C_18  and  C_19 
REMARK    9  A    between atoms: C_19  and  C_20 
ROOT
HETATM    1  O   LIG     1      28.681  19.949  20.553  1.00  0.00    -0.272 OA
HETATM    2  C   LIG     1      28.434  21.097  20.096  1.00  0.00     0.239 C 
HETATM    3  N   LIG     1      27.296  21.838  20.595  1.00  0.00    -0.294 N 
ENDROOT
BRANCH   3   4
HETATM    4  C   LIG     1      26.948  23.122  20.043  1.00  0.00     0.052 A 
HETATM    5  C   LIG     1      26.182  23.199  18.853  1.00  0.00    -0.031 A 
HETATM    6  C   LIG     1      25.886  24.456  18.304  1.00  0.00     0.009 A 
HETATM    7  C   LIG     1      26.338  25.623  18.917  1.00  0.00     0.001 A 
HETATM    8  C   LIG     1      27.070  25.554  20.101  1.00  0.00     0.009 A 
HETATM    9  C   LIG     1      27.369  24.313  20.686  1.00  0.00    -0.031 A 
BRANCH   5  10
HETATM   10  C   LIG     1      25.610  21.968  18.189  1.00  0.00     0.036 C 
HETATM   11  C   LIG     1      24.085  22.018  18.173  1.00  0.00     0.010 C 
ENDBRANCH   5  10
BRANCH   9  12
HETATM   12  C   LIG     1      28.151  24.296  21.979  1.00  0.00     0.036 C 
HETATM   13  C   LIG     1      28.569  25.701  22.397  1.00  0.00     0.010 C 
ENDBRANCH   9  12
ENDBRANCH   3   4
BRANCH   3  14
HETATM   14  C   LIG     1      26.411  21.240  21.598  1.00  0.00     0.301 C 
BRANCH  14  15
HETATM   15  O   LIG     1      25.566  20.292  20.975  1.00  0.00    -0.372 OA
BRANCH  15  16
HETATM   16  C   LIG     1      24.562  19.851  21.868  1.00  0.00     0.170 C 
BRANCH  16  17
HETATM   17  C   LIG     1      23.190  20.344  21.397  1.00  0.00     0.026 C 
BRANCH  17  18
HETATM   18  C   LIG     1      22.709  21.531  22.238  1.00  0.00    -0.002 C 
HETATM   19  C   LIG     1      22.957  22.852  21.517  1.00  0.00     0.005 C 
ENDBRANCH  17  18
ENDBRANCH  16  17
ENDBRANCH  15  16
ENDBRANCH  14  15
ENDBRANCH   3  14
BRANCH   2  20
HETATM   20  C   LIG     1      29.325  21.632  19.009  1.00  0.00     0.217 C 
HETATM   21 CL   LIG     1      30.581  22.681  19.710  1.00  0.00    -0.121 Cl
ENDBRANCH   2  20
TORSDOF 9
ENDMDL
MODEL 15
REMARK VINA RESULT:      -3.0      2.557      5.402
REMARK  9 active torsions:
REMARK  status: ('A' for Active; 'I' for Inactive)
REMARK    1  A    between atoms: C_2  and  C_3 
REMARK       I    between atoms: C_2  and  N_5 
REMARK    2  A    between atoms: N_5  and  C_6 
REMARK    3  A    between atoms: N_5  and  C_16 
REMARK    4  A    between atoms: C_7  and  C_8 
REMARK    5  A    between atoms: C_13  and  C_14 
REMARK    6  A    between atoms: C_16  and  O_17 
REMARK    7  A    between atoms: O_17  and  C_18 
REMARK    8  A    between atoms: C_18  and  C_19 
REMARK    9  A    between atoms: C_19  and  C_20 
ROOT
HETATM    1  O   LIG     1      29.052  21.576  21.427  1.00  0.00    -0.272 OA
HETATM    2  C   LIG     1      27.800  21.441  21.385  1.00  0.00     0.239 C 
HETATM    3  N   LIG     1      26.948  22.597  21.561  1.00  0.00    -0.294 N 
ENDROOT
BRANCH   3   4
HETATM    4  C   LIG     1      25.514  22.463  21.588  1.00  0.00     0.052 A 
HETATM    5  C   LIG     1      24.851  22.172  22.805  1.00  0.00    -0.031 A 
HETATM    6  C   LIG     1      23.457  22.003  22.808  1.00  0.00     0.009 A 
HETATM    7  C   LIG     1      22.726  22.119  21.628  1.00  0.00     0.001 A 
HETATM    8  C   LIG     1      23.370  22.430  20.432  1.00  0.00     0.009 A 
HETATM    9  C   LIG     1      24.761  22.622  20.397  1.00  0.00    -0.031 A 
BRANCH   5  10
HETATM   10  C   LIG     1      25.589  22.105  24.123  1.00  0.00     0.036 C 
HETATM   11  C   LIG     1      25.090  23.182  25.081  1.00  0.00     0.010 C 
ENDBRANCH   5  10
BRANCH   9  12
HETATM   12  C   LIG     1      25.406  22.975  19.078  1.00  0.00     0.036 C 
HETATM   13  C   LIG     1      25.495  21.763  18.158  1.00  0.00     0.010 C 
ENDBRANCH   9  12
ENDBRANCH   3   4
BRANCH   3  14
HETATM   14  C   LIG     1      27.537  23.912  21.827  1.00  0.00     0.301 C 
BRANCH  14  15
HETATM   15  O   LIG     1      28.038  24.456  20.622  1.00  0.00    -0.372 OA
BRANCH  15  16
HETATM   16  C   LIG     1      27.684  25.820  20.503  1.00  0.00     0.170 C 
BRANCH  16  17
HETATM   17  C   LIG     1      27.345  26.148  19.045  1.00  0.00     0.026 C 
BRANCH  17  18
HETATM   18  C   LIG     1      28.494  25.760  18.108  1.00  0.00    -0.002 C 
HETATM   19  C   LIG     1      28.059  24.680  17.122  1.00  0.00     0.005 C 
ENDBRANCH  17  18
ENDBRANCH  16  17
ENDBRANCH  15  16
ENDBRANCH  14  15
ENDBRANCH   3  14
BRANCH   2  20
HETATM   20  C   LIG     1      27.244  20.057  21.191  1.00  0.00     0.217 C 
HETATM   21 CL   LIG     1      27.319  19.149  22.720  1.00  0.00    -0.121 Cl
ENDBRANCH   2  20
TORSDOF 9
ENDMDL
MODEL 16
REMARK VINA RESULT:      -2.9     13.360     15.881
REMARK  9 active torsions:
REMARK  status: ('A' for Active; 'I' for Inactive)
REMARK    1  A    between atoms: C_2  and  C_3 
REMARK       I    between atoms: C_2  and  N_5 
REMARK    2  A    between atoms: N_5  and  C_6 
REMARK    3  A    between atoms: N_5  and  C_16 
REMARK    4  A    between atoms: C_7  and  C_8 
REMARK    5  A    between atoms: C_13  and  C_14 
REMARK    6  A    between atoms: C_16  and  O_17 
REMARK    7  A    between atoms: O_17  and  C_18 
REMARK    8  A    between atoms: C_18  and  C_19 
REMARK    9  A    between atoms: C_19  and  C_20 
ROOT
HETATM    1  O   LIG     1      28.775  23.533  34.893  1.00  0.00    -0.272 OA
HETATM    2  C   LIG     1      28.618  24.784  34.917  1.00  0.00     0.239 C 
HETATM    3  N   LIG     1      27.300  25.336  35.145  1.00  0.00    -0.294 N 
ENDROOT
BRANCH   3   4
HETATM    4  C   LIG     1      27.076  26.758  35.108  1.00  0.00     0.052 A 
HETATM    5  C   LIG     1      27.262  27.537  36.277  1.00  0.00    -0.031 A 
HETATM    6  C   LIG     1      26.999  28.915  36.236  1.00  0.00     0.009 A 
HETATM    7  C   LIG     1      26.559  29.519  35.060  1.00  0.00     0.001 A 
HETATM    8  C   LIG     1      26.398  28.762  33.902  1.00  0.00     0.009 A 
HETATM    9  C   LIG     1      26.669  27.385  33.904  1.00  0.00    -0.031 A 
BRANCH   5  10
HETATM   10  C   LIG     1      27.804  26.943  37.557  1.00  0.00     0.036 C 
HETATM   11  C   LIG     1      29.172  27.529  37.892  1.00  0.00     0.010 C 
ENDBRANCH   5  10
BRANCH   9  12
HETATM   12  C   LIG     1      26.495  26.614  32.615  1.00  0.00     0.036 C 
HETATM   13  C   LIG     1      27.062  27.382  31.426  1.00  0.00     0.010 C 
ENDBRANCH   9  12
ENDBRANCH   3   4
BRANCH   3  14
HETATM   14  C   LIG     1      26.147  24.446  35.308  1.00  0.00     0.301 C 
BRANCH  14  15
HETATM   15  O   LIG     1      26.005  24.104  36.673  1.00  0.00    -0.372 OA
BRANCH  15  16
HETATM   16  C   LIG     1      24.867  23.287  36.869  1.00  0.00     0.170 C 
BRANCH  16  17
HETATM   17  C   LIG     1      24.076  23.168  35.562  1.00  0.00     0.026 C 
BRANCH  17  18
HETATM   18  C   LIG     1      22.598  23.508  35.777  1.00  0.00    -0.002 C 
HETATM   19  C   LIG     1      21.820  23.432  34.467  1.00  0.00     0.005 C 
ENDBRANCH  17  18
ENDBRANCH  16  17
ENDBRANCH  15  16
ENDBRANCH  14  15
ENDBRANCH   3  14
BRANCH   2  20
HETATM   20  C   LIG     1      29.818  25.653  34.663  1.00  0.00     0.217 C 
HETATM   21 CL   LIG     1      30.064  25.857  32.912  1.00  0.00    -0.121 Cl
ENDBRANCH   2  20
TORSDOF 9
ENDMDL
MODEL 17
REMARK VINA RESULT:      -2.9      2.724      4.904
REMARK  9 active torsions:
REMARK  status: ('A' for Active; 'I' for Inactive)
REMARK    1  A    between atoms: C_2  and  C_3 
REMARK       I    between atoms: C_2  and  N_5 
REMARK    2  A    between atoms: N_5  and  C_6 
REMARK    3  A    between atoms: N_5  and  C_16 
REMARK    4  A    between atoms: C_7  and  C_8 
REMARK    5  A    between atoms: C_13  and  C_14 
REMARK    6  A    between atoms: C_16  and  O_17 
REMARK    7  A    between atoms: O_17  and  C_18 
REMARK    8  A    between atoms: C_18  and  C_19 
REMARK    9  A    between atoms: C_19  and  C_20 
ROOT
HETATM    1  O   LIG     1      26.587  20.911  22.897  1.00  0.00    -0.272 OA
HETATM    2  C   LIG     1      26.281  21.880  22.152  1.00  0.00     0.239 C 
HETATM    3  N   LIG     1      27.194  22.301  21.111  1.00  0.00    -0.294 N 
ENDROOT
BRANCH   3   4
HETATM    4  C   LIG     1      26.905  23.448  20.291  1.00  0.00     0.052 A 
HETATM    5  C   LIG     1      26.136  23.300  19.109  1.00  0.00    -0.031 A 
HETATM    6  C   LIG     1      25.897  24.420  18.297  1.00  0.00     0.009 A 
HETATM    7  C   LIG     1      26.409  25.669  18.643  1.00  0.00     0.001 A 
HETATM    8  C   LIG     1      27.144  25.825  19.816  1.00  0.00     0.009 A 
HETATM    9  C   LIG     1      27.387  24.729  20.660  1.00  0.00    -0.031 A 
BRANCH   5  10
HETATM   10  C   LIG     1      25.501  21.983  18.727  1.00  0.00     0.036 C 
HETATM   11  C   LIG     1      24.048  22.181  18.307  1.00  0.00     0.010 C 
ENDBRANCH   5  10
BRANCH   9  12
HETATM   12  C   LIG     1      28.175  24.957  21.929  1.00  0.00     0.036 C 
HETATM   13  C   LIG     1      29.634  25.281  21.628  1.00  0.00     0.010 C 
ENDBRANCH   9  12
ENDBRANCH   3   4
BRANCH   3  14
HETATM   14  C   LIG     1      28.487  21.629  20.952  1.00  0.00     0.301 C 
BRANCH  14  15
HETATM   15  O   LIG     1      28.473  20.858  19.766  1.00  0.00    -0.372 OA
BRANCH  15  16
HETATM   16  C   LIG     1      29.694  20.992  19.066  1.00  0.00     0.170 C 
BRANCH  16  17
HETATM   17  C   LIG     1      30.044  22.474  18.902  1.00  0.00     0.026 C 
BRANCH  17  18
HETATM   18  C   LIG     1      29.474  23.036  17.595  1.00  0.00    -0.002 C 
HETATM   19  C   LIG     1      29.755  24.530  17.470  1.00  0.00     0.005 C 
ENDBRANCH  17  18
ENDBRANCH  16  17
ENDBRANCH  15  16
ENDBRANCH  14  15
ENDBRANCH   3  14
BRANCH   2  20
HETATM   20  C   LIG     1      24.979  22.588  22.411  1.00  0.00     0.217 C 
HETATM   21 CL   LIG     1      24.745  22.812  24.161  1.00  0.00    -0.121 Cl
ENDBRANCH   2  20
TORSDOF 9
ENDMDL
MODEL 18
REMARK VINA RESULT:      -2.9      2.524      4.263
REMARK  9 active torsions:
REMARK  status: ('A' for Active; 'I' for Inactive)
REMARK    1  A    between atoms: C_2  and  C_3 
REMARK       I    between atoms: C_2  and  N_5 
REMARK    2  A    between atoms: N_5  and  C_6 
REMARK    3  A    between atoms: N_5  and  C_16 
REMARK    4  A    between atoms: C_7  and  C_8 
REMARK    5  A    between atoms: C_13  and  C_14 
REMARK    6  A    between atoms: C_16  and  O_17 
REMARK    7  A    between atoms: O_17  and  C_18 
REMARK    8  A    between atoms: C_18  and  C_19 
REMARK    9  A    between atoms: C_19  and  C_20 
ROOT
HETATM    1  O   LIG     1      26.179  19.904  21.947  1.00  0.00    -0.272 OA
HETATM    2  C   LIG     1      26.562  20.900  21.275  1.00  0.00     0.239 C 
HETATM    3  N   LIG     1      25.769  22.111  21.274  1.00  0.00    -0.294 N 
ENDROOT
BRANCH   3   4
HETATM    4  C   LIG     1      26.143  23.240  20.462  1.00  0.00     0.052 A 
HETATM    5  C   LIG     1      25.620  23.377  19.152  1.00  0.00    -0.031 A 
HETATM    6  C   LIG     1      26.026  24.460  18.357  1.00  0.00     0.009 A 
HETATM    7  C   LIG     1      26.935  25.396  18.844  1.00  0.00     0.001 A 
HETATM    8  C   LIG     1      27.434  25.280  20.140  1.00  0.00     0.009 A 
HETATM    9  C   LIG     1      27.035  24.218  20.968  1.00  0.00    -0.031 A 
BRANCH   5  10
HETATM   10  C   LIG     1      24.579  22.428  18.603  1.00  0.00     0.036 C 
HETATM   11  C   LIG     1      25.236  21.293  17.823  1.00  0.00     0.010 C 
ENDBRANCH   5  10
BRANCH   9  12
HETATM   12  C   LIG     1      27.593  24.150  22.371  1.00  0.00     0.036 C 
HETATM   13  C   LIG     1      28.475  25.355  22.680  1.00  0.00     0.010 C 
ENDBRANCH   9  12
ENDBRANCH   3   4
BRANCH   3  14
HETATM   14  C   LIG     1      24.507  22.165  22.017  1.00  0.00     0.301 C 
BRANCH  14  15
HETATM   15  O   LIG     1      24.709  22.854  23.236  1.00  0.00    -0.372 OA
BRANCH  15  16
HETATM   16  C   LIG     1      24.657  21.960  24.331  1.00  0.00     0.170 C 
BRANCH  16  17
HETATM   17  C   LIG     1      25.675  22.378  25.397  1.00  0.00     0.026 C 
BRANCH  17  18
HETATM   18  C   LIG     1      25.710  23.901  25.563  1.00  0.00    -0.002 C 
HETATM   19  C   LIG     1      26.328  24.296  26.900  1.00  0.00     0.005 C 
ENDBRANCH  17  18
ENDBRANCH  16  17
ENDBRANCH  15  16
ENDBRANCH  14  15
ENDBRANCH   3  14
BRANCH   2  20
HETATM   20  C   LIG     1      27.821  20.765  20.464  1.00  0.00     0.217 C 
HETATM   21 CL   LIG     1      29.245  21.019  21.502  1.00  0.00    -0.121 Cl
ENDBRANCH   2  20
TORSDOF 9
ENDMDL
MODEL 19
REMARK VINA RESULT:      -2.8      2.480      4.919
REMARK  9 active torsions:
REMARK  status: ('A' for Active; 'I' for Inactive)
REMARK    1  A    between atoms: C_2  and  C_3 
REMARK       I    between atoms: C_2  and  N_5 
REMARK    2  A    between atoms: N_5  and  C_6 
REMARK    3  A    between atoms: N_5  and  C_16 
REMARK    4  A    between atoms: C_7  and  C_8 
REMARK    5  A    between atoms: C_13  and  C_14 
REMARK    6  A    between atoms: C_16  and  O_17 
REMARK    7  A    between atoms: O_17  and  C_18 
REMARK    8  A    between atoms: C_18  and  C_19 
REMARK    9  A    between atoms: C_19  and  C_20 
ROOT
HETATM    1  O   LIG     1      23.384  22.195  20.481  1.00  0.00    -0.272 OA
HETATM    2  C   LIG     1      24.250  22.285  19.568  1.00  0.00     0.239 C 
HETATM    3  N   LIG     1      25.620  22.602  19.909  1.00  0.00    -0.294 N 
ENDROOT
BRANCH   3   4
HETATM    4  C   LIG     1      26.615  22.781  18.884  1.00  0.00     0.052 A 
HETATM    5  C   LIG     1      26.919  24.081  18.408  1.00  0.00    -0.031 A 
HETATM    6  C   LIG     1      27.861  24.236  17.379  1.00  0.00     0.009 A 
HETATM    7  C   LIG     1      28.497  23.127  16.827  1.00  0.00     0.001 A 
HETATM    8  C   LIG     1      28.221  21.849  17.308  1.00  0.00     0.009 A 
HETATM    9  C   LIG     1      27.296  21.660  18.347  1.00  0.00    -0.031 A 
BRANCH   5  10
HETATM   10  C   LIG     1      26.309  25.321  19.022  1.00  0.00     0.036 C 
HETATM   11  C   LIG     1      27.365  26.136  19.762  1.00  0.00     0.010 C 
ENDBRANCH   5  10
BRANCH   9  12
HETATM   12  C   LIG     1      27.047  20.255  18.844  1.00  0.00     0.036 C 
HETATM   13  C   LIG     1      26.389  19.392  17.772  1.00  0.00     0.010 C 
ENDBRANCH   9  12
ENDBRANCH   3   4
BRANCH   3  14
HETATM   14  C   LIG     1      25.991  22.857  21.304  1.00  0.00     0.301 C 
BRANCH  14  15
HETATM   15  O   LIG     1      26.380  21.643  21.916  1.00  0.00    -0.372 OA
BRANCH  15  16
HETATM   16  C   LIG     1      25.609  21.398  23.076  1.00  0.00     0.170 C 
BRANCH  16  17
HETATM   17  C   LIG     1      25.010  22.709  23.595  1.00  0.00     0.026 C 
BRANCH  17  18
HETATM   18  C   LIG     1      25.575  23.070  24.972  1.00  0.00    -0.002 C 
HETATM   19  C   LIG     1      24.611  22.671  26.084  1.00  0.00     0.005 C 
ENDBRANCH  17  18
ENDBRANCH  16  17
ENDBRANCH  15  16
ENDBRANCH  14  15
ENDBRANCH   3  14
BRANCH   2  20
HETATM   20  C   LIG     1      23.800  22.096  18.146  1.00  0.00     0.217 C 
HETATM   21 CL   LIG     1      22.808  20.625  18.011  1.00  0.00    -0.121 Cl
ENDBRANCH   2  20
TORSDOF 9
ENDMDL
MODEL 20
REMARK VINA RESULT:      -2.7      2.480      5.589
REMARK  9 active torsions:
REMARK  status: ('A' for Active; 'I' for Inactive)
REMARK    1  A    between atoms: C_2  and  C_3 
REMARK       I    between atoms: C_2  and  N_5 
REMARK    2  A    between atoms: N_5  and  C_6 
REMARK    3  A    between atoms: N_5  and  C_16 
REMARK    4  A    between atoms: C_7  and  C_8 
REMARK    5  A    between atoms: C_13  and  C_14 
REMARK    6  A    between atoms: C_16  and  O_17 
REMARK    7  A    between atoms: O_17  and  C_18 
REMARK    8  A    between atoms: C_18  and  C_19 
REMARK    9  A    between atoms: C_19  and  C_20 
ROOT
HETATM    1  O   LIG     1      25.494  21.790  23.457  1.00  0.00    -0.272 OA
HETATM    2  C   LIG     1      25.743  21.266  22.338  1.00  0.00     0.239 C 
HETATM    3  N   LIG     1      26.084  22.108  21.212  1.00  0.00    -0.294 N 
ENDROOT
BRANCH   3   4
HETATM    4  C   LIG     1      26.305  21.545  19.905  1.00  0.00     0.052 A 
HETATM    5  C   LIG     1      27.594  21.084  19.539  1.00  0.00    -0.031 A 
HETATM    6  C   LIG     1      27.803  20.576  18.247  1.00  0.00     0.009 A 
HETATM    7  C   LIG     1      26.758  20.522  17.328  1.00  0.00     0.001 A 
HETATM    8  C   LIG     1      25.483  20.951  17.691  1.00  0.00     0.009 A 
HETATM    9  C   LIG     1      25.235  21.449  18.980  1.00  0.00    -0.031 A 
BRANCH   5  10
HETATM   10  C   LIG     1      28.743  21.056  20.521  1.00  0.00     0.036 C 
HETATM   11  C   LIG     1      29.155  19.621  20.834  1.00  0.00     0.010 C 
ENDBRANCH   5  10
BRANCH   9  12
HETATM   12  C   LIG     1      23.830  21.883  19.327  1.00  0.00     0.036 C 
HETATM   13  C   LIG     1      22.820  21.372  18.306  1.00  0.00     0.010 C 
ENDBRANCH   9  12
ENDBRANCH   3   4
BRANCH   3  14
HETATM   14  C   LIG     1      26.100  23.566  21.362  1.00  0.00     0.301 C 
BRANCH  14  15
HETATM   15  O   LIG     1      27.430  24.036  21.253  1.00  0.00    -0.372 OA
BRANCH  15  16
HETATM   16  C   LIG     1      27.535  25.009  20.232  1.00  0.00     0.170 C 
BRANCH  16  17
HETATM   17  C   LIG     1      26.172  25.217  19.564  1.00  0.00     0.026 C 
BRANCH  17  18
HETATM   18  C   LIG     1      26.212  24.818  18.086  1.00  0.00    -0.002 C 
HETATM   19  C   LIG     1      27.602  24.334  17.684  1.00  0.00     0.005 C 
ENDBRANCH  17  18
ENDBRANCH  16  17
ENDBRANCH  15  16
ENDBRANCH  14  15
ENDBRANCH   3  14
BRANCH   2  20
HETATM   20  C   LIG     1      25.633  19.771  22.217  1.00  0.00     0.217 C 
HETATM   21 CL   LIG     1      23.963  19.314  21.804  1.00  0.00    -0.121 Cl
ENDBRANCH   2  20
TORSDOF 9
ENDMDL
