REMARK  9 active torsions:
REMARK  status: ('A' for Active; 'I' for Inactive)
REMARK    1  A    between atoms: C_2  and  C_3 
REMARK       I    between atoms: C_2  and  N_5 
REMARK    2  A    between atoms: N_5  and  C_6 
REMARK    3  A    between atoms: N_5  and  C_16 
REMARK    4  A    between atoms: C_7  and  C_8 
REMARK    5  A    between atoms: C_13  and  C_14 
REMARK    6  A    between atoms: C_16  and  O_17 
REMARK    7  A    between atoms: O_17  and  C_18 
REMARK    8  A    between atoms: C_18  and  C_19 
REMARK    9  A    between atoms: C_19  and  C_20 
ROOT
HETATM    1  O   LIG     1      -0.411   3.388   0.551  1.00  0.00    -0.272 OA
HETATM    2  C   LIG     1      -1.179   2.400   0.398  1.00  0.00     0.239 C 
HETATM    3  N   LIG     1      -0.653   1.158  -0.126  1.00  0.00    -0.294 N 
ENDROOT
BRANCH   3   4
HETATM    4  C   LIG     1      -1.518   0.035  -0.378  1.00  0.00     0.052 A 
HETATM    5  C   LIG     1      -2.232  -0.052  -1.599  1.00  0.00    -0.031 A 
HETATM    6  C   LIG     1      -3.104  -1.131  -1.813  1.00  0.00     0.009 A 
HETATM    7  C   LIG     1      -3.271  -2.112  -0.838  1.00  0.00     0.001 A 
HETATM    8  C   LIG     1      -2.553  -2.045   0.354  1.00  0.00     0.009 A 
HETATM    9  C   LIG     1      -1.660  -0.988   0.593  1.00  0.00    -0.031 A 
BRANCH   5  10
HETATM   10  C   LIG     1      -2.033   0.948  -2.715  1.00  0.00     0.036 C 
HETATM   11  C   LIG     1      -1.048   0.416  -3.752  1.00  0.00     0.010 C 
ENDBRANCH   5  10
BRANCH   9  12
HETATM   12  C   LIG     1      -0.893  -0.973   1.895  1.00  0.00     0.036 C 
HETATM   13  C   LIG     1      -1.706  -0.331   3.014  1.00  0.00     0.010 C 
ENDBRANCH   9  12
ENDBRANCH   3   4
BRANCH   3  14
HETATM   14  C   LIG     1       0.757   1.062  -0.515  1.00  0.00     0.301 C 
BRANCH  14  15
HETATM   15  O   LIG     1       1.574   1.321   0.610  1.00  0.00    -0.372 OA
BRANCH  15  16
HETATM   16  C   LIG     1       2.920   0.980   0.341  1.00  0.00     0.170 C 
BRANCH  16  17
HETATM   17  C   LIG     1       3.220  -0.426   0.871  1.00  0.00     0.026 C 
BRANCH  17  18
HETATM   18  C   LIG     1       4.692  -0.795   0.660  1.00  0.00    -0.002 C 
HETATM   19  C   LIG     1       4.989  -2.196   1.185  1.00  0.00     0.005 C 
ENDBRANCH  17  18
ENDBRANCH  16  17
ENDBRANCH  15  16
ENDBRANCH  14  15
ENDBRANCH   3  14
BRANCH   2  20
HETATM   20  C   LIG     1      -2.634   2.576   0.735  1.00  0.00     0.217 C 
HETATM   21 CL   LIG     1      -3.458   3.467  -0.567  1.00  0.00    -0.121 Cl
ENDBRANCH   2  20
TORSDOF 9
