MODEL 1
REMARK VINA RESULT:      -6.5      0.000      0.000
REMARK  0 active torsions:
REMARK  status: ('A' for Active; 'I' for Inactive)
ROOT
HETATM    1  F   LIG     1      17.294  38.968  25.691  1.00  0.00    -0.203 F 
HETATM    2  C   LIG     1      17.355  37.657  25.348  1.00  0.00     0.161 A 
HETATM    3  C   LIG     1      16.846  37.230  24.115  1.00  0.00     0.193 A 
HETATM    4  F   LIG     1      16.294  38.128  23.261  1.00  0.00    -0.200 F 
HETATM    5  C   LIG     1      16.910  35.877  23.763  1.00  0.00     0.161 A 
HETATM    6  F   LIG     1      16.419  35.460  22.569  1.00  0.00    -0.203 F 
HETATM    7  C   LIG     1      17.480  34.952  24.644  1.00  0.00     0.088 A 
HETATM    8  C   LIG     1      17.987  35.378  25.876  1.00  0.00     0.122 A 
HETATM    9  F   LIG     1      18.540  34.481  26.729  1.00  0.00    -0.206 F 
HETATM   10  C   LIG     1      17.924  36.730  26.228  1.00  0.00     0.088 A 
ENDROOT
TORSDOF 0
ENDMDL
MODEL 2
REMARK VINA RESULT:      -6.4      0.414      2.648
REMARK  0 active torsions:
REMARK  status: ('A' for Active; 'I' for Inactive)
ROOT
HETATM    1  F   LIG     1      16.549  35.972  22.179  1.00  0.00    -0.203 F 
HETATM    2  C   LIG     1      16.925  36.209  23.461  1.00  0.00     0.161 A 
HETATM    3  C   LIG     1      16.907  37.514  23.968  1.00  0.00     0.193 A 
HETATM    4  F   LIG     1      16.513  38.544  23.178  1.00  0.00    -0.200 F 
HETATM    5  C   LIG     1      17.296  37.755  25.292  1.00  0.00     0.161 A 
HETATM    6  F   LIG     1      17.279  39.018  25.786  1.00  0.00    -0.203 F 
HETATM    7  C   LIG     1      17.702  36.692  26.105  1.00  0.00     0.088 A 
HETATM    8  C   LIG     1      17.721  35.389  25.599  1.00  0.00     0.122 A 
HETATM    9  F   LIG     1      18.114  34.359  26.388  1.00  0.00    -0.206 F 
HETATM   10  C   LIG     1      17.332  35.147  24.277  1.00  0.00     0.088 A 
ENDROOT
TORSDOF 0
ENDMDL
MODEL 3
REMARK VINA RESULT:      -6.4      1.323      3.130
REMARK  0 active torsions:
REMARK  status: ('A' for Active; 'I' for Inactive)
ROOT
HETATM    1  F   LIG     1      17.956  36.805  26.818  1.00  0.00    -0.203 F 
HETATM    2  C   LIG     1      17.593  36.910  25.515  1.00  0.00     0.161 A 
HETATM    3  C   LIG     1      17.378  35.757  24.751  1.00  0.00     0.193 A 
HETATM    4  F   LIG     1      17.531  34.531  25.313  1.00  0.00    -0.200 F 
HETATM    5  C   LIG     1      17.004  35.869  23.406  1.00  0.00     0.161 A 
HETATM    6  F   LIG     1      16.794  34.754  22.663  1.00  0.00    -0.203 F 
HETATM    7  C   LIG     1      16.846  37.133  22.828  1.00  0.00     0.088 A 
HETATM    8  C   LIG     1      17.061  38.285  23.591  1.00  0.00     0.122 A 
HETATM    9  F   LIG     1      16.908  39.509  23.030  1.00  0.00    -0.206 F 
HETATM   10  C   LIG     1      17.435  38.173  24.934  1.00  0.00     0.088 A 
ENDROOT
TORSDOF 0
ENDMDL
MODEL 4
REMARK VINA RESULT:      -6.2      1.121      2.976
REMARK  0 active torsions:
REMARK  status: ('A' for Active; 'I' for Inactive)
ROOT
HETATM    1  F   LIG     1      16.828  39.183  23.110  1.00  0.00    -0.203 F 
HETATM    2  C   LIG     1      16.964  37.883  23.474  1.00  0.00     0.161 A 
HETATM    3  C   LIG     1      17.201  37.550  24.813  1.00  0.00     0.193 A 
HETATM    4  F   LIG     1      17.293  38.527  25.749  1.00  0.00    -0.200 F 
HETATM    5  C   LIG     1      17.341  36.207  25.185  1.00  0.00     0.161 A 
HETATM    6  F   LIG     1      17.570  35.881  26.482  1.00  0.00    -0.203 F 
HETATM    7  C   LIG     1      17.246  35.200  24.219  1.00  0.00     0.088 A 
HETATM    8  C   LIG     1      17.010  35.533  22.881  1.00  0.00     0.122 A 
HETATM    9  F   LIG     1      16.917  34.557  21.945  1.00  0.00    -0.206 F 
HETATM   10  C   LIG     1      16.870  36.874  22.508  1.00  0.00     0.088 A 
ENDROOT
TORSDOF 0
ENDMDL
MODEL 5
REMARK VINA RESULT:      -6.2      1.111      3.010
REMARK  0 active torsions:
REMARK  status: ('A' for Active; 'I' for Inactive)
ROOT
HETATM    1  F   LIG     1      17.611  35.812  26.425  1.00  0.00    -0.203 F 
HETATM    2  C   LIG     1      17.339  36.143  25.137  1.00  0.00     0.161 A 
HETATM    3  C   LIG     1      17.151  37.484  24.782  1.00  0.00     0.193 A 
HETATM    4  F   LIG     1      17.241  38.455  25.725  1.00  0.00    -0.200 F 
HETATM    5  C   LIG     1      16.870  37.822  23.453  1.00  0.00     0.161 A 
HETATM    6  F   LIG     1      16.687  39.120  23.105  1.00  0.00    -0.203 F 
HETATM    7  C   LIG     1      16.777  36.820  22.481  1.00  0.00     0.088 A 
HETATM    8  C   LIG     1      16.965  35.480  22.836  1.00  0.00     0.122 A 
HETATM    9  F   LIG     1      16.875  34.509  21.894  1.00  0.00    -0.206 F 
HETATM   10  C   LIG     1      17.245  35.141  24.164  1.00  0.00     0.088 A 
ENDROOT
TORSDOF 0
ENDMDL
MODEL 6
REMARK VINA RESULT:      -6.1      0.970      2.975
REMARK  0 active torsions:
REMARK  status: ('A' for Active; 'I' for Inactive)
ROOT
HETATM    1  F   LIG     1      17.914  34.448  25.566  1.00  0.00    -0.203 F 
HETATM    2  C   LIG     1      17.561  35.643  25.030  1.00  0.00     0.161 A 
HETATM    3  C   LIG     1      17.156  35.720  23.692  1.00  0.00     0.193 A 
HETATM    4  F   LIG     1      17.114  34.599  22.929  1.00  0.00    -0.200 F 
HETATM    5  C   LIG     1      16.792  36.955  23.141  1.00  0.00     0.161 A 
HETATM    6  F   LIG     1      16.399  37.033  21.846  1.00  0.00    -0.203 F 
HETATM    7  C   LIG     1      16.835  38.111  23.928  1.00  0.00     0.088 A 
HETATM    8  C   LIG     1      17.241  38.034  25.264  1.00  0.00     0.122 A 
HETATM    9  F   LIG     1      17.282  39.154  26.027  1.00  0.00    -0.206 F 
HETATM   10  C   LIG     1      17.604  36.800  25.815  1.00  0.00     0.088 A 
ENDROOT
TORSDOF 0
ENDMDL
MODEL 7
REMARK VINA RESULT:      -6.1      3.722      5.405
REMARK  0 active torsions:
REMARK  status: ('A' for Active; 'I' for Inactive)
ROOT
HETATM    1  F   LIG     1      17.347  35.502  20.615  1.00  0.00    -0.203 F 
HETATM    2  C   LIG     1      17.755  36.776  20.845  1.00  0.00     0.161 A 
HETATM    3  C   LIG     1      18.812  37.318  20.104  1.00  0.00     0.193 A 
HETATM    4  F   LIG     1      19.428  36.572  19.153  1.00  0.00    -0.200 F 
HETATM    5  C   LIG     1      19.231  38.633  20.343  1.00  0.00     0.161 A 
HETATM    6  F   LIG     1      20.254  39.162  19.627  1.00  0.00    -0.203 F 
HETATM    7  C   LIG     1      18.595  39.402  21.323  1.00  0.00     0.088 A 
HETATM    8  C   LIG     1      17.540  38.859  22.064  1.00  0.00     0.122 A 
HETATM    9  F   LIG     1      16.923  39.605  23.013  1.00  0.00    -0.206 F 
HETATM   10  C   LIG     1      17.120  37.546  21.825  1.00  0.00     0.088 A 
ENDROOT
TORSDOF 0
ENDMDL
MODEL 8
REMARK VINA RESULT:      -6.0      3.719      5.028
REMARK  0 active torsions:
REMARK  status: ('A' for Active; 'I' for Inactive)
ROOT
HETATM    1  F   LIG     1      20.183  39.289  19.624  1.00  0.00    -0.203 F 
HETATM    2  C   LIG     1      19.196  38.714  20.357  1.00  0.00     0.161 A 
HETATM    3  C   LIG     1      18.822  37.388  20.110  1.00  0.00     0.193 A 
HETATM    4  F   LIG     1      19.447  36.675  19.140  1.00  0.00    -0.200 F 
HETATM    5  C   LIG     1      17.802  36.798  20.868  1.00  0.00     0.161 A 
HETATM    6  F   LIG     1      17.437  35.513  20.633  1.00  0.00    -0.203 F 
HETATM    7  C   LIG     1      17.159  37.534  21.868  1.00  0.00     0.088 A 
HETATM    8  C   LIG     1      17.533  38.859  22.113  1.00  0.00     0.122 A 
HETATM    9  F   LIG     1      16.909  39.572  23.083  1.00  0.00    -0.206 F 
HETATM   10  C   LIG     1      18.551  39.449  21.357  1.00  0.00     0.088 A 
ENDROOT
TORSDOF 0
ENDMDL
MODEL 9
REMARK VINA RESULT:      -6.0      3.774      5.582
REMARK  0 active torsions:
REMARK  status: ('A' for Active; 'I' for Inactive)
ROOT
HETATM    1  F   LIG     1      17.387  35.463  20.453  1.00  0.00    -0.203 F 
HETATM    2  C   LIG     1      17.916  36.705  20.595  1.00  0.00     0.161 A 
HETATM    3  C   LIG     1      17.418  37.572  21.575  1.00  0.00     0.193 A 
HETATM    4  F   LIG     1      16.407  37.171  22.386  1.00  0.00    -0.200 F 
HETATM    5  C   LIG     1      17.965  38.853  21.718  1.00  0.00     0.161 A 
HETATM    6  F   LIG     1      17.485  39.695  22.667  1.00  0.00    -0.203 F 
HETATM    7  C   LIG     1      19.007  39.265  20.882  1.00  0.00     0.088 A 
HETATM    8  C   LIG     1      19.504  38.399  19.902  1.00  0.00     0.122 A 
HETATM    9  F   LIG     1      20.514  38.799  19.092  1.00  0.00    -0.206 F 
HETATM   10  C   LIG     1      18.958  37.119  19.758  1.00  0.00     0.088 A 
ENDROOT
TORSDOF 0
ENDMDL
MODEL 10
REMARK VINA RESULT:      -6.0      3.774      4.937
REMARK  0 active torsions:
REMARK  status: ('A' for Active; 'I' for Inactive)
ROOT
HETATM    1  F   LIG     1      17.559  39.661  22.684  1.00  0.00    -0.203 F 
HETATM    2  C   LIG     1      18.003  38.813  21.722  1.00  0.00     0.161 A 
HETATM    3  C   LIG     1      17.407  37.556  21.565  1.00  0.00     0.193 A 
HETATM    4  F   LIG     1      16.383  37.184  22.373  1.00  0.00    -0.200 F 
HETATM    5  C   LIG     1      17.868  36.683  20.572  1.00  0.00     0.161 A 
HETATM    6  F   LIG     1      17.293  35.465  20.416  1.00  0.00    -0.203 F 
HETATM    7  C   LIG     1      18.924  37.068  19.738  1.00  0.00     0.088 A 
HETATM    8  C   LIG     1      19.519  38.323  19.896  1.00  0.00     0.122 A 
HETATM    9  F   LIG     1      20.542  38.696  19.087  1.00  0.00    -0.206 F 
HETATM   10  C   LIG     1      19.059  39.196  20.888  1.00  0.00     0.088 A 
ENDROOT
TORSDOF 0
ENDMDL
MODEL 11
REMARK VINA RESULT:      -5.9      3.403      4.442
REMARK  0 active torsions:
REMARK  status: ('A' for Active; 'I' for Inactive)
ROOT
HETATM    1  F   LIG     1      16.870  39.192  23.068  1.00  0.00    -0.203 F 
HETATM    2  C   LIG     1      17.333  38.349  22.112  1.00  0.00     0.161 A 
HETATM    3  C   LIG     1      18.288  38.791  21.188  1.00  0.00     0.193 A 
HETATM    4  F   LIG     1      18.754  40.064  21.250  1.00  0.00    -0.200 F 
HETATM    5  C   LIG     1      18.764  37.918  20.202  1.00  0.00     0.161 A 
HETATM    6  F   LIG     1      19.690  38.343  19.307  1.00  0.00    -0.203 F 
HETATM    7  C   LIG     1      18.285  36.605  20.140  1.00  0.00     0.088 A 
HETATM    8  C   LIG     1      17.330  36.164  21.062  1.00  0.00     0.122 A 
HETATM    9  F   LIG     1      16.865  34.892  21.002  1.00  0.00    -0.206 F 
HETATM   10  C   LIG     1      16.854  37.036  22.047  1.00  0.00     0.088 A 
ENDROOT
TORSDOF 0
ENDMDL
MODEL 12
REMARK VINA RESULT:      -5.8      2.104      3.634
REMARK  0 active torsions:
REMARK  status: ('A' for Active; 'I' for Inactive)
ROOT
HETATM    1  F   LIG     1      16.525  34.804  22.745  1.00  0.00    -0.203 F 
HETATM    2  C   LIG     1      16.866  36.109  22.889  1.00  0.00     0.161 A 
HETATM    3  C   LIG     1      17.218  36.870  21.767  1.00  0.00     0.193 A 
HETATM    4  F   LIG     1      17.216  36.303  20.534  1.00  0.00    -0.200 F 
HETATM    5  C   LIG     1      17.570  38.216  21.918  1.00  0.00     0.161 A 
HETATM    6  F   LIG     1      17.910  38.956  20.834  1.00  0.00    -0.203 F 
HETATM    7  C   LIG     1      17.570  38.800  23.190  1.00  0.00     0.088 A 
HETATM    8  C   LIG     1      17.219  38.040  24.310  1.00  0.00     0.122 A 
HETATM    9  F   LIG     1      17.220  38.606  25.542  1.00  0.00    -0.206 F 
HETATM   10  C   LIG     1      16.868  36.694  24.159  1.00  0.00     0.088 A 
ENDROOT
TORSDOF 0
ENDMDL
MODEL 13
REMARK VINA RESULT:      -5.8      3.123      4.645
REMARK  0 active torsions:
REMARK  status: ('A' for Active; 'I' for Inactive)
ROOT
HETATM    1  F   LIG     1      19.327  37.505  19.343  1.00  0.00    -0.203 F 
HETATM    2  C   LIG     1      18.444  37.445  20.372  1.00  0.00     0.161 A 
HETATM    3  C   LIG     1      18.170  38.590  21.129  1.00  0.00     0.193 A 
HETATM    4  F   LIG     1      18.786  39.763  20.835  1.00  0.00    -0.200 F 
HETATM    5  C   LIG     1      17.259  38.525  22.191  1.00  0.00     0.161 A 
HETATM    6  F   LIG     1      16.991  39.632  22.926  1.00  0.00    -0.203 F 
HETATM    7  C   LIG     1      16.624  37.315  22.493  1.00  0.00     0.088 A 
HETATM    8  C   LIG     1      16.899  36.171  21.737  1.00  0.00     0.122 A 
HETATM    9  F   LIG     1      16.283  35.000  22.030  1.00  0.00    -0.206 F 
HETATM   10  C   LIG     1      17.809  36.236  20.676  1.00  0.00     0.088 A 
ENDROOT
TORSDOF 0
ENDMDL
MODEL 14
REMARK VINA RESULT:      -5.4      3.058      4.251
REMARK  0 active torsions:
REMARK  status: ('A' for Active; 'I' for Inactive)
ROOT
HETATM    1  F   LIG     1      15.511  37.802  23.854  1.00  0.00    -0.203 F 
HETATM    2  C   LIG     1      16.418  37.841  22.846  1.00  0.00     0.161 A 
HETATM    3  C   LIG     1      16.626  36.711  22.045  1.00  0.00     0.193 A 
HETATM    4  F   LIG     1      15.920  35.576  22.275  1.00  0.00    -0.200 F 
HETATM    5  C   LIG     1      17.563  36.755  21.005  1.00  0.00     0.161 A 
HETATM    6  F   LIG     1      17.767  35.663  20.227  1.00  0.00    -0.203 F 
HETATM    7  C   LIG     1      18.291  37.926  20.768  1.00  0.00     0.088 A 
HETATM    8  C   LIG     1      18.083  39.054  21.569  1.00  0.00     0.122 A 
HETATM    9  F   LIG     1      18.788  40.189  21.338  1.00  0.00    -0.206 F 
HETATM   10  C   LIG     1      17.147  39.011  22.607  1.00  0.00     0.088 A 
ENDROOT
TORSDOF 0
ENDMDL
MODEL 15
REMARK VINA RESULT:      -5.2      9.710     11.707
REMARK  0 active torsions:
REMARK  status: ('A' for Active; 'I' for Inactive)
ROOT
HETATM    1  F   LIG     1      13.129  29.202  14.306  1.00  0.00    -0.203 F 
HETATM    2  C   LIG     1      13.843  30.203  14.880  1.00  0.00     0.161 A 
HETATM    3  C   LIG     1      14.972  30.720  14.232  1.00  0.00     0.193 A 
HETATM    4  F   LIG     1      15.351  30.223  13.029  1.00  0.00    -0.200 F 
HETATM    5  C   LIG     1      15.707  31.753  14.827  1.00  0.00     0.161 A 
HETATM    6  F   LIG     1      16.800  32.257  14.202  1.00  0.00    -0.203 F 
HETATM    7  C   LIG     1      15.315  32.265  16.068  1.00  0.00     0.088 A 
HETATM    8  C   LIG     1      14.188  31.748  16.715  1.00  0.00     0.122 A 
HETATM    9  F   LIG     1      13.808  32.246  17.918  1.00  0.00    -0.206 F 
HETATM   10  C   LIG     1      13.453  30.717  16.122  1.00  0.00     0.088 A 
ENDROOT
TORSDOF 0
ENDMDL
MODEL 16
REMARK VINA RESULT:      -5.2      9.723     11.540
REMARK  0 active torsions:
REMARK  status: ('A' for Active; 'I' for Inactive)
ROOT
HETATM    1  F   LIG     1      16.784  32.219  14.217  1.00  0.00    -0.203 F 
HETATM    2  C   LIG     1      15.689  31.716  14.840  1.00  0.00     0.161 A 
HETATM    3  C   LIG     1      14.941  30.700  14.233  1.00  0.00     0.193 A 
HETATM    4  F   LIG     1      15.312  30.216  13.021  1.00  0.00    -0.200 F 
HETATM    5  C   LIG     1      13.811  30.183  14.879  1.00  0.00     0.161 A 
HETATM    6  F   LIG     1      13.085  29.198  14.294  1.00  0.00    -0.203 F 
HETATM    7  C   LIG     1      13.431  30.682  16.129  1.00  0.00     0.088 A 
HETATM    8  C   LIG     1      14.177  31.698  16.734  1.00  0.00     0.122 A 
HETATM    9  F   LIG     1      13.808  32.181  17.946  1.00  0.00    -0.206 F 
HETATM   10  C   LIG     1      15.306  32.215  16.090  1.00  0.00     0.088 A 
ENDROOT
TORSDOF 0
ENDMDL
MODEL 17
REMARK VINA RESULT:      -5.2      9.720     11.668
REMARK  0 active torsions:
REMARK  status: ('A' for Active; 'I' for Inactive)
ROOT
HETATM    1  F   LIG     1      13.589  29.201  14.182  1.00  0.00    -0.203 F 
HETATM    2  C   LIG     1      14.226  30.275  14.711  1.00  0.00     0.161 A 
HETATM    3  C   LIG     1      13.816  30.798  15.944  1.00  0.00     0.193 A 
HETATM    4  F   LIG     1      12.782  30.229  16.612  1.00  0.00    -0.200 F 
HETATM    5  C   LIG     1      14.476  31.907  16.487  1.00  0.00     0.161 A 
HETATM    6  F   LIG     1      14.082  32.414  17.682  1.00  0.00    -0.203 F 
HETATM    7  C   LIG     1      15.543  32.492  15.798  1.00  0.00     0.088 A 
HETATM    8  C   LIG     1      15.952  31.971  14.566  1.00  0.00     0.122 A 
HETATM    9  F   LIG     1      16.987  32.538  13.899  1.00  0.00    -0.206 F 
HETATM   10  C   LIG     1      15.293  30.863  14.022  1.00  0.00     0.088 A 
ENDROOT
TORSDOF 0
ENDMDL
MODEL 18
REMARK VINA RESULT:      -5.2      9.991     11.790
REMARK  0 active torsions:
REMARK  status: ('A' for Active; 'I' for Inactive)
ROOT
HETATM    1  F   LIG     1      12.440  30.375  16.574  1.00  0.00    -0.203 F 
HETATM    2  C   LIG     1      13.559  30.764  15.913  1.00  0.00     0.161 A 
HETATM    3  C   LIG     1      13.979  30.067  14.774  1.00  0.00     0.193 A 
HETATM    4  F   LIG     1      13.267  29.001  14.329  1.00  0.00    -0.200 F 
HETATM    5  C   LIG     1      15.135  30.470  14.094  1.00  0.00     0.161 A 
HETATM    6  F   LIG     1      15.545  29.797  12.990  1.00  0.00    -0.203 F 
HETATM    7  C   LIG     1      15.868  31.569  14.553  1.00  0.00     0.088 A 
HETATM    8  C   LIG     1      15.449  32.265  15.691  1.00  0.00     0.122 A 
HETATM    9  F   LIG     1      16.159  33.330  16.136  1.00  0.00    -0.206 F 
HETATM   10  C   LIG     1      14.294  31.863  16.371  1.00  0.00     0.088 A 
ENDROOT
TORSDOF 0
ENDMDL
MODEL 19
REMARK VINA RESULT:      -5.2      9.710     11.417
REMARK  0 active torsions:
REMARK  status: ('A' for Active; 'I' for Inactive)
ROOT
HETATM    1  F   LIG     1      14.319  32.518  17.581  1.00  0.00    -0.203 F 
HETATM    2  C   LIG     1      14.643  31.976  16.381  1.00  0.00     0.161 A 
HETATM    3  C   LIG     1      13.951  30.855  15.907  1.00  0.00     0.193 A 
HETATM    4  F   LIG     1      12.954  30.309  16.648  1.00  0.00    -0.200 F 
HETATM    5  C   LIG     1      14.288  30.297  14.667  1.00  0.00     0.161 A 
HETATM    6  F   LIG     1      13.619  29.212  14.205  1.00  0.00    -0.203 F 
HETATM    7  C   LIG     1      15.316  30.860  13.904  1.00  0.00     0.088 A 
HETATM    8  C   LIG     1      16.008  31.980  14.378  1.00  0.00     0.122 A 
HETATM    9  F   LIG     1      17.004  32.526  13.638  1.00  0.00    -0.206 F 
HETATM   10  C   LIG     1      15.672  32.537  15.616  1.00  0.00     0.088 A 
ENDROOT
TORSDOF 0
ENDMDL
MODEL 20
REMARK VINA RESULT:      -5.2     10.084     12.004
REMARK  0 active torsions:
REMARK  status: ('A' for Active; 'I' for Inactive)
ROOT
HETATM    1  F   LIG     1      15.545  29.643  12.961  1.00  0.00    -0.203 F 
HETATM    2  C   LIG     1      15.151  30.355  14.046  1.00  0.00     0.161 A 
HETATM    3  C   LIG     1      13.978  30.007  14.727  1.00  0.00     0.193 A 
HETATM    4  F   LIG     1      13.234  28.955  14.302  1.00  0.00    -0.200 F 
HETATM    5  C   LIG     1      13.574  30.744  15.847  1.00  0.00     0.161 A 
HETATM    6  F   LIG     1      12.439  30.408  16.508  1.00  0.00    -0.203 F 
HETATM    7  C   LIG     1      14.342  31.828  16.284  1.00  0.00     0.088 A 
HETATM    8  C   LIG     1      15.514  32.176  15.604  1.00  0.00     0.122 A 
HETATM    9  F   LIG     1      16.258  33.227  16.029  1.00  0.00    -0.206 F 
HETATM   10  C   LIG     1      15.918  31.441  14.485  1.00  0.00     0.088 A 
ENDROOT
TORSDOF 0
ENDMDL
