REMARK  0 active torsions:
REMARK  status: ('A' for Active; 'I' for Inactive)
ROOT
HETATM    1  F   LIG     1       2.643  -0.740   0.046  1.00  0.00    -0.203 F 
HETATM    2  C   LIG     1       1.339  -0.366   0.024  1.00  0.00     0.161 A 
HETATM    3  C   LIG     1       0.331  -1.337  -0.012  1.00  0.00     0.193 A 
HETATM    4  F   LIG     1       0.657  -2.654  -0.023  1.00  0.00    -0.200 F 
HETATM    5  C   LIG     1      -1.014  -0.948  -0.035  1.00  0.00     0.161 A 
HETATM    6  F   LIG     1      -1.993  -1.886  -0.069  1.00  0.00    -0.203 F 
HETATM    7  C   LIG     1      -1.349   0.410  -0.023  1.00  0.00     0.088 A 
HETATM    8  C   LIG     1      -0.342   1.380   0.012  1.00  0.00     0.122 A 
HETATM    9  F   LIG     1      -0.667   2.696   0.024  1.00  0.00    -0.206 F 
HETATM   10  C   LIG     1       1.002   0.992   0.035  1.00  0.00     0.088 A 
ENDROOT
TORSDOF 0
