REMARK  4 active torsions:
REMARK  status: ('A' for Active; 'I' for Inactive)
REMARK    1  A    between atoms: O_1  and  C_2 
REMARK    2  A    between atoms: C_2  and  C_3 
REMARK    3  A    between atoms: C_3  and  C_6 
REMARK    4  A    between atoms: C_6  and  C_7 
ROOT
HETATM    1  C   LIG     1      -0.841   0.101  -0.087  1.00  0.00    -0.026 C 
HETATM    2  C   LIG     1      -0.995   1.417  -0.880  1.00  0.00     0.017 C 
HETATM    3  C   LIG     1      -1.158  -1.091  -1.018  1.00  0.00     0.017 C 
ENDROOT
BRANCH   1   4
HETATM    4  C   LIG     1      -1.866   0.119   1.077  1.00  0.00     0.172 C 
BRANCH   4   5
HETATM    5  O   LIG     1      -1.799  -1.067   1.823  1.00  0.00    -0.400 OA
HETATM    6  H   LIG     1      -2.473  -0.977   2.546  1.00  0.00     0.209 HD
ENDBRANCH   4   5
ENDBRANCH   1   4
BRANCH   1   7
HETATM    7  C   LIG     1       0.596  -0.021   0.511  1.00  0.00     0.010 C 
BRANCH   7   8
HETATM    8  C   LIG     1       1.740  -0.004  -0.520  1.00  0.00    -0.004 C 
HETATM    9  C   LIG     1       3.095  -0.158   0.166  1.00  0.00     0.005 C 
ENDBRANCH   7   8
ENDBRANCH   1   7
TORSDOF 4
