REMARK  0 active torsions:
REMARK  status: ('A' for Active; 'I' for Inactive)
ROOT
HETATM    1  C   LIG     1      -0.220  -0.009  -0.367  1.00  0.00    -0.032 A 
HETATM    2  C   LIG     1      -1.619   0.085  -0.440  1.00  0.00    -0.018 A 
HETATM    3  C   LIG     1      -2.302   0.051  -1.666  1.00  0.00     0.013 A 
HETATM    4  C   LIG     1      -3.696   0.148  -1.692  1.00  0.00     0.001 A 
HETATM    5  C   LIG     1      -4.417   0.278  -0.502  1.00  0.00     0.001 A 
HETATM    6  C   LIG     1      -3.751   0.313   0.727  1.00  0.00     0.012 A 
HETATM    7  C   LIG     1      -2.351   0.217   0.773  1.00  0.00    -0.025 A 
HETATM    8  C   LIG     1      -1.671   0.252   2.011  1.00  0.00     0.013 A 
HETATM    9  C   LIG     1      -0.273   0.156   2.058  1.00  0.00     0.014 A 
HETATM   10  C   LIG     1       0.425   0.027   0.858  1.00  0.00    -0.018 A 
HETATM   11  C   LIG     1       1.849  -0.088   0.628  1.00  0.00    -0.019 A 
HETATM   12  C   LIG     1       2.907  -0.103   1.538  1.00  0.00     0.013 A 
HETATM   13  C   LIG     1       4.212  -0.228   1.035  1.00  0.00     0.001 A 
HETATM   14  C   LIG     1       4.433  -0.336  -0.353  1.00  0.00     0.001 A 
HETATM   15  C   LIG     1       3.351  -0.320  -1.248  1.00  0.00     0.008 A 
HETATM   16  C   LIG     1       2.060  -0.194  -0.733  1.00  0.00    -0.043 A 
HETATM   17  C   LIG     1       0.768  -0.154  -1.495  1.00  0.00     0.080 A 
ENDROOT
TORSDOF 0
