MODEL 1
REMARK VINA RESULT:      -7.8      0.000      0.000
REMARK  0 active torsions:
REMARK  status: ('A' for Active; 'I' for Inactive)
ROOT
HETATM    1  C   LIG     1      18.083  37.405  22.754  1.00  0.00    -0.032 A 
HETATM    2  C   LIG     1      17.813  36.863  24.021  1.00  0.00    -0.018 A 
HETATM    3  C   LIG     1      18.028  37.594  25.200  1.00  0.00     0.013 A 
HETATM    4  C   LIG     1      17.745  37.015  26.441  1.00  0.00     0.001 A 
HETATM    5  C   LIG     1      17.249  35.711  26.516  1.00  0.00     0.001 A 
HETATM    6  C   LIG     1      17.029  34.971  25.350  1.00  0.00     0.012 A 
HETATM    7  C   LIG     1      17.307  35.536  24.094  1.00  0.00    -0.025 A 
HETATM    8  C   LIG     1      17.088  34.794  22.912  1.00  0.00     0.013 A 
HETATM    9  C   LIG     1      17.365  35.357  21.657  1.00  0.00     0.014 A 
HETATM   10  C   LIG     1      17.860  36.659  21.608  1.00  0.00    -0.018 A 
HETATM   11  C   LIG     1      18.224  37.464  20.461  1.00  0.00    -0.019 A 
HETATM   12  C   LIG     1      18.178  37.159  19.100  1.00  0.00     0.013 A 
HETATM   13  C   LIG     1      18.597  38.141  18.187  1.00  0.00     0.001 A 
HETATM   14  C   LIG     1      19.047  39.395  18.647  1.00  0.00     0.001 A 
HETATM   15  C   LIG     1      19.082  39.677  20.022  1.00  0.00     0.008 A 
HETATM   16  C   LIG     1      18.664  38.691  20.917  1.00  0.00    -0.043 A 
HETATM   17  C   LIG     1      18.617  38.772  22.414  1.00  0.00     0.080 A 
ENDROOT
TORSDOF 0
ENDMDL
MODEL 2
REMARK VINA RESULT:      -7.6     17.958     18.570
REMARK  0 active torsions:
REMARK  status: ('A' for Active; 'I' for Inactive)
ROOT
HETATM    1  C   LIG     1       3.986  42.337  33.608  1.00  0.00    -0.032 A 
HETATM    2  C   LIG     1       4.068  41.258  34.504  1.00  0.00    -0.018 A 
HETATM    3  C   LIG     1       4.440  41.435  35.846  1.00  0.00     0.013 A 
HETATM    4  C   LIG     1       4.509  40.333  36.703  1.00  0.00     0.001 A 
HETATM    5  C   LIG     1       4.208  39.053  36.232  1.00  0.00     0.001 A 
HETATM    6  C   LIG     1       3.835  38.860  34.898  1.00  0.00     0.012 A 
HETATM    7  C   LIG     1       3.761  39.955  34.022  1.00  0.00    -0.025 A 
HETATM    8  C   LIG     1       3.385  39.769  32.673  1.00  0.00     0.013 A 
HETATM    9  C   LIG     1       3.310  40.862  31.797  1.00  0.00     0.014 A 
HETATM   10  C   LIG     1       3.615  42.130  32.290  1.00  0.00    -0.018 A 
HETATM   11  C   LIG     1       3.617  43.407  31.609  1.00  0.00    -0.019 A 
HETATM   12  C   LIG     1       3.315  43.718  30.283  1.00  0.00     0.013 A 
HETATM   13  C   LIG     1       3.399  45.061  29.881  1.00  0.00     0.001 A 
HETATM   14  C   LIG     1       3.777  46.057  30.803  1.00  0.00     0.001 A 
HETATM   15  C   LIG     1       4.074  45.719  32.133  1.00  0.00     0.008 A 
HETATM   16  C   LIG     1       3.988  44.380  32.517  1.00  0.00    -0.043 A 
HETATM   17  C   LIG     1       4.257  43.795  33.872  1.00  0.00     0.080 A 
ENDROOT
TORSDOF 0
ENDMDL
MODEL 3
REMARK VINA RESULT:      -7.5      0.754      5.541
REMARK  0 active torsions:
REMARK  status: ('A' for Active; 'I' for Inactive)
ROOT
HETATM    1  C   LIG     1      18.115  37.491  22.639  1.00  0.00    -0.032 A 
HETATM    2  C   LIG     1      18.324  38.000  21.347  1.00  0.00    -0.018 A 
HETATM    3  C   LIG     1      18.837  39.289  21.132  1.00  0.00     0.013 A 
HETATM    4  C   LIG     1      19.030  39.755  19.828  1.00  0.00     0.001 A 
HETATM    5  C   LIG     1      18.715  38.944  18.735  1.00  0.00     0.001 A 
HETATM    6  C   LIG     1      18.204  37.658  18.933  1.00  0.00     0.012 A 
HETATM    7  C   LIG     1      18.004  37.172  20.236  1.00  0.00    -0.025 A 
HETATM    8  C   LIG     1      17.487  35.874  20.444  1.00  0.00     0.013 A 
HETATM    9  C   LIG     1      17.287  35.388  21.744  1.00  0.00     0.014 A 
HETATM   10  C   LIG     1      17.608  36.215  22.820  1.00  0.00    -0.018 A 
HETATM   11  C   LIG     1      17.499  35.964  24.240  1.00  0.00    -0.019 A 
HETATM   12  C   LIG     1      17.047  34.832  24.920  1.00  0.00     0.013 A 
HETATM   13  C   LIG     1      17.048  34.857  26.324  1.00  0.00     0.001 A 
HETATM   14  C   LIG     1      17.496  36.000  27.015  1.00  0.00     0.001 A 
HETATM   15  C   LIG     1      17.948  37.126  26.308  1.00  0.00     0.008 A 
HETATM   16  C   LIG     1      17.940  37.087  24.913  1.00  0.00    -0.043 A 
HETATM   17  C   LIG     1      18.373  38.164  23.962  1.00  0.00     0.080 A 
ENDROOT
TORSDOF 0
ENDMDL
MODEL 4
REMARK VINA RESULT:      -7.1      0.653      6.027
REMARK  0 active torsions:
REMARK  status: ('A' for Active; 'I' for Inactive)
ROOT
HETATM    1  C   LIG     1      17.958  36.951  22.122  1.00  0.00    -0.032 A 
HETATM    2  C   LIG     1      18.203  37.468  20.840  1.00  0.00    -0.018 A 
HETATM    3  C   LIG     1      18.098  36.674  19.687  1.00  0.00     0.013 A 
HETATM    4  C   LIG     1      18.351  37.230  18.430  1.00  0.00     0.001 A 
HETATM    5  C   LIG     1      18.709  38.576  18.313  1.00  0.00     0.001 A 
HETATM    6  C   LIG     1      18.818  39.380  19.452  1.00  0.00     0.012 A 
HETATM    7  C   LIG     1      18.567  38.839  20.723  1.00  0.00    -0.025 A 
HETATM    8  C   LIG     1      18.675  39.645  21.878  1.00  0.00     0.013 A 
HETATM    9  C   LIG     1      18.425  39.105  23.148  1.00  0.00     0.014 A 
HETATM   10  C   LIG     1      18.069  37.760  23.240  1.00  0.00    -0.018 A 
HETATM   11  C   LIG     1      17.763  36.966  24.411  1.00  0.00    -0.019 A 
HETATM   12  C   LIG     1      17.738  37.327  25.759  1.00  0.00     0.013 A 
HETATM   13  C   LIG     1      17.402  36.343  26.702  1.00  0.00     0.001 A 
HETATM   14  C   LIG     1      17.099  35.030  26.285  1.00  0.00     0.001 A 
HETATM   15  C   LIG     1      17.130  34.693  24.922  1.00  0.00     0.008 A 
HETATM   16  C   LIG     1      17.467  35.682  23.997  1.00  0.00    -0.043 A 
HETATM   17  C   LIG     1      17.562  35.549  22.505  1.00  0.00     0.080 A 
ENDROOT
TORSDOF 0
ENDMDL
MODEL 5
REMARK VINA RESULT:      -7.1      2.015      3.914
REMARK  0 active torsions:
REMARK  status: ('A' for Active; 'I' for Inactive)
ROOT
HETATM    1  C   LIG     1      16.739  35.344  22.543  1.00  0.00    -0.032 A 
HETATM    2  C   LIG     1      17.205  35.931  23.730  1.00  0.00    -0.018 A 
HETATM    3  C   LIG     1      17.271  35.215  24.936  1.00  0.00     0.013 A 
HETATM    4  C   LIG     1      17.742  35.839  26.094  1.00  0.00     0.001 A 
HETATM    5  C   LIG     1      18.150  37.176  26.060  1.00  0.00     0.001 A 
HETATM    6  C   LIG     1      18.090  37.902  24.866  1.00  0.00     0.012 A 
HETATM    7  C   LIG     1      17.620  37.291  23.693  1.00  0.00    -0.025 A 
HETATM    8  C   LIG     1      17.557  38.019  22.483  1.00  0.00     0.013 A 
HETATM    9  C   LIG     1      17.087  37.410  21.310  1.00  0.00     0.014 A 
HETATM   10  C   LIG     1      16.686  36.076  21.369  1.00  0.00    -0.018 A 
HETATM   11  C   LIG     1      16.169  35.222  20.321  1.00  0.00    -0.019 A 
HETATM   12  C   LIG     1      15.934  35.498  18.973  1.00  0.00     0.013 A 
HETATM   13  C   LIG     1      15.420  34.469  18.166  1.00  0.00     0.001 A 
HETATM   14  C   LIG     1      15.156  33.198  18.715  1.00  0.00     0.001 A 
HETATM   15  C   LIG     1      15.403  32.946  20.075  1.00  0.00     0.008 A 
HETATM   16  C   LIG     1      15.912  33.978  20.864  1.00  0.00    -0.043 A 
HETATM   17  C   LIG     1      16.249  33.936  22.325  1.00  0.00     0.080 A 
ENDROOT
TORSDOF 0
ENDMDL
MODEL 6
REMARK VINA RESULT:      -7.0     18.023     18.892
REMARK  0 active torsions:
REMARK  status: ('A' for Active; 'I' for Inactive)
ROOT
HETATM    1  C   LIG     1       3.804  41.956  33.226  1.00  0.00    -0.032 A 
HETATM    2  C   LIG     1       4.059  41.012  34.234  1.00  0.00    -0.018 A 
HETATM    3  C   LIG     1       4.023  39.631  33.983  1.00  0.00     0.013 A 
HETATM    4  C   LIG     1       4.284  38.727  35.017  1.00  0.00     0.001 A 
HETATM    5  C   LIG     1       4.581  39.190  36.301  1.00  0.00     0.001 A 
HETATM    6  C   LIG     1       4.620  40.562  36.566  1.00  0.00     0.012 A 
HETATM    7  C   LIG     1       4.361  41.486  35.541  1.00  0.00    -0.025 A 
HETATM    8  C   LIG     1       4.399  42.874  35.801  1.00  0.00     0.013 A 
HETATM    9  C   LIG     1       4.141  43.797  34.777  1.00  0.00     0.014 A 
HETATM   10  C   LIG     1       3.847  43.312  33.504  1.00  0.00    -0.018 A 
HETATM   11  C   LIG     1       3.545  44.037  32.288  1.00  0.00    -0.019 A 
HETATM   12  C   LIG     1       3.468  45.411  32.059  1.00  0.00     0.013 A 
HETATM   13  C   LIG     1       3.152  45.850  30.763  1.00  0.00     0.001 A 
HETATM   14  C   LIG     1       2.923  44.917  29.731  1.00  0.00     0.001 A 
HETATM   15  C   LIG     1       3.008  43.539  29.988  1.00  0.00     0.008 A 
HETATM   16  C   LIG     1       3.322  43.119  31.281  1.00  0.00    -0.043 A 
HETATM   17  C   LIG     1       3.464  41.710  31.778  1.00  0.00     0.080 A 
ENDROOT
TORSDOF 0
ENDMDL
MODEL 7
REMARK VINA RESULT:      -7.0      0.589      2.393
REMARK  0 active torsions:
REMARK  status: ('A' for Active; 'I' for Inactive)
ROOT
HETATM    1  C   LIG     1      17.873  36.834  22.526  1.00  0.00    -0.032 A 
HETATM    2  C   LIG     1      17.625  36.373  23.829  1.00  0.00    -0.018 A 
HETATM    3  C   LIG     1      17.308  35.032  24.094  1.00  0.00     0.013 A 
HETATM    4  C   LIG     1      17.068  34.617  25.407  1.00  0.00     0.001 A 
HETATM    5  C   LIG     1      17.141  35.531  26.461  1.00  0.00     0.001 A 
HETATM    6  C   LIG     1      17.455  36.871  26.213  1.00  0.00     0.012 A 
HETATM    7  C   LIG     1      17.700  37.306  24.901  1.00  0.00    -0.025 A 
HETATM    8  C   LIG     1      18.018  38.659  24.642  1.00  0.00     0.013 A 
HETATM    9  C   LIG     1      18.263  39.094  23.332  1.00  0.00     0.014 A 
HETATM   10  C   LIG     1      18.184  38.164  22.297  1.00  0.00    -0.018 A 
HETATM   11  C   LIG     1      18.386  38.347  20.876  1.00  0.00    -0.019 A 
HETATM   12  C   LIG     1      18.715  39.497  20.157  1.00  0.00     0.013 A 
HETATM   13  C   LIG     1      18.853  39.391  18.764  1.00  0.00     0.001 A 
HETATM   14  C   LIG     1      18.663  38.150  18.122  1.00  0.00     0.001 A 
HETATM   15  C   LIG     1      18.334  37.007  18.868  1.00  0.00     0.008 A 
HETATM   16  C   LIG     1      18.199  37.129  20.252  1.00  0.00    -0.043 A 
HETATM   17  C   LIG     1      17.856  36.052  21.239  1.00  0.00     0.080 A 
ENDROOT
TORSDOF 0
ENDMDL
MODEL 8
REMARK VINA RESULT:      -6.6      2.573      4.964
REMARK  0 active torsions:
REMARK  status: ('A' for Active; 'I' for Inactive)
ROOT
HETATM    1  C   LIG     1      16.766  35.880  20.608  1.00  0.00    -0.032 A 
HETATM    2  C   LIG     1      17.377  36.980  21.229  1.00  0.00    -0.018 A 
HETATM    3  C   LIG     1      17.925  38.040  20.489  1.00  0.00     0.013 A 
HETATM    4  C   LIG     1      18.525  39.116  21.150  1.00  0.00     0.001 A 
HETATM    5  C   LIG     1      18.581  39.145  22.545  1.00  0.00     0.001 A 
HETATM    6  C   LIG     1      18.039  38.097  23.296  1.00  0.00     0.012 A 
HETATM    7  C   LIG     1      17.433  37.008  22.651  1.00  0.00    -0.025 A 
HETATM    8  C   LIG     1      16.884  35.945  23.402  1.00  0.00     0.013 A 
HETATM    9  C   LIG     1      16.278  34.857  22.759  1.00  0.00     0.014 A 
HETATM   10  C   LIG     1      16.233  34.850  21.365  1.00  0.00    -0.018 A 
HETATM   11  C   LIG     1      15.676  33.862  20.466  1.00  0.00    -0.019 A 
HETATM   12  C   LIG     1      15.033  32.656  20.745  1.00  0.00     0.013 A 
HETATM   13  C   LIG     1      14.584  31.879  19.665  1.00  0.00     0.001 A 
HETATM   14  C   LIG     1      14.782  32.319  18.340  1.00  0.00     0.001 A 
HETATM   15  C   LIG     1      15.430  33.538  18.086  1.00  0.00     0.008 A 
HETATM   16  C   LIG     1      15.872  34.298  19.170  1.00  0.00    -0.043 A 
HETATM   17  C   LIG     1      16.582  35.620  19.135  1.00  0.00     0.080 A 
ENDROOT
TORSDOF 0
ENDMDL
MODEL 9
REMARK VINA RESULT:      -6.3      5.801      7.484
REMARK  0 active torsions:
REMARK  status: ('A' for Active; 'I' for Inactive)
ROOT
HETATM    1  C   LIG     1      15.484  33.151  17.623  1.00  0.00    -0.032 A 
HETATM    2  C   LIG     1      15.486  33.745  18.895  1.00  0.00    -0.018 A 
HETATM    3  C   LIG     1      16.023  35.023  19.117  1.00  0.00     0.013 A 
HETATM    4  C   LIG     1      16.003  35.576  20.400  1.00  0.00     0.001 A 
HETATM    5  C   LIG     1      15.450  34.863  21.468  1.00  0.00     0.001 A 
HETATM    6  C   LIG     1      14.910  33.590  21.263  1.00  0.00     0.012 A 
HETATM    7  C   LIG     1      14.921  33.018  19.980  1.00  0.00    -0.025 A 
HETATM    8  C   LIG     1      14.379  31.731  19.766  1.00  0.00     0.013 A 
HETATM    9  C   LIG     1      14.389  31.159  18.485  1.00  0.00     0.014 A 
HETATM   10  C   LIG     1      14.946  31.888  17.436  1.00  0.00    -0.018 A 
HETATM   11  C   LIG     1      15.083  31.536  16.039  1.00  0.00    -0.019 A 
HETATM   12  C   LIG     1      14.696  30.378  15.364  1.00  0.00     0.013 A 
HETATM   13  C   LIG     1      14.953  30.297  13.986  1.00  0.00     0.001 A 
HETATM   14  C   LIG     1      15.584  31.365  13.315  1.00  0.00     0.001 A 
HETATM   15  C   LIG     1      15.963  32.520  14.018  1.00  0.00     0.008 A 
HETATM   16  C   LIG     1      15.701  32.585  15.387  1.00  0.00    -0.043 A 
HETATM   17  C   LIG     1      16.015  33.710  16.329  1.00  0.00     0.080 A 
ENDROOT
TORSDOF 0
ENDMDL
MODEL 10
REMARK VINA RESULT:      -6.3      4.167      6.809
REMARK  0 active torsions:
REMARK  status: ('A' for Active; 'I' for Inactive)
ROOT
HETATM    1  C   LIG     1      15.682  34.012  19.144  1.00  0.00    -0.032 A 
HETATM    2  C   LIG     1      15.184  33.150  18.153  1.00  0.00    -0.018 A 
HETATM    3  C   LIG     1      15.283  33.455  16.786  1.00  0.00     0.013 A 
HETATM    4  C   LIG     1      14.773  32.568  15.834  1.00  0.00     0.001 A 
HETATM    5  C   LIG     1      14.165  31.375  16.234  1.00  0.00     0.001 A 
HETATM    6  C   LIG     1      14.059  31.057  17.592  1.00  0.00     0.012 A 
HETATM    7  C   LIG     1      14.565  31.936  18.563  1.00  0.00    -0.025 A 
HETATM    8  C   LIG     1      14.462  31.622  19.937  1.00  0.00     0.013 A 
HETATM    9  C   LIG     1      14.967  32.499  20.907  1.00  0.00     0.014 A 
HETATM   10  C   LIG     1      15.569  33.683  20.484  1.00  0.00    -0.018 A 
HETATM   11  C   LIG     1      16.162  34.745  21.267  1.00  0.00    -0.019 A 
HETATM   12  C   LIG     1      16.294  34.876  22.650  1.00  0.00     0.013 A 
HETATM   13  C   LIG     1      16.922  36.028  23.150  1.00  0.00     0.001 A 
HETATM   14  C   LIG     1      17.402  37.017  22.269  1.00  0.00     0.001 A 
HETATM   15  C   LIG     1      17.258  36.862  20.880  1.00  0.00     0.008 A 
HETATM   16  C   LIG     1      16.631  35.712  20.398  1.00  0.00    -0.043 A 
HETATM   17  C   LIG     1      16.371  35.340  18.968  1.00  0.00     0.080 A 
ENDROOT
TORSDOF 0
ENDMDL
MODEL 11
REMARK VINA RESULT:      -6.3      8.935     11.151
REMARK  0 active torsions:
REMARK  status: ('A' for Active; 'I' for Inactive)
ROOT
HETATM    1  C   LIG     1      14.965  30.887  14.941  1.00  0.00    -0.032 A 
HETATM    2  C   LIG     1      15.160  32.097  15.626  1.00  0.00    -0.018 A 
HETATM    3  C   LIG     1      16.335  32.852  15.478  1.00  0.00     0.013 A 
HETATM    4  C   LIG     1      16.487  34.051  16.179  1.00  0.00     0.001 A 
HETATM    5  C   LIG     1      15.475  34.506  17.028  1.00  0.00     0.001 A 
HETATM    6  C   LIG     1      14.299  33.766  17.185  1.00  0.00     0.012 A 
HETATM    7  C   LIG     1      14.128  32.559  16.489  1.00  0.00    -0.025 A 
HETATM    8  C   LIG     1      12.943  31.805  16.643  1.00  0.00     0.013 A 
HETATM    9  C   LIG     1      12.771  30.599  15.948  1.00  0.00     0.014 A 
HETATM   10  C   LIG     1      13.795  30.165  15.107  1.00  0.00    -0.018 A 
HETATM   11  C   LIG     1      13.872  28.974  14.289  1.00  0.00    -0.019 A 
HETATM   12  C   LIG     1      12.949  27.942  14.116  1.00  0.00     0.013 A 
HETATM   13  C   LIG     1      13.285  26.891  13.248  1.00  0.00     0.001 A 
HETATM   14  C   LIG     1      14.523  26.892  12.574  1.00  0.00     0.001 A 
HETATM   15  C   LIG     1      15.434  27.944  12.763  1.00  0.00     0.008 A 
HETATM   16  C   LIG     1      15.087  28.980  13.631  1.00  0.00    -0.043 A 
HETATM   17  C   LIG     1      15.897  30.194  13.981  1.00  0.00     0.080 A 
ENDROOT
TORSDOF 0
ENDMDL
MODEL 12
REMARK VINA RESULT:      -6.1     16.514     17.478
REMARK  0 active torsions:
REMARK  status: ('A' for Active; 'I' for Inactive)
ROOT
HETATM    1  C   LIG     1      27.241  29.444  34.649  1.00  0.00    -0.032 A 
HETATM    2  C   LIG     1      27.158  30.219  35.817  1.00  0.00    -0.018 A 
HETATM    3  C   LIG     1      26.091  30.088  36.720  1.00  0.00     0.013 A 
HETATM    4  C   LIG     1      26.048  30.881  37.870  1.00  0.00     0.001 A 
HETATM    5  C   LIG     1      27.064  31.805  38.129  1.00  0.00     0.001 A 
HETATM    6  C   LIG     1      28.134  31.946  37.240  1.00  0.00     0.012 A 
HETATM    7  C   LIG     1      28.194  31.159  36.078  1.00  0.00    -0.025 A 
HETATM    8  C   LIG     1      29.271  31.297  35.175  1.00  0.00     0.013 A 
HETATM    9  C   LIG     1      29.332  30.511  34.015  1.00  0.00     0.014 A 
HETATM   10  C   LIG     1      28.307  29.596  33.778  1.00  0.00    -0.018 A 
HETATM   11  C   LIG     1      28.129  28.678  32.674  1.00  0.00    -0.019 A 
HETATM   12  C   LIG     1      28.929  28.457  31.552  1.00  0.00     0.013 A 
HETATM   13  C   LIG     1      28.514  27.490  30.622  1.00  0.00     0.001 A 
HETATM   14  C   LIG     1      27.320  26.770  30.828  1.00  0.00     0.001 A 
HETATM   15  C   LIG     1      26.533  27.010  31.966  1.00  0.00     0.008 A 
HETATM   16  C   LIG     1      26.958  27.974  32.881  1.00  0.00    -0.043 A 
HETATM   17  C   LIG     1      26.283  28.393  34.154  1.00  0.00     0.080 A 
ENDROOT
TORSDOF 0
ENDMDL
MODEL 13
REMARK VINA RESULT:      -6.0      1.772      5.752
REMARK  0 active torsions:
REMARK  status: ('A' for Active; 'I' for Inactive)
ROOT
HETATM    1  C   LIG     1      16.783  35.196  22.650  1.00  0.00    -0.032 A 
HETATM    2  C   LIG     1      16.320  34.777  21.393  1.00  0.00    -0.018 A 
HETATM    3  C   LIG     1      15.756  33.506  21.195  1.00  0.00     0.013 A 
HETATM    4  C   LIG     1      15.308  33.130  19.926  1.00  0.00     0.001 A 
HETATM    5  C   LIG     1      15.417  34.013  18.849  1.00  0.00     0.001 A 
HETATM    6  C   LIG     1      15.976  35.282  19.029  1.00  0.00     0.012 A 
HETATM    7  C   LIG     1      16.432  35.678  20.297  1.00  0.00    -0.025 A 
HETATM    8  C   LIG     1      16.998  36.958  20.488  1.00  0.00     0.013 A 
HETATM    9  C   LIG     1      17.453  37.354  21.753  1.00  0.00     0.014 A 
HETATM   10  C   LIG     1      17.334  36.456  22.813  1.00  0.00    -0.018 A 
HETATM   11  C   LIG     1      17.719  36.610  24.199  1.00  0.00    -0.019 A 
HETATM   12  C   LIG     1      18.311  37.693  24.852  1.00  0.00     0.013 A 
HETATM   13  C   LIG     1      18.581  37.572  26.224  1.00  0.00     0.001 A 
HETATM   14  C   LIG     1      18.258  36.385  26.912  1.00  0.00     0.001 A 
HETATM   15  C   LIG     1      17.662  35.310  26.233  1.00  0.00     0.008 A 
HETATM   16  C   LIG     1      17.400  35.445  24.869  1.00  0.00    -0.043 A 
HETATM   17  C   LIG     1      16.776  34.436  23.951  1.00  0.00     0.080 A 
ENDROOT
TORSDOF 0
ENDMDL
MODEL 14
REMARK VINA RESULT:      -5.9     15.018     16.178
REMARK  0 active torsions:
REMARK  status: ('A' for Active; 'I' for Inactive)
ROOT
HETATM    1  C   LIG     1      25.815  23.782  19.560  1.00  0.00    -0.032 A 
HETATM    2  C   LIG     1      24.875  22.924  20.152  1.00  0.00    -0.018 A 
HETATM    3  C   LIG     1      24.153  23.292  21.298  1.00  0.00     0.013 A 
HETATM    4  C   LIG     1      23.226  22.406  21.855  1.00  0.00     0.001 A 
HETATM    5  C   LIG     1      23.013  21.152  21.277  1.00  0.00     0.001 A 
HETATM    6  C   LIG     1      23.725  20.771  20.135  1.00  0.00     0.012 A 
HETATM    7  C   LIG     1      24.659  21.648  19.561  1.00  0.00    -0.025 A 
HETATM    8  C   LIG     1      25.382  21.269  18.408  1.00  0.00     0.013 A 
HETATM    9  C   LIG     1      26.316  22.144  17.834  1.00  0.00     0.014 A 
HETATM   10  C   LIG     1      26.511  23.390  18.429  1.00  0.00    -0.018 A 
HETATM   11  C   LIG     1      27.402  24.465  18.045  1.00  0.00    -0.019 A 
HETATM   12  C   LIG     1      28.301  24.549  16.981  1.00  0.00     0.013 A 
HETATM   13  C   LIG     1      29.052  25.727  16.840  1.00  0.00     0.001 A 
HETATM   14  C   LIG     1      28.891  26.788  17.754  1.00  0.00     0.001 A 
HETATM   15  C   LIG     1      27.978  26.679  18.815  1.00  0.00     0.008 A 
HETATM   16  C   LIG     1      27.240  25.502  18.943  1.00  0.00    -0.043 A 
HETATM   17  C   LIG     1      26.218  25.169  19.990  1.00  0.00     0.080 A 
ENDROOT
TORSDOF 0
ENDMDL
MODEL 15
REMARK VINA RESULT:      -5.9     11.009     13.310
REMARK  0 active torsions:
REMARK  status: ('A' for Active; 'I' for Inactive)
ROOT
HETATM    1  C   LIG     1      13.290  28.698  14.038  1.00  0.00    -0.032 A 
HETATM    2  C   LIG     1      13.009  27.590  13.223  1.00  0.00    -0.018 A 
HETATM    3  C   LIG     1      11.715  27.055  13.119  1.00  0.00     0.013 A 
HETATM    4  C   LIG     1      11.480  25.951  12.295  1.00  0.00     0.001 A 
HETATM    5  C   LIG     1      12.526  25.375  11.570  1.00  0.00     0.001 A 
HETATM    6  C   LIG     1      13.820  25.897  11.663  1.00  0.00     0.012 A 
HETATM    7  C   LIG     1      14.076  27.006  12.486  1.00  0.00    -0.025 A 
HETATM    8  C   LIG     1      15.381  27.538  12.584  1.00  0.00     0.013 A 
HETATM    9  C   LIG     1      15.637  28.645  13.406  1.00  0.00     0.014 A 
HETATM   10  C   LIG     1      14.577  29.203  14.119  1.00  0.00    -0.018 A 
HETATM   11  C   LIG     1      14.569  30.332  15.025  1.00  0.00    -0.019 A 
HETATM   12  C   LIG     1      15.612  31.166  15.430  1.00  0.00     0.013 A 
HETATM   13  C   LIG     1      15.320  32.201  16.332  1.00  0.00     0.001 A 
HETATM   14  C   LIG     1      14.006  32.382  16.808  1.00  0.00     0.001 A 
HETATM   15  C   LIG     1      12.973  31.530  16.384  1.00  0.00     0.008 A 
HETATM   16  C   LIG     1      13.279  30.505  15.488  1.00  0.00    -0.043 A 
HETATM   17  C   LIG     1      12.344  29.485  14.906  1.00  0.00     0.080 A 
ENDROOT
TORSDOF 0
ENDMDL
MODEL 16
REMARK VINA RESULT:      -5.9     16.477     17.963
REMARK  0 active torsions:
REMARK  status: ('A' for Active; 'I' for Inactive)
ROOT
HETATM    1  C   LIG     1      27.374  29.327  34.191  1.00  0.00    -0.032 A 
HETATM    2  C   LIG     1      27.606  28.602  33.011  1.00  0.00    -0.018 A 
HETATM    3  C   LIG     1      26.673  27.681  32.511  1.00  0.00     0.013 A 
HETATM    4  C   LIG     1      26.945  26.980  31.332  1.00  0.00     0.001 A 
HETATM    5  C   LIG     1      28.144  27.192  30.647  1.00  0.00     0.001 A 
HETATM    6  C   LIG     1      29.084  28.106  31.133  1.00  0.00     0.012 A 
HETATM    7  C   LIG     1      28.828  28.819  32.315  1.00  0.00    -0.025 A 
HETATM    8  C   LIG     1      29.773  29.744  32.812  1.00  0.00     0.013 A 
HETATM    9  C   LIG     1      29.518  30.457  33.992  1.00  0.00     0.014 A 
HETATM   10  C   LIG     1      28.315  30.229  34.659  1.00  0.00    -0.018 A 
HETATM   11  C   LIG     1      27.811  30.822  35.880  1.00  0.00    -0.019 A 
HETATM   12  C   LIG     1      28.387  31.778  36.717  1.00  0.00     0.013 A 
HETATM   13  C   LIG     1      27.669  32.182  37.854  1.00  0.00     0.001 A 
HETATM   14  C   LIG     1      26.401  31.629  38.129  1.00  0.00     0.001 A 
HETATM   15  C   LIG     1      25.843  30.669  37.270  1.00  0.00     0.008 A 
HETATM   16  C   LIG     1      26.570  30.277  36.145  1.00  0.00    -0.043 A 
HETATM   17  C   LIG     1      26.173  29.277  35.099  1.00  0.00     0.080 A 
ENDROOT
TORSDOF 0
ENDMDL
MODEL 17
REMARK VINA RESULT:      -5.8     15.588     17.484
REMARK  0 active torsions:
REMARK  status: ('A' for Active; 'I' for Inactive)
ROOT
HETATM    1  C   LIG     1      24.790  22.282  19.221  1.00  0.00    -0.032 A 
HETATM    2  C   LIG     1      25.629  23.379  19.477  1.00  0.00    -0.018 A 
HETATM    3  C   LIG     1      25.865  24.372  18.513  1.00  0.00     0.013 A 
HETATM    4  C   LIG     1      26.708  25.447  18.810  1.00  0.00     0.001 A 
HETATM    5  C   LIG     1      27.318  25.541  20.064  1.00  0.00     0.001 A 
HETATM    6  C   LIG     1      27.092  24.559  21.034  1.00  0.00     0.012 A 
HETATM    7  C   LIG     1      26.248  23.472  20.754  1.00  0.00    -0.025 A 
HETATM    8  C   LIG     1      26.015  22.477  21.729  1.00  0.00     0.013 A 
HETATM    9  C   LIG     1      25.173  21.391  21.451  1.00  0.00     0.014 A 
HETATM   10  C   LIG     1      24.576  21.319  20.193  1.00  0.00    -0.018 A 
HETATM   11  C   LIG     1      23.679  20.319  19.655  1.00  0.00    -0.019 A 
HETATM   12  C   LIG     1      23.168  19.161  20.243  1.00  0.00     0.013 A 
HETATM   13  C   LIG     1      22.304  18.357  19.483  1.00  0.00     0.001 A 
HETATM   14  C   LIG     1      21.968  18.722  18.163  1.00  0.00     0.001 A 
HETATM   15  C   LIG     1      22.495  19.893  17.594  1.00  0.00     0.008 A 
HETATM   16  C   LIG     1      23.354  20.681  18.362  1.00  0.00    -0.043 A 
HETATM   17  C   LIG     1      24.027  21.961  17.963  1.00  0.00     0.080 A 
ENDROOT
TORSDOF 0
ENDMDL
MODEL 18
REMARK VINA RESULT:      -5.7     17.446     20.078
REMARK  0 active torsions:
REMARK  status: ('A' for Active; 'I' for Inactive)
ROOT
HETATM    1  C   LIG     1      20.752  21.023  33.348  1.00  0.00    -0.032 A 
HETATM    2  C   LIG     1      20.217  20.523  32.150  1.00  0.00    -0.018 A 
HETATM    3  C   LIG     1      20.389  19.185  31.762  1.00  0.00     0.013 A 
HETATM    4  C   LIG     1      19.839  18.729  30.561  1.00  0.00     0.001 A 
HETATM    5  C   LIG     1      19.116  19.600  29.741  1.00  0.00     0.001 A 
HETATM    6  C   LIG     1      18.936  20.935  30.114  1.00  0.00     0.012 A 
HETATM    7  C   LIG     1      19.481  21.411  31.317  1.00  0.00    -0.025 A 
HETATM    8  C   LIG     1      19.303  22.759  31.700  1.00  0.00     0.013 A 
HETATM    9  C   LIG     1      19.846  23.235  32.902  1.00  0.00     0.014 A 
HETATM   10  C   LIG     1      20.564  22.348  33.704  1.00  0.00    -0.018 A 
HETATM   11  C   LIG     1      21.220  22.578  34.973  1.00  0.00    -0.019 A 
HETATM   12  C   LIG     1      21.312  23.741  35.738  1.00  0.00     0.013 A 
HETATM   13  C   LIG     1      22.020  23.683  36.950  1.00  0.00     0.001 A 
HETATM   14  C   LIG     1      22.614  22.476  37.370  1.00  0.00     0.001 A 
HETATM   15  C   LIG     1      22.506  21.318  36.583  1.00  0.00     0.008 A 
HETATM   16  C   LIG     1      21.800  21.392  35.381  1.00  0.00    -0.043 A 
HETATM   17  C   LIG     1      21.559  20.292  34.389  1.00  0.00     0.080 A 
ENDROOT
TORSDOF 0
ENDMDL
MODEL 19
REMARK VINA RESULT:      -5.6     15.917     16.483
REMARK  0 active torsions:
REMARK  status: ('A' for Active; 'I' for Inactive)
ROOT
HETATM    1  C   LIG     1      24.523  22.268  22.722  1.00  0.00    -0.032 A 
HETATM    2  C   LIG     1      24.630  22.318  24.121  1.00  0.00    -0.018 A 
HETATM    3  C   LIG     1      25.495  23.215  24.768  1.00  0.00     0.013 A 
HETATM    4  C   LIG     1      25.570  23.231  26.163  1.00  0.00     0.001 A 
HETATM    5  C   LIG     1      24.787  22.357  26.922  1.00  0.00     0.001 A 
HETATM    6  C   LIG     1      23.920  21.458  26.293  1.00  0.00     0.012 A 
HETATM    7  C   LIG     1      23.831  21.428  24.892  1.00  0.00    -0.025 A 
HETATM    8  C   LIG     1      22.959  20.522  24.249  1.00  0.00     0.013 A 
HETATM    9  C   LIG     1      22.869  20.491  22.850  1.00  0.00     0.014 A 
HETATM   10  C   LIG     1      23.660  21.372  22.114  1.00  0.00    -0.018 A 
HETATM   11  C   LIG     1      23.760  21.543  20.681  1.00  0.00    -0.019 A 
HETATM   12  C   LIG     1      23.094  20.879  19.649  1.00  0.00     0.013 A 
HETATM   13  C   LIG     1      23.385  21.251  18.326  1.00  0.00     0.001 A 
HETATM   14  C   LIG     1      24.324  22.269  18.062  1.00  0.00     0.001 A 
HETATM   15  C   LIG     1      24.979  22.922  19.118  1.00  0.00     0.008 A 
HETATM   16  C   LIG     1      24.680  22.542  20.427  1.00  0.00    -0.043 A 
HETATM   17  C   LIG     1      25.253  23.097  21.698  1.00  0.00     0.080 A 
ENDROOT
TORSDOF 0
ENDMDL
MODEL 20
REMARK VINA RESULT:      -5.5     15.218     17.142
REMARK  0 active torsions:
REMARK  status: ('A' for Active; 'I' for Inactive)
ROOT
HETATM    1  C   LIG     1      26.841  23.813  18.274  1.00  0.00    -0.032 A 
HETATM    2  C   LIG     1      27.810  24.587  17.615  1.00  0.00    -0.018 A 
HETATM    3  C   LIG     1      28.398  24.171  16.410  1.00  0.00     0.013 A 
HETATM    4  C   LIG     1      29.359  24.972  15.788  1.00  0.00     0.001 A 
HETATM    5  C   LIG     1      29.739  26.190  16.359  1.00  0.00     0.001 A 
HETATM    6  C   LIG     1      29.162  26.619  17.558  1.00  0.00     0.012 A 
HETATM    7  C   LIG     1      28.195  25.827  18.198  1.00  0.00    -0.025 A 
HETATM    8  C   LIG     1      27.608  26.253  19.410  1.00  0.00     0.013 A 
HETATM    9  C   LIG     1      26.642  25.463  20.049  1.00  0.00     0.014 A 
HETATM   10  C   LIG     1      26.279  24.252  19.461  1.00  0.00    -0.018 A 
HETATM   11  C   LIG     1      25.323  23.261  19.907  1.00  0.00    -0.019 A 
HETATM   12  C   LIG     1      24.507  23.246  21.039  1.00  0.00     0.013 A 
HETATM   13  C   LIG     1      23.659  22.143  21.231  1.00  0.00     0.001 A 
HETATM   14  C   LIG     1      23.642  21.087  20.297  1.00  0.00     0.001 A 
HETATM   15  C   LIG     1      24.472  21.127  19.165  1.00  0.00     0.008 A 
HETATM   16  C   LIG     1      25.310  22.229  18.989  1.00  0.00    -0.043 A 
HETATM   17  C   LIG     1      26.272  22.480  17.865  1.00  0.00     0.080 A 
ENDROOT
TORSDOF 0
ENDMDL
