REMARK  8 active torsions:
REMARK  status: ('A' for Active; 'I' for Inactive)
REMARK    1  A    between atoms: O_1  and  C_2 
REMARK    2  A    between atoms: C_2  and  C_4 
REMARK    3  A    between atoms: C_4  and  C_5 
REMARK    4  A    between atoms: C_5  and  C_10 
REMARK    5  A    between atoms: C_5  and  C_7 
REMARK    6  A    between atoms: C_7  and  O_9 
REMARK    7  A    between atoms: C_10  and  C_13 
REMARK    8  A    between atoms: C_13  and  O_15 
ROOT
HETATM    1  C   LIG     1       0.360  -0.574  -0.412  1.00  0.00     0.068 C 
HETATM    2  C   LIG     1       0.140  -1.077  -1.877  1.00  0.00     0.028 C 
ENDROOT
BRANCH   1   3
HETATM    3  C   LIG     1       1.788   0.091  -0.441  1.00  0.00     0.131 C 
BRANCH   3   4
HETATM    4  C   LIG     1       2.348   0.637   0.848  1.00  0.00     0.140 C 
HETATM    5  O   LIG     1       2.823  -0.144   1.712  1.00  0.00    -0.650 OA
BRANCH   4   6
HETATM    6  O   LIG     1       2.441   2.011   1.062  1.00  0.00    -0.776 OA
HETATM    7  H   LIG     1       2.152   2.681   0.361  1.00  0.00     0.167 HD
ENDBRANCH   4   6
ENDBRANCH   3   4
ENDBRANCH   1   3
BRANCH   1   8
HETATM    8  C   LIG     1      -0.843   0.418  -0.009  1.00  0.00     0.056 C 
HETATM    9  C   LIG     1      -0.807   1.732  -0.842  1.00  0.00     0.027 C 
HETATM   10  C   LIG     1      -0.835   0.846   1.483  1.00  0.00     0.027 C 
BRANCH   8  11
HETATM   11  C   LIG     1      -2.186  -0.276  -0.233  1.00  0.00     0.149 C 
HETATM   12  O   LIG     1      -2.999   0.140  -1.104  1.00  0.00    -0.649 OA
BRANCH  11  13
HETATM   13  O   LIG     1      -2.528  -1.391   0.530  1.00  0.00    -0.776 OA
HETATM   14  H   LIG     1      -3.412  -1.865   0.391  1.00  0.00     0.167 HD
ENDBRANCH  11  13
ENDBRANCH   8  11
ENDBRANCH   1   8
BRANCH   1  15
HETATM   15  C   LIG     1       0.392  -1.809   0.500  1.00  0.00     0.150 C 
HETATM   16  O   LIG     1       0.135  -2.958   0.043  1.00  0.00    -0.649 OA
BRANCH  15  17
HETATM   17  O   LIG     1       0.698  -1.694   1.852  1.00  0.00    -0.776 OA
HETATM   18  H   LIG     1       0.716  -2.508   2.455  1.00  0.00     0.167 HD
ENDBRANCH  15  17
ENDBRANCH   1  15
TORSDOF 8
