MODEL 1
REMARK VINA RESULT:      -5.5      0.000      0.000
REMARK  8 active torsions:
REMARK  status: ('A' for Active; 'I' for Inactive)
REMARK    1  A    between atoms: O_1  and  C_2 
REMARK    2  A    between atoms: C_2  and  C_4 
REMARK    3  A    between atoms: C_4  and  C_5 
REMARK    4  A    between atoms: C_5  and  C_10 
REMARK    5  A    between atoms: C_5  and  C_7 
REMARK    6  A    between atoms: C_7  and  O_9 
REMARK    7  A    between atoms: C_10  and  C_13 
REMARK    8  A    between atoms: C_13  and  O_15 
ROOT
HETATM    1  C   LIG     1      16.948  36.379  21.610  1.00  0.00     0.068 C 
HETATM    2  C   LIG     1      17.392  35.197  22.534  1.00  0.00     0.028 C 
ENDROOT
BRANCH   1   3
HETATM    3  C   LIG     1      15.449  36.050  21.252  1.00  0.00     0.131 C 
BRANCH   3   4
HETATM    4  C   LIG     1      15.081  34.615  20.972  1.00  0.00     0.140 C 
HETATM    5  O   LIG     1      15.750  33.940  20.148  1.00  0.00    -0.650 OA
BRANCH   4   6
HETATM    6  O   LIG     1      14.064  33.985  21.687  1.00  0.00    -0.776 OA
HETATM    7  H   LIG     1      14.083  32.992  21.879  1.00  0.00     0.167 HD
ENDBRANCH   4   6
ENDBRANCH   3   4
ENDBRANCH   1   3
BRANCH   1   8
HETATM    8  C   LIG     1      17.170  37.771  22.390  1.00  0.00     0.056 C 
HETATM    9  C   LIG     1      17.701  38.883  21.441  1.00  0.00     0.027 C 
HETATM   10  C   LIG     1      18.179  37.681  23.566  1.00  0.00     0.027 C 
BRANCH   8  11
HETATM   11  C   LIG     1      15.852  38.234  23.011  1.00  0.00     0.149 C 
HETATM   12  O   LIG     1      15.409  37.709  24.069  1.00  0.00    -0.649 OA
BRANCH  11  13
HETATM   13  O   LIG     1      15.121  39.256  22.408  1.00  0.00    -0.776 OA
HETATM   14  H   LIG     1      15.541  40.160  22.230  1.00  0.00     0.167 HD
ENDBRANCH  11  13
ENDBRANCH   8  11
ENDBRANCH   1   8
BRANCH   1  15
HETATM   15  C   LIG     1      17.802  36.314  20.335  1.00  0.00     0.150 C 
HETATM   16  O   LIG     1      19.056  36.453  20.388  1.00  0.00    -0.649 OA
BRANCH  15  17
HETATM   17  O   LIG     1      17.217  36.107  19.090  1.00  0.00    -0.776 OA
HETATM   18  H   LIG     1      17.695  35.581  18.368  1.00  0.00     0.167 HD
ENDBRANCH  15  17
ENDBRANCH   1  15
TORSDOF 8
ENDMDL
MODEL 2
REMARK VINA RESULT:      -5.3      1.310      2.144
REMARK  8 active torsions:
REMARK  status: ('A' for Active; 'I' for Inactive)
REMARK    1  A    between atoms: O_1  and  C_2 
REMARK    2  A    between atoms: C_2  and  C_4 
REMARK    3  A    between atoms: C_4  and  C_5 
REMARK    4  A    between atoms: C_5  and  C_10 
REMARK    5  A    between atoms: C_5  and  C_7 
REMARK    6  A    between atoms: C_7  and  O_9 
REMARK    7  A    between atoms: C_10  and  C_13 
REMARK    8  A    between atoms: C_13  and  O_15 
ROOT
HETATM    1  C   LIG     1      16.689  36.394  21.810  1.00  0.00     0.068 C 
HETATM    2  C   LIG     1      17.230  35.214  22.683  1.00  0.00     0.028 C 
ENDROOT
BRANCH   1   3
HETATM    3  C   LIG     1      15.366  35.827  21.169  1.00  0.00     0.131 C 
BRANCH   3   4
HETATM    4  C   LIG     1      15.216  34.332  21.045  1.00  0.00     0.140 C 
HETATM    5  O   LIG     1      14.342  33.727  21.716  1.00  0.00    -0.650 OA
BRANCH   4   6
HETATM    6  O   LIG     1      15.969  33.612  20.119  1.00  0.00    -0.776 OA
HETATM    7  H   LIG     1      16.970  33.732  20.036  1.00  0.00     0.167 HD
ENDBRANCH   4   6
ENDBRANCH   3   4
ENDBRANCH   1   3
BRANCH   1   8
HETATM    8  C   LIG     1      16.488  37.691  22.744  1.00  0.00     0.056 C 
HETATM    9  C   LIG     1      15.006  37.856  23.187  1.00  0.00     0.027 C 
HETATM   10  C   LIG     1      16.893  39.027  22.064  1.00  0.00     0.027 C 
BRANCH   8  11
HETATM   11  C   LIG     1      17.369  37.577  23.988  1.00  0.00     0.149 C 
HETATM   12  O   LIG     1      18.545  38.035  24.000  1.00  0.00    -0.649 OA
BRANCH  11  13
HETATM   13  O   LIG     1      16.874  36.960  25.136  1.00  0.00    -0.776 OA
HETATM   14  H   LIG     1      15.882  36.962  25.340  1.00  0.00     0.167 HD
ENDBRANCH  11  13
ENDBRANCH   8  11
ENDBRANCH   1   8
BRANCH   1  15
HETATM   15  C   LIG     1      17.719  36.660  20.703  1.00  0.00     0.150 C 
HETATM   16  O   LIG     1      17.643  36.064  19.592  1.00  0.00    -0.649 OA
BRANCH  15  17
HETATM   17  O   LIG     1      18.764  37.557  20.897  1.00  0.00    -0.776 OA
HETATM   18  H   LIG     1      19.253  37.968  20.110  1.00  0.00     0.167 HD
ENDBRANCH  15  17
ENDBRANCH   1  15
TORSDOF 8
ENDMDL
MODEL 3
REMARK VINA RESULT:      -4.2      1.731      3.662
REMARK  8 active torsions:
REMARK  status: ('A' for Active; 'I' for Inactive)
REMARK    1  A    between atoms: O_1  and  C_2 
REMARK    2  A    between atoms: C_2  and  C_4 
REMARK    3  A    between atoms: C_4  and  C_5 
REMARK    4  A    between atoms: C_5  and  C_10 
REMARK    5  A    between atoms: C_5  and  C_7 
REMARK    6  A    between atoms: C_7  and  O_9 
REMARK    7  A    between atoms: C_10  and  C_13 
REMARK    8  A    between atoms: C_13  and  O_15 
ROOT
HETATM    1  C   LIG     1      17.514  37.704  22.114  1.00  0.00     0.068 C 
HETATM    2  C   LIG     1      16.651  38.995  21.928  1.00  0.00     0.028 C 
ENDROOT
BRANCH   1   3
HETATM    3  C   LIG     1      18.885  38.049  21.419  1.00  0.00     0.131 C 
BRANCH   3   4
HETATM    4  C   LIG     1      18.853  38.641  20.032  1.00  0.00     0.140 C 
HETATM    5  O   LIG     1      19.011  39.878  19.869  1.00  0.00    -0.650 OA
BRANCH   4   6
HETATM    6  O   LIG     1      18.750  37.823  18.908  1.00  0.00    -0.776 OA
HETATM    7  H   LIG     1      18.671  36.818  18.985  1.00  0.00     0.167 HD
ENDBRANCH   4   6
ENDBRANCH   3   4
ENDBRANCH   1   3
BRANCH   1   8
HETATM    8  C   LIG     1      17.617  37.360  23.684  1.00  0.00     0.056 C 
HETATM    9  C   LIG     1      18.961  37.854  24.293  1.00  0.00     0.027 C 
HETATM   10  C   LIG     1      17.522  35.845  24.006  1.00  0.00     0.027 C 
BRANCH   8  11
HETATM   11  C   LIG     1      16.459  38.016  24.436  1.00  0.00     0.149 C 
HETATM   12  O   LIG     1      15.267  37.885  24.043  1.00  0.00    -0.649 OA
BRANCH  11  13
HETATM   13  O   LIG     1      16.713  38.772  25.580  1.00  0.00    -0.776 OA
HETATM   14  H   LIG     1      17.656  38.883  25.931  1.00  0.00     0.167 HD
ENDBRANCH  11  13
ENDBRANCH   8  11
ENDBRANCH   1   8
BRANCH   1  15
HETATM   15  C   LIG     1      16.822  36.571  21.341  1.00  0.00     0.150 C 
HETATM   16  O   LIG     1      17.477  35.830  20.555  1.00  0.00    -0.649 OA
BRANCH  15  17
HETATM   17  O   LIG     1      15.458  36.337  21.480  1.00  0.00    -0.776 OA
HETATM   18  H   LIG     1      15.105  35.722  22.204  1.00  0.00     0.167 HD
ENDBRANCH  15  17
ENDBRANCH   1  15
TORSDOF 8
ENDMDL
MODEL 4
REMARK VINA RESULT:      -4.1     18.080     19.573
REMARK  8 active torsions:
REMARK  status: ('A' for Active; 'I' for Inactive)
REMARK    1  A    between atoms: O_1  and  C_2 
REMARK    2  A    between atoms: C_2  and  C_4 
REMARK    3  A    between atoms: C_4  and  C_5 
REMARK    4  A    between atoms: C_5  and  C_10 
REMARK    5  A    between atoms: C_5  and  C_7 
REMARK    6  A    between atoms: C_7  and  O_9 
REMARK    7  A    between atoms: C_10  and  C_13 
REMARK    8  A    between atoms: C_13  and  O_15 
ROOT
HETATM    1  C   LIG     1      27.006  29.498  35.885  1.00  0.00     0.068 C 
HETATM    2  C   LIG     1      25.982  30.383  35.100  1.00  0.00     0.028 C 
ENDROOT
BRANCH   1   3
HETATM    3  C   LIG     1      27.044  28.143  35.081  1.00  0.00     0.131 C 
BRANCH   3   4
HETATM    4  C   LIG     1      26.855  28.194  33.586  1.00  0.00     0.140 C 
HETATM    5  O   LIG     1      27.796  28.572  32.843  1.00  0.00    -0.650 OA
BRANCH   4   6
HETATM    6  O   LIG     1      25.679  27.733  32.998  1.00  0.00    -0.776 OA
HETATM    7  H   LIG     1      24.769  27.934  33.394  1.00  0.00     0.167 HD
ENDBRANCH   4   6
ENDBRANCH   3   4
ENDBRANCH   1   3
BRANCH   1   8
HETATM    8  C   LIG     1      28.414  30.274  35.974  1.00  0.00     0.056 C 
HETATM    9  C   LIG     1      28.487  31.189  37.231  1.00  0.00     0.027 C 
HETATM   10  C   LIG     1      28.711  31.185  34.753  1.00  0.00     0.027 C 
BRANCH   8  11
HETATM   11  C   LIG     1      29.561  29.266  36.026  1.00  0.00     0.149 C 
HETATM   12  O   LIG     1      30.317  29.084  35.032  1.00  0.00    -0.649 OA
BRANCH  11  13
HETATM   13  O   LIG     1      29.789  28.531  37.189  1.00  0.00    -0.776 OA
HETATM   14  H   LIG     1      29.514  27.559  37.251  1.00  0.00     0.167 HD
ENDBRANCH  11  13
ENDBRANCH   8  11
ENDBRANCH   1   8
BRANCH   1  15
HETATM   15  C   LIG     1      26.421  29.245  37.282  1.00  0.00     0.150 C 
HETATM   16  O   LIG     1      26.915  28.364  38.041  1.00  0.00    -0.649 OA
BRANCH  15  17
HETATM   17  O   LIG     1      25.331  29.973  37.746  1.00  0.00    -0.776 OA
HETATM   18  H   LIG     1      25.186  30.935  37.462  1.00  0.00     0.167 HD
ENDBRANCH  15  17
ENDBRANCH   1  15
TORSDOF 8
ENDMDL
MODEL 5
REMARK VINA RESULT:      -4.1     17.599     19.126
REMARK  8 active torsions:
REMARK  status: ('A' for Active; 'I' for Inactive)
REMARK    1  A    between atoms: O_1  and  C_2 
REMARK    2  A    between atoms: C_2  and  C_4 
REMARK    3  A    between atoms: C_4  and  C_5 
REMARK    4  A    between atoms: C_5  and  C_10 
REMARK    5  A    between atoms: C_5  and  C_7 
REMARK    6  A    between atoms: C_7  and  O_9 
REMARK    7  A    between atoms: C_10  and  C_13 
REMARK    8  A    between atoms: C_13  and  O_15 
ROOT
HETATM    1  C   LIG     1      27.699  29.407  34.747  1.00  0.00     0.068 C 
HETATM    2  C   LIG     1      28.348  30.711  34.175  1.00  0.00     0.028 C 
ENDROOT
BRANCH   1   3
HETATM    3  C   LIG     1      26.190  29.794  34.978  1.00  0.00     0.131 C 
BRANCH   3   4
HETATM    4  C   LIG     1      25.835  30.579  36.215  1.00  0.00     0.140 C 
HETATM    5  O   LIG     1      25.809  31.836  36.180  1.00  0.00    -0.650 OA
BRANCH   4   6
HETATM    6  O   LIG     1      25.435  29.932  37.383  1.00  0.00    -0.776 OA
HETATM    7  H   LIG     1      25.983  29.188  37.795  1.00  0.00     0.167 HD
ENDBRANCH   4   6
ENDBRANCH   3   4
ENDBRANCH   1   3
BRANCH   1   8
HETATM    8  C   LIG     1      27.940  28.199  33.709  1.00  0.00     0.056 C 
HETATM    9  C   LIG     1      29.220  27.388  34.059  1.00  0.00     0.027 C 
HETATM   10  C   LIG     1      28.102  28.657  32.235  1.00  0.00     0.027 C 
BRANCH   8  11
HETATM   11  C   LIG     1      26.736  27.258  33.719  1.00  0.00     0.149 C 
HETATM   12  O   LIG     1      26.559  26.434  34.659  1.00  0.00    -0.649 OA
BRANCH  11  13
HETATM   13  O   LIG     1      25.809  27.303  32.679  1.00  0.00    -0.776 OA
HETATM   14  H   LIG     1      24.814  27.285  32.868  1.00  0.00     0.167 HD
ENDBRANCH  11  13
ENDBRANCH   8  11
ENDBRANCH   1   8
BRANCH   1  15
HETATM   15  C   LIG     1      28.363  29.117  36.101  1.00  0.00     0.150 C 
HETATM   16  O   LIG     1      29.360  29.788  36.490  1.00  0.00    -0.649 OA
BRANCH  15  17
HETATM   17  O   LIG     1      27.889  28.106  36.930  1.00  0.00    -0.776 OA
HETATM   18  H   LIG     1      28.181  28.044  37.898  1.00  0.00     0.167 HD
ENDBRANCH  15  17
ENDBRANCH   1  15
TORSDOF 8
ENDMDL
MODEL 6
REMARK VINA RESULT:      -3.9      5.195      7.218
REMARK  8 active torsions:
REMARK  status: ('A' for Active; 'I' for Inactive)
REMARK    1  A    between atoms: O_1  and  C_2 
REMARK    2  A    between atoms: C_2  and  C_4 
REMARK    3  A    between atoms: C_4  and  C_5 
REMARK    4  A    between atoms: C_5  and  C_10 
REMARK    5  A    between atoms: C_5  and  C_7 
REMARK    6  A    between atoms: C_7  and  O_9 
REMARK    7  A    between atoms: C_10  and  C_13 
REMARK    8  A    between atoms: C_13  and  O_15 
ROOT
HETATM    1  C   LIG     1      15.143  32.603  17.088  1.00  0.00     0.068 C 
HETATM    2  C   LIG     1      13.680  32.047  17.103  1.00  0.00     0.028 C 
ENDROOT
BRANCH   1   3
HETATM    3  C   LIG     1      15.781  32.052  18.418  1.00  0.00     0.131 C 
BRANCH   3   4
HETATM    4  C   LIG     1      14.923  32.009  19.658  1.00  0.00     0.140 C 
HETATM    5  O   LIG     1      14.546  30.905  20.128  1.00  0.00    -0.650 OA
BRANCH   4   6
HETATM    6  O   LIG     1      14.618  33.175  20.357  1.00  0.00    -0.776 OA
HETATM    7  H   LIG     1      14.414  33.165  21.348  1.00  0.00     0.167 HD
ENDBRANCH   4   6
ENDBRANCH   3   4
ENDBRANCH   1   3
BRANCH   1   8
HETATM    8  C   LIG     1      15.874  32.125  15.735  1.00  0.00     0.056 C 
HETATM    9  C   LIG     1      14.914  31.311  14.820  1.00  0.00     0.027 C 
HETATM   10  C   LIG     1      17.117  31.227  15.973  1.00  0.00     0.027 C 
BRANCH   8  11
HETATM   11  C   LIG     1      16.385  33.341  14.962  1.00  0.00     0.149 C 
HETATM   12  O   LIG     1      16.233  33.432  13.713  1.00  0.00    -0.649 OA
BRANCH  11  13
HETATM   13  O   LIG     1      17.027  34.375  15.640  1.00  0.00    -0.776 OA
HETATM   14  H   LIG     1      17.040  35.315  15.263  1.00  0.00     0.167 HD
ENDBRANCH  11  13
ENDBRANCH   8  11
ENDBRANCH   1   8
BRANCH   1  15
HETATM   15  C   LIG     1      15.055  34.135  17.161  1.00  0.00     0.150 C 
HETATM   16  O   LIG     1      14.256  34.774  16.422  1.00  0.00    -0.649 OA
BRANCH  15  17
HETATM   17  O   LIG     1      15.858  34.857  18.039  1.00  0.00    -0.776 OA
HETATM   18  H   LIG     1      16.836  35.023  17.836  1.00  0.00     0.167 HD
ENDBRANCH  15  17
ENDBRANCH   1  15
TORSDOF 8
ENDMDL
MODEL 7
REMARK VINA RESULT:      -3.9      2.018      4.138
REMARK  8 active torsions:
REMARK  status: ('A' for Active; 'I' for Inactive)
REMARK    1  A    between atoms: O_1  and  C_2 
REMARK    2  A    between atoms: C_2  and  C_4 
REMARK    3  A    between atoms: C_4  and  C_5 
REMARK    4  A    between atoms: C_5  and  C_10 
REMARK    5  A    between atoms: C_5  and  C_7 
REMARK    6  A    between atoms: C_7  and  O_9 
REMARK    7  A    between atoms: C_10  and  C_13 
REMARK    8  A    between atoms: C_13  and  O_15 
ROOT
HETATM    1  C   LIG     1      16.850  37.139  23.297  1.00  0.00     0.068 C 
HETATM    2  C   LIG     1      17.380  35.685  23.065  1.00  0.00     0.028 C 
ENDROOT
BRANCH   1   3
HETATM    3  C   LIG     1      16.961  37.348  24.855  1.00  0.00     0.131 C 
BRANCH   3   4
HETATM    4  C   LIG     1      17.698  36.310  25.664  1.00  0.00     0.140 C 
HETATM    5  O   LIG     1      18.899  36.496  25.987  1.00  0.00    -0.650 OA
BRANCH   4   6
HETATM    6  O   LIG     1      17.038  35.183  26.151  1.00  0.00    -0.776 OA
HETATM    7  H   LIG     1      16.840  35.065  27.136  1.00  0.00     0.167 HD
ENDBRANCH   4   6
ENDBRANCH   3   4
ENDBRANCH   1   3
BRANCH   1   8
HETATM    8  C   LIG     1      17.721  38.164  22.411  1.00  0.00     0.056 C 
HETATM    9  C   LIG     1      18.996  38.637  23.167  1.00  0.00     0.027 C 
HETATM   10  C   LIG     1      16.955  39.449  21.999  1.00  0.00     0.027 C 
BRANCH   8  11
HETATM   11  C   LIG     1      18.138  37.494  21.102  1.00  0.00     0.149 C 
HETATM   12  O   LIG     1      19.145  37.895  20.455  1.00  0.00    -0.649 OA
BRANCH  11  13
HETATM   13  O   LIG     1      17.404  36.419  20.606  1.00  0.00    -0.776 OA
HETATM   14  H   LIG     1      16.411  36.339  20.788  1.00  0.00     0.167 HD
ENDBRANCH  11  13
ENDBRANCH   8  11
ENDBRANCH   1   8
BRANCH   1  15
HETATM   15  C   LIG     1      15.372  37.163  22.884  1.00  0.00     0.150 C 
HETATM   16  O   LIG     1      14.553  37.937  23.454  1.00  0.00    -0.649 OA
BRANCH  15  17
HETATM   17  O   LIG     1      14.895  36.330  21.877  1.00  0.00    -0.776 OA
HETATM   18  H   LIG     1      14.611  36.704  20.980  1.00  0.00     0.167 HD
ENDBRANCH  15  17
ENDBRANCH   1  15
TORSDOF 8
ENDMDL
MODEL 8
REMARK VINA RESULT:      -3.8      5.463      8.014
REMARK  8 active torsions:
REMARK  status: ('A' for Active; 'I' for Inactive)
REMARK    1  A    between atoms: O_1  and  C_2 
REMARK    2  A    between atoms: C_2  and  C_4 
REMARK    3  A    between atoms: C_4  and  C_5 
REMARK    4  A    between atoms: C_5  and  C_10 
REMARK    5  A    between atoms: C_5  and  C_7 
REMARK    6  A    between atoms: C_7  and  O_9 
REMARK    7  A    between atoms: C_10  and  C_13 
REMARK    8  A    between atoms: C_13  and  O_15 
ROOT
HETATM    1  C   LIG     1      15.304  32.453  16.277  1.00  0.00     0.068 C 
HETATM    2  C   LIG     1      13.859  31.897  16.049  1.00  0.00     0.028 C 
ENDROOT
BRANCH   1   3
HETATM    3  C   LIG     1      15.766  31.789  17.629  1.00  0.00     0.131 C 
BRANCH   3   4
HETATM    4  C   LIG     1      15.182  32.311  18.917  1.00  0.00     0.140 C 
HETATM    5  O   LIG     1      15.583  33.403  19.396  1.00  0.00    -0.650 OA
BRANCH   4   6
HETATM    6  O   LIG     1      14.127  31.650  19.544  1.00  0.00    -0.776 OA
HETATM    7  H   LIG     1      13.199  31.626  19.142  1.00  0.00     0.167 HD
ENDBRANCH   4   6
ENDBRANCH   3   4
ENDBRANCH   1   3
BRANCH   1   8
HETATM    8  C   LIG     1      16.214  32.096  14.998  1.00  0.00     0.056 C 
HETATM    9  C   LIG     1      17.718  31.973  15.380  1.00  0.00     0.027 C 
HETATM   10  C   LIG     1      16.138  33.144  13.856  1.00  0.00     0.027 C 
BRANCH   8  11
HETATM   11  C   LIG     1      15.749  30.777  14.381  1.00  0.00     0.149 C 
HETATM   12  O   LIG     1      16.067  29.668  14.893  1.00  0.00    -0.649 OA
BRANCH  11  13
HETATM   13  O   LIG     1      14.957  30.788  13.235  1.00  0.00    -0.776 OA
HETATM   14  H   LIG     1      15.289  31.210  12.377  1.00  0.00     0.167 HD
ENDBRANCH  11  13
ENDBRANCH   8  11
ENDBRANCH   1   8
BRANCH   1  15
HETATM   15  C   LIG     1      15.188  33.972  16.470  1.00  0.00     0.150 C 
HETATM   16  O   LIG     1      16.192  34.723  16.316  1.00  0.00    -0.649 OA
BRANCH  15  17
HETATM   17  O   LIG     1      13.978  34.560  16.825  1.00  0.00    -0.776 OA
HETATM   18  H   LIG     1      13.278  34.043  17.344  1.00  0.00     0.167 HD
ENDBRANCH  15  17
ENDBRANCH   1  15
TORSDOF 8
ENDMDL
MODEL 9
REMARK VINA RESULT:      -3.8     17.686     18.724
REMARK  8 active torsions:
REMARK  status: ('A' for Active; 'I' for Inactive)
REMARK    1  A    between atoms: O_1  and  C_2 
REMARK    2  A    between atoms: C_2  and  C_4 
REMARK    3  A    between atoms: C_4  and  C_5 
REMARK    4  A    between atoms: C_5  and  C_10 
REMARK    5  A    between atoms: C_5  and  C_7 
REMARK    6  A    between atoms: C_7  and  O_9 
REMARK    7  A    between atoms: C_10  and  C_13 
REMARK    8  A    between atoms: C_13  and  O_15 
ROOT
HETATM    1  C   LIG     1      27.759  29.577  35.160  1.00  0.00     0.068 C 
HETATM    2  C   LIG     1      28.676  28.316  35.284  1.00  0.00     0.028 C 
ENDROOT
BRANCH   1   3
HETATM    3  C   LIG     1      26.437  29.032  34.500  1.00  0.00     0.131 C 
BRANCH   3   4
HETATM    4  C   LIG     1      26.541  27.867  33.548  1.00  0.00     0.140 C 
HETATM    5  O   LIG     1      27.090  28.015  32.426  1.00  0.00    -0.650 OA
BRANCH   4   6
HETATM    6  O   LIG     1      26.126  26.592  33.929  1.00  0.00    -0.776 OA
HETATM    7  H   LIG     1      25.536  26.443  34.737  1.00  0.00     0.167 HD
ENDBRANCH   4   6
ENDBRANCH   3   4
ENDBRANCH   1   3
BRANCH   1   8
HETATM    8  C   LIG     1      27.569  30.236  36.617  1.00  0.00     0.056 C 
HETATM    9  C   LIG     1      28.512  31.457  36.823  1.00  0.00     0.027 C 
HETATM   10  C   LIG     1      27.853  29.262  37.792  1.00  0.00     0.027 C 
BRANCH   8  11
HETATM   11  C   LIG     1      26.121  30.691  36.797  1.00  0.00     0.149 C 
HETATM   12  O   LIG     1      25.668  31.690  36.174  1.00  0.00    -0.649 OA
BRANCH  11  13
HETATM   13  O   LIG     1      25.276  29.995  37.660  1.00  0.00    -0.776 OA
HETATM   14  H   LIG     1      24.647  30.488  38.281  1.00  0.00     0.167 HD
ENDBRANCH  11  13
ENDBRANCH   8  11
ENDBRANCH   1   8
BRANCH   1  15
HETATM   15  C   LIG     1      28.445  30.553  34.193  1.00  0.00     0.150 C 
HETATM   16  O   LIG     1      27.793  31.483  33.641  1.00  0.00    -0.649 OA
BRANCH  15  17
HETATM   17  O   LIG     1      29.799  30.435  33.897  1.00  0.00    -0.776 OA
HETATM   18  H   LIG     1      30.110  29.985  33.043  1.00  0.00     0.167 HD
ENDBRANCH  15  17
ENDBRANCH   1  15
TORSDOF 8
ENDMDL
MODEL 10
REMARK VINA RESULT:      -3.8     18.608     20.151
REMARK  8 active torsions:
REMARK  status: ('A' for Active; 'I' for Inactive)
REMARK    1  A    between atoms: O_1  and  C_2 
REMARK    2  A    between atoms: C_2  and  C_4 
REMARK    3  A    between atoms: C_4  and  C_5 
REMARK    4  A    between atoms: C_5  and  C_10 
REMARK    5  A    between atoms: C_5  and  C_7 
REMARK    6  A    between atoms: C_7  and  O_9 
REMARK    7  A    between atoms: C_10  and  C_13 
REMARK    8  A    between atoms: C_13  and  O_15 
ROOT
HETATM    1  C   LIG     1      28.520  30.057  35.921  1.00  0.00     0.068 C 
HETATM    2  C   LIG     1      28.840  31.287  35.008  1.00  0.00     0.028 C 
ENDROOT
BRANCH   1   3
HETATM    3  C   LIG     1      28.970  30.516  37.359  1.00  0.00     0.131 C 
BRANCH   3   4
HETATM    4  C   LIG     1      28.690  31.938  37.776  1.00  0.00     0.140 C 
HETATM    5  O   LIG     1      27.529  32.280  38.117  1.00  0.00    -0.650 OA
BRANCH   4   6
HETATM    6  O   LIG     1      29.723  32.867  37.886  1.00  0.00    -0.776 OA
HETATM    7  H   LIG     1      29.593  33.840  37.642  1.00  0.00     0.167 HD
ENDBRANCH   4   6
ENDBRANCH   3   4
ENDBRANCH   1   3
BRANCH   1   8
HETATM    8  C   LIG     1      26.959  29.689  35.782  1.00  0.00     0.056 C 
HETATM    9  C   LIG     1      26.716  28.622  34.675  1.00  0.00     0.027 C 
HETATM   10  C   LIG     1      26.054  30.900  35.427  1.00  0.00     0.027 C 
BRANCH   8  11
HETATM   11  C   LIG     1      26.431  29.154  37.113  1.00  0.00     0.149 C 
HETATM   12  O   LIG     1      26.840  28.058  37.584  1.00  0.00    -0.649 OA
BRANCH  11  13
HETATM   13  O   LIG     1      25.482  29.884  37.828  1.00  0.00    -0.776 OA
HETATM   14  H   LIG     1      24.709  29.420  38.288  1.00  0.00     0.167 HD
ENDBRANCH  11  13
ENDBRANCH   8  11
ENDBRANCH   1   8
BRANCH   1  15
HETATM   15  C   LIG     1      29.409  28.894  35.456  1.00  0.00     0.150 C 
HETATM   16  O   LIG     1      30.020  28.947  34.352  1.00  0.00    -0.649 OA
BRANCH  15  17
HETATM   17  O   LIG     1      29.559  27.751  36.235  1.00  0.00    -0.776 OA
HETATM   18  H   LIG     1      30.462  27.304  36.338  1.00  0.00     0.167 HD
ENDBRANCH  15  17
ENDBRANCH   1  15
TORSDOF 8
ENDMDL
MODEL 11
REMARK VINA RESULT:      -3.8     20.386     21.983
REMARK  8 active torsions:
REMARK  status: ('A' for Active; 'I' for Inactive)
REMARK    1  A    between atoms: O_1  and  C_2 
REMARK    2  A    between atoms: C_2  and  C_4 
REMARK    3  A    between atoms: C_4  and  C_5 
REMARK    4  A    between atoms: C_5  and  C_10 
REMARK    5  A    between atoms: C_5  and  C_7 
REMARK    6  A    between atoms: C_7  and  O_9 
REMARK    7  A    between atoms: C_10  and  C_13 
REMARK    8  A    between atoms: C_13  and  O_15 
ROOT
HETATM    1  C   LIG     1      22.919  22.882  36.578  1.00  0.00     0.068 C 
HETATM    2  C   LIG     1      22.909  23.437  38.041  1.00  0.00     0.028 C 
ENDROOT
BRANCH   1   3
HETATM    3  C   LIG     1      24.389  23.144  36.075  1.00  0.00     0.131 C 
BRANCH   3   4
HETATM    4  C   LIG     1      25.509  23.093  37.083  1.00  0.00     0.140 C 
HETATM    5  O   LIG     1      25.974  21.985  37.456  1.00  0.00    -0.650 OA
BRANCH   4   6
HETATM    6  O   LIG     1      26.113  24.263  37.540  1.00  0.00    -0.776 OA
HETATM    7  H   LIG     1      27.088  24.290  37.810  1.00  0.00     0.167 HD
ENDBRANCH   4   6
ENDBRANCH   3   4
ENDBRANCH   1   3
BRANCH   1   8
HETATM    8  C   LIG     1      22.473  21.335  36.598  1.00  0.00     0.056 C 
HETATM    9  C   LIG     1      20.937  21.178  36.409  1.00  0.00     0.027 C 
HETATM   10  C   LIG     1      22.831  20.592  37.913  1.00  0.00     0.027 C 
BRANCH   8  11
HETATM   11  C   LIG     1      23.191  20.573  35.485  1.00  0.00     0.149 C 
HETATM   12  O   LIG     1      24.105  19.742  35.745  1.00  0.00    -0.649 OA
BRANCH  11  13
HETATM   13  O   LIG     1      22.837  20.789  34.154  1.00  0.00    -0.776 OA
HETATM   14  H   LIG     1      22.045  20.311  33.743  1.00  0.00     0.167 HD
ENDBRANCH  11  13
ENDBRANCH   8  11
ENDBRANCH   1   8
BRANCH   1  15
HETATM   15  C   LIG     1      21.941  23.733  35.756  1.00  0.00     0.150 C 
HETATM   16  O   LIG     1      21.969  23.713  34.493  1.00  0.00    -0.649 OA
BRANCH  15  17
HETATM   17  O   LIG     1      21.004  24.551  36.378  1.00  0.00    -0.776 OA
HETATM   18  H   LIG     1      20.063  24.639  36.014  1.00  0.00     0.167 HD
ENDBRANCH  15  17
ENDBRANCH   1  15
TORSDOF 8
ENDMDL
MODEL 12
REMARK VINA RESULT:      -3.8     17.503     18.986
REMARK  8 active torsions:
REMARK  status: ('A' for Active; 'I' for Inactive)
REMARK    1  A    between atoms: O_1  and  C_2 
REMARK    2  A    between atoms: C_2  and  C_4 
REMARK    3  A    between atoms: C_4  and  C_5 
REMARK    4  A    between atoms: C_5  and  C_10 
REMARK    5  A    between atoms: C_5  and  C_7 
REMARK    6  A    between atoms: C_7  and  O_9 
REMARK    7  A    between atoms: C_10  and  C_13 
REMARK    8  A    between atoms: C_13  and  O_15 
ROOT
HETATM    1  C   LIG     1      27.148  28.768  34.936  1.00  0.00     0.068 C 
HETATM    2  C   LIG     1      27.527  28.122  36.310  1.00  0.00     0.028 C 
ENDROOT
BRANCH   1   3
HETATM    3  C   LIG     1      26.045  29.832  35.299  1.00  0.00     0.131 C 
BRANCH   3   4
HETATM    4  C   LIG     1      26.096  30.478  36.661  1.00  0.00     0.140 C 
HETATM    5  O   LIG     1      26.828  31.481  36.858  1.00  0.00    -0.650 OA
BRANCH   4   6
HETATM    6  O   LIG     1      25.264  30.041  37.690  1.00  0.00    -0.776 OA
HETATM    7  H   LIG     1      25.142  30.576  38.541  1.00  0.00     0.167 HD
ENDBRANCH   4   6
ENDBRANCH   3   4
ENDBRANCH   1   3
BRANCH   1   8
HETATM    8  C   LIG     1      28.476  29.372  34.254  1.00  0.00     0.056 C 
HETATM    9  C   LIG     1      29.606  29.599  35.299  1.00  0.00     0.027 C 
HETATM   10  C   LIG     1      28.257  30.735  33.544  1.00  0.00     0.027 C 
BRANCH   8  11
HETATM   11  C   LIG     1      28.984  28.420  33.172  1.00  0.00     0.149 C 
HETATM   12  O   LIG     1      29.758  27.464  33.454  1.00  0.00    -0.649 OA
BRANCH  11  13
HETATM   13  O   LIG     1      28.589  28.598  31.847  1.00  0.00    -0.776 OA
HETATM   14  H   LIG     1      28.170  27.840  31.323  1.00  0.00     0.167 HD
ENDBRANCH  11  13
ENDBRANCH   8  11
ENDBRANCH   1   8
BRANCH   1  15
HETATM   15  C   LIG     1      26.527  27.667  34.065  1.00  0.00     0.150 C 
HETATM   16  O   LIG     1      26.665  26.448  34.365  1.00  0.00    -0.649 OA
BRANCH  15  17
HETATM   17  O   LIG     1      25.801  27.983  32.921  1.00  0.00    -0.776 OA
HETATM   18  H   LIG     1      24.797  27.853  32.886  1.00  0.00     0.167 HD
ENDBRANCH  15  17
ENDBRANCH   1  15
TORSDOF 8
ENDMDL
MODEL 13
REMARK VINA RESULT:      -3.7      6.281      7.997
REMARK  8 active torsions:
REMARK  status: ('A' for Active; 'I' for Inactive)
REMARK    1  A    between atoms: O_1  and  C_2 
REMARK    2  A    between atoms: C_2  and  C_4 
REMARK    3  A    between atoms: C_4  and  C_5 
REMARK    4  A    between atoms: C_5  and  C_10 
REMARK    5  A    between atoms: C_5  and  C_7 
REMARK    6  A    between atoms: C_7  and  O_9 
REMARK    7  A    between atoms: C_10  and  C_13 
REMARK    8  A    between atoms: C_13  and  O_15 
ROOT
HETATM    1  C   LIG     1      15.628  32.096  15.667  1.00  0.00     0.068 C 
HETATM    2  C   LIG     1      16.762  31.111  16.108  1.00  0.00     0.028 C 
ENDROOT
BRANCH   1   3
HETATM    3  C   LIG     1      14.721  31.237  14.707  1.00  0.00     0.131 C 
BRANCH   3   4
HETATM    4  C   LIG     1      15.366  30.123  13.922  1.00  0.00     0.140 C 
HETATM    5  O   LIG     1      15.130  28.923  14.216  1.00  0.00    -0.650 OA
BRANCH   4   6
HETATM    6  O   LIG     1      16.150  30.398  12.803  1.00  0.00    -0.776 OA
HETATM    7  H   LIG     1      17.140  30.594  12.880  1.00  0.00     0.167 HD
ENDBRANCH   4   6
ENDBRANCH   3   4
ENDBRANCH   1   3
BRANCH   1   8
HETATM    8  C   LIG     1      14.883  32.663  16.978  1.00  0.00     0.056 C 
HETATM    9  C   LIG     1      14.608  34.190  16.866  1.00  0.00     0.027 C 
HETATM   10  C   LIG     1      15.679  32.457  18.294  1.00  0.00     0.027 C 
BRANCH   8  11
HETATM   11  C   LIG     1      13.556  31.932  17.178  1.00  0.00     0.149 C 
HETATM   12  O   LIG     1      13.523  30.741  17.594  1.00  0.00    -0.649 OA
BRANCH  11  13
HETATM   13  O   LIG     1      12.355  32.583  16.904  1.00  0.00    -0.776 OA
HETATM   14  H   LIG     1      11.829  32.372  16.065  1.00  0.00     0.167 HD
ENDBRANCH  11  13
ENDBRANCH   8  11
ENDBRANCH   1   8
BRANCH   1  15
HETATM   15  C   LIG     1      16.286  33.229  14.867  1.00  0.00     0.150 C 
HETATM   16  O   LIG     1      16.243  33.240  13.605  1.00  0.00    -0.649 OA
BRANCH  15  17
HETATM   17  O   LIG     1      16.952  34.268  15.510  1.00  0.00    -0.776 OA
HETATM   18  H   LIG     1      16.557  34.712  16.331  1.00  0.00     0.167 HD
ENDBRANCH  15  17
ENDBRANCH   1  15
TORSDOF 8
ENDMDL
MODEL 14
REMARK VINA RESULT:      -3.7     15.614     17.276
REMARK  8 active torsions:
REMARK  status: ('A' for Active; 'I' for Inactive)
REMARK    1  A    between atoms: O_1  and  C_2 
REMARK    2  A    between atoms: C_2  and  C_4 
REMARK    3  A    between atoms: C_4  and  C_5 
REMARK    4  A    between atoms: C_5  and  C_10 
REMARK    5  A    between atoms: C_5  and  C_7 
REMARK    6  A    between atoms: C_7  and  O_9 
REMARK    7  A    between atoms: C_10  and  C_13 
REMARK    8  A    between atoms: C_13  and  O_15 
ROOT
HETATM    1  C   LIG     1      23.692  20.850  20.375  1.00  0.00     0.068 C 
HETATM    2  C   LIG     1      23.032  19.454  20.627  1.00  0.00     0.028 C 
ENDROOT
BRANCH   1   3
HETATM    3  C   LIG     1      23.170  21.274  18.950  1.00  0.00     0.131 C 
BRANCH   3   4
HETATM    4  C   LIG     1      23.154  20.235  17.857  1.00  0.00     0.140 C 
HETATM    5  O   LIG     1      22.060  19.807  17.408  1.00  0.00    -0.650 OA
BRANCH   4   6
HETATM    6  O   LIG     1      24.338  19.806  17.260  1.00  0.00    -0.776 OA
HETATM    7  H   LIG     1      24.361  19.454  16.312  1.00  0.00     0.167 HD
ENDBRANCH   4   6
ENDBRANCH   3   4
ENDBRANCH   1   3
BRANCH   1   8
HETATM    8  C   LIG     1      23.285  21.848  21.571  1.00  0.00     0.056 C 
HETATM    9  C   LIG     1      22.934  21.071  22.873  1.00  0.00     0.027 C 
HETATM   10  C   LIG     1      22.060  22.747  21.255  1.00  0.00     0.027 C 
BRANCH   8  11
HETATM   11  C   LIG     1      24.438  22.809  21.861  1.00  0.00     0.149 C 
HETATM   12  O   LIG     1      25.025  22.807  22.978  1.00  0.00    -0.649 OA
BRANCH  11  13
HETATM   13  O   LIG     1      24.860  23.704  20.880  1.00  0.00    -0.776 OA
HETATM   14  H   LIG     1      25.838  23.947  20.783  1.00  0.00     0.167 HD
ENDBRANCH  11  13
ENDBRANCH   8  11
ENDBRANCH   1   8
BRANCH   1  15
HETATM   15  C   LIG     1      25.212  20.639  20.319  1.00  0.00     0.150 C 
HETATM   16  O   LIG     1      25.783  19.833  21.106  1.00  0.00    -0.649 OA
BRANCH  15  17
HETATM   17  O   LIG     1      25.998  21.333  19.405  1.00  0.00    -0.776 OA
HETATM   18  H   LIG     1      26.920  21.669  19.658  1.00  0.00     0.167 HD
ENDBRANCH  15  17
ENDBRANCH   1  15
TORSDOF 8
ENDMDL
MODEL 15
REMARK VINA RESULT:      -3.6     17.664     18.967
REMARK  8 active torsions:
REMARK  status: ('A' for Active; 'I' for Inactive)
REMARK    1  A    between atoms: O_1  and  C_2 
REMARK    2  A    between atoms: C_2  and  C_4 
REMARK    3  A    between atoms: C_4  and  C_5 
REMARK    4  A    between atoms: C_5  and  C_10 
REMARK    5  A    between atoms: C_5  and  C_7 
REMARK    6  A    between atoms: C_7  and  O_9 
REMARK    7  A    between atoms: C_10  and  C_13 
REMARK    8  A    between atoms: C_13  and  O_15 
ROOT
HETATM    1  C   LIG     1      27.662  29.197  34.252  1.00  0.00     0.068 C 
HETATM    2  C   LIG     1      28.631  29.049  33.032  1.00  0.00     0.028 C 
ENDROOT
BRANCH   1   3
HETATM    3  C   LIG     1      26.382  28.380  33.832  1.00  0.00     0.131 C 
BRANCH   3   4
HETATM    4  C   LIG     1      26.574  27.106  33.048  1.00  0.00     0.140 C 
HETATM    5  O   LIG     1      26.835  26.030  33.643  1.00  0.00    -0.650 OA
BRANCH   4   6
HETATM    6  O   LIG     1      26.367  27.078  31.670  1.00  0.00    -0.776 OA
HETATM    7  H   LIG     1      25.451  26.921  31.271  1.00  0.00     0.167 HD
ENDBRANCH   4   6
ENDBRANCH   3   4
ENDBRANCH   1   3
BRANCH   1   8
HETATM    8  C   LIG     1      28.402  28.665  35.580  1.00  0.00     0.056 C 
HETATM    9  C   LIG     1      29.162  29.810  36.311  1.00  0.00     0.027 C 
HETATM   10  C   LIG     1      29.445  27.547  35.317  1.00  0.00     0.027 C 
BRANCH   8  11
HETATM   11  C   LIG     1      27.378  28.058  36.538  1.00  0.00     0.149 C 
HETATM   12  O   LIG     1      26.636  28.790  37.250  1.00  0.00    -0.649 OA
BRANCH  11  13
HETATM   13  O   LIG     1      27.249  26.674  36.633  1.00  0.00    -0.776 OA
HETATM   14  H   LIG     1      27.525  26.182  37.474  1.00  0.00     0.167 HD
ENDBRANCH  11  13
ENDBRANCH   8  11
ENDBRANCH   1   8
BRANCH   1  15
HETATM   15  C   LIG     1      27.299  30.684  34.375  1.00  0.00     0.150 C 
HETATM   16  O   LIG     1      27.914  31.558  33.702  1.00  0.00    -0.649 OA
BRANCH  15  17
HETATM   17  O   LIG     1      26.289  31.107  35.233  1.00  0.00    -0.776 OA
HETATM   18  H   LIG     1      26.273  32.053  35.595  1.00  0.00     0.167 HD
ENDBRANCH  15  17
ENDBRANCH   1  15
TORSDOF 8
ENDMDL
MODEL 16
REMARK VINA RESULT:      -3.6     15.178     16.903
REMARK  8 active torsions:
REMARK  status: ('A' for Active; 'I' for Inactive)
REMARK    1  A    between atoms: O_1  and  C_2 
REMARK    2  A    between atoms: C_2  and  C_4 
REMARK    3  A    between atoms: C_4  and  C_5 
REMARK    4  A    between atoms: C_5  and  C_10 
REMARK    5  A    between atoms: C_5  and  C_7 
REMARK    6  A    between atoms: C_7  and  O_9 
REMARK    7  A    between atoms: C_10  and  C_13 
REMARK    8  A    between atoms: C_13  and  O_15 
ROOT
HETATM    1  C   LIG     1      25.085  22.292  19.973  1.00  0.00     0.068 C 
HETATM    2  C   LIG     1      25.456  22.479  18.464  1.00  0.00     0.028 C 
ENDROOT
BRANCH   1   3
HETATM    3  C   LIG     1      25.201  23.740  20.583  1.00  0.00     0.131 C 
BRANCH   3   4
HETATM    4  C   LIG     1      26.303  24.640  20.082  1.00  0.00     0.140 C 
HETATM    5  O   LIG     1      27.507  24.323  20.257  1.00  0.00    -0.650 OA
BRANCH   4   6
HETATM    6  O   LIG     1      26.011  25.779  19.334  1.00  0.00    -0.776 OA
HETATM    7  H   LIG     1      25.336  26.465  19.648  1.00  0.00     0.167 HD
ENDBRANCH   4   6
ENDBRANCH   3   4
ENDBRANCH   1   3
BRANCH   1   8
HETATM    8  C   LIG     1      23.622  21.627  20.077  1.00  0.00     0.056 C 
HETATM    9  C   LIG     1      23.702  20.074  20.153  1.00  0.00     0.027 C 
HETATM   10  C   LIG     1      22.692  21.958  18.879  1.00  0.00     0.027 C 
BRANCH   8  11
HETATM   11  C   LIG     1      22.901  22.149  21.318  1.00  0.00     0.149 C 
HETATM   12  O   LIG     1      21.947  22.971  21.223  1.00  0.00    -0.649 OA
BRANCH  11  13
HETATM   13  O   LIG     1      23.292  21.715  22.584  1.00  0.00    -0.776 OA
HETATM   14  H   LIG     1      23.054  20.787  22.912  1.00  0.00     0.167 HD
ENDBRANCH  11  13
ENDBRANCH   8  11
ENDBRANCH   1   8
BRANCH   1  15
HETATM   15  C   LIG     1      26.154  21.387  20.602  1.00  0.00     0.150 C 
HETATM   16  O   LIG     1      26.968  20.747  19.879  1.00  0.00    -0.649 OA
BRANCH  15  17
HETATM   17  O   LIG     1      26.250  21.244  21.982  1.00  0.00    -0.776 OA
HETATM   18  H   LIG     1      25.444  21.387  22.580  1.00  0.00     0.167 HD
ENDBRANCH  15  17
ENDBRANCH   1  15
TORSDOF 8
ENDMDL
MODEL 17
REMARK VINA RESULT:      -3.6     15.426     17.351
REMARK  8 active torsions:
REMARK  status: ('A' for Active; 'I' for Inactive)
REMARK    1  A    between atoms: O_1  and  C_2 
REMARK    2  A    between atoms: C_2  and  C_4 
REMARK    3  A    between atoms: C_4  and  C_5 
REMARK    4  A    between atoms: C_5  and  C_10 
REMARK    5  A    between atoms: C_5  and  C_7 
REMARK    6  A    between atoms: C_7  and  O_9 
REMARK    7  A    between atoms: C_10  and  C_13 
REMARK    8  A    between atoms: C_13  and  O_15 
ROOT
HETATM    1  C   LIG     1      23.551  21.973  20.773  1.00  0.00     0.068 C 
HETATM    2  C   LIG     1      22.177  22.673  21.034  1.00  0.00     0.028 C 
ENDROOT
BRANCH   1   3
HETATM    3  C   LIG     1      24.619  23.012  21.286  1.00  0.00     0.131 C 
BRANCH   3   4
HETATM    4  C   LIG     1      25.730  23.416  20.351  1.00  0.00     0.140 C 
HETATM    5  O   LIG     1      25.698  24.536  19.778  1.00  0.00    -0.650 OA
BRANCH   4   6
HETATM    6  O   LIG     1      26.852  22.607  20.181  1.00  0.00    -0.776 OA
HETATM    7  H   LIG     1      27.785  22.938  20.391  1.00  0.00     0.167 HD
ENDBRANCH   4   6
ENDBRANCH   3   4
ENDBRANCH   1   3
BRANCH   1   8
HETATM    8  C   LIG     1      23.570  20.551  21.528  1.00  0.00     0.056 C 
HETATM    9  C   LIG     1      23.054  19.406  20.609  1.00  0.00     0.027 C 
HETATM   10  C   LIG     1      22.699  20.506  22.812  1.00  0.00     0.027 C 
BRANCH   8  11
HETATM   11  C   LIG     1      24.992  20.221  21.981  1.00  0.00     0.149 C 
HETATM   12  O   LIG     1      25.317  20.270  23.199  1.00  0.00    -0.649 OA
BRANCH  11  13
HETATM   13  O   LIG     1      25.954  19.856  21.041  1.00  0.00    -0.776 OA
HETATM   14  H   LIG     1      25.802  19.071  20.420  1.00  0.00     0.167 HD
ENDBRANCH  11  13
ENDBRANCH   8  11
ENDBRANCH   1   8
BRANCH   1  15
HETATM   15  C   LIG     1      23.700  21.799  19.255  1.00  0.00     0.150 C 
HETATM   16  O   LIG     1      24.741  21.281  18.761  1.00  0.00    -0.649 OA
BRANCH  15  17
HETATM   17  O   LIG     1      22.697  22.212  18.384  1.00  0.00    -0.776 OA
HETATM   18  H   LIG     1      22.687  23.152  18.006  1.00  0.00     0.167 HD
ENDBRANCH  15  17
ENDBRANCH   1  15
TORSDOF 8
ENDMDL
MODEL 18
REMARK VINA RESULT:      -3.5     17.965     19.211
REMARK  8 active torsions:
REMARK  status: ('A' for Active; 'I' for Inactive)
REMARK    1  A    between atoms: O_1  and  C_2 
REMARK    2  A    between atoms: C_2  and  C_4 
REMARK    3  A    between atoms: C_4  and  C_5 
REMARK    4  A    between atoms: C_5  and  C_10 
REMARK    5  A    between atoms: C_5  and  C_7 
REMARK    6  A    between atoms: C_7  and  O_9 
REMARK    7  A    between atoms: C_10  and  C_13 
REMARK    8  A    between atoms: C_13  and  O_15 
ROOT
HETATM    1  C   LIG     1      28.014  29.090  35.236  1.00  0.00     0.068 C 
HETATM    2  C   LIG     1      29.525  28.685  35.258  1.00  0.00     0.028 C 
ENDROOT
BRANCH   1   3
HETATM    3  C   LIG     1      27.387  28.312  36.454  1.00  0.00     0.131 C 
BRANCH   3   4
HETATM    4  C   LIG     1      27.606  26.823  36.540  1.00  0.00     0.140 C 
HETATM    5  O   LIG     1      28.304  26.339  37.468  1.00  0.00    -0.650 OA
BRANCH   4   6
HETATM    6  O   LIG     1      26.963  25.953  35.661  1.00  0.00    -0.776 OA
HETATM    7  H   LIG     1      27.265  25.846  34.701  1.00  0.00     0.167 HD
ENDBRANCH   4   6
ENDBRANCH   3   4
ENDBRANCH   1   3
BRANCH   1   8
HETATM    8  C   LIG     1      27.897  30.694  35.321  1.00  0.00     0.056 C 
HETATM    9  C   LIG     1      27.893  31.345  33.908  1.00  0.00     0.027 C 
HETATM   10  C   LIG     1      29.051  31.369  36.110  1.00  0.00     0.027 C 
BRANCH   8  11
HETATM   11  C   LIG     1      26.613  31.083  36.052  1.00  0.00     0.149 C 
HETATM   12  O   LIG     1      26.649  31.680  37.163  1.00  0.00    -0.649 OA
BRANCH  11  13
HETATM   13  O   LIG     1      25.374  30.781  35.490  1.00  0.00    -0.776 OA
HETATM   14  H   LIG     1      25.281  30.619  34.495  1.00  0.00     0.167 HD
ENDBRANCH  11  13
ENDBRANCH   8  11
ENDBRANCH   1   8
BRANCH   1  15
HETATM   15  C   LIG     1      27.413  28.557  33.927  1.00  0.00     0.150 C 
HETATM   16  O   LIG     1      26.166  28.394  33.807  1.00  0.00    -0.649 OA
BRANCH  15  17
HETATM   17  O   LIG     1      28.224  28.234  32.844  1.00  0.00    -0.776 OA
HETATM   18  H   LIG     1      28.265  27.288  32.486  1.00  0.00     0.167 HD
ENDBRANCH  15  17
ENDBRANCH   1  15
TORSDOF 8
ENDMDL
MODEL 19
REMARK VINA RESULT:      -3.5     19.775     21.194
REMARK  8 active torsions:
REMARK  status: ('A' for Active; 'I' for Inactive)
REMARK    1  A    between atoms: O_1  and  C_2 
REMARK    2  A    between atoms: C_2  and  C_4 
REMARK    3  A    between atoms: C_4  and  C_5 
REMARK    4  A    between atoms: C_5  and  C_10 
REMARK    5  A    between atoms: C_5  and  C_7 
REMARK    6  A    between atoms: C_7  and  O_9 
REMARK    7  A    between atoms: C_10  and  C_13 
REMARK    8  A    between atoms: C_13  and  O_15 
ROOT
HETATM    1  C   LIG     1      20.994  21.325  35.549  1.00  0.00     0.068 C 
HETATM    2  C   LIG     1      21.337  20.565  36.872  1.00  0.00     0.028 C 
ENDROOT
BRANCH   1   3
HETATM    3  C   LIG     1      19.438  21.137  35.386  1.00  0.00     0.131 C 
BRANCH   3   4
HETATM    4  C   LIG     1      18.845  19.788  35.705  1.00  0.00     0.140 C 
HETATM    5  O   LIG     1      18.088  19.649  36.700  1.00  0.00    -0.650 OA
BRANCH   4   6
HETATM    6  O   LIG     1      19.041  18.701  34.854  1.00  0.00    -0.776 OA
HETATM    7  H   LIG     1      18.974  17.747  35.184  1.00  0.00     0.167 HD
ENDBRANCH   4   6
ENDBRANCH   3   4
ENDBRANCH   1   3
BRANCH   1   8
HETATM    8  C   LIG     1      21.483  22.854  35.677  1.00  0.00     0.056 C 
HETATM    9  C   LIG     1      20.363  23.768  36.253  1.00  0.00     0.027 C 
HETATM   10  C   LIG     1      21.919  23.492  34.332  1.00  0.00     0.027 C 
BRANCH   8  11
HETATM   11  C   LIG     1      22.707  22.933  36.589  1.00  0.00     0.149 C 
HETATM   12  O   LIG     1      22.620  23.390  37.762  1.00  0.00    -0.649 OA
BRANCH  11  13
HETATM   13  O   LIG     1      23.946  22.492  36.128  1.00  0.00    -0.776 OA
HETATM   14  H   LIG     1      24.484  21.812  36.652  1.00  0.00     0.167 HD
ENDBRANCH  11  13
ENDBRANCH   8  11
ENDBRANCH   1   8
BRANCH   1  15
HETATM   15  C   LIG     1      21.717  20.604  34.402  1.00  0.00     0.150 C 
HETATM   16  O   LIG     1      22.902  20.191  34.542  1.00  0.00    -0.649 OA
BRANCH  15  17
HETATM   17  O   LIG     1      21.089  20.394  33.178  1.00  0.00    -0.776 OA
HETATM   18  H   LIG     1      20.858  21.170  32.570  1.00  0.00     0.167 HD
ENDBRANCH  15  17
ENDBRANCH   1  15
TORSDOF 8
ENDMDL
MODEL 20
REMARK VINA RESULT:      -3.5     17.588     18.831
REMARK  8 active torsions:
REMARK  status: ('A' for Active; 'I' for Inactive)
REMARK    1  A    between atoms: O_1  and  C_2 
REMARK    2  A    between atoms: C_2  and  C_4 
REMARK    3  A    between atoms: C_4  and  C_5 
REMARK    4  A    between atoms: C_5  and  C_10 
REMARK    5  A    between atoms: C_5  and  C_7 
REMARK    6  A    between atoms: C_7  and  O_9 
REMARK    7  A    between atoms: C_10  and  C_13 
REMARK    8  A    between atoms: C_13  and  O_15 
ROOT
HETATM    1  C   LIG     1      27.651  29.069  35.164  1.00  0.00     0.068 C 
HETATM    2  C   LIG     1      27.139  28.529  36.540  1.00  0.00     0.028 C 
ENDROOT
BRANCH   1   3
HETATM    3  C   LIG     1      26.558  28.598  34.132  1.00  0.00     0.131 C 
BRANCH   3   4
HETATM    4  C   LIG     1      26.693  27.225  33.525  1.00  0.00     0.140 C 
HETATM    5  O   LIG     1      26.307  26.211  34.162  1.00  0.00    -0.650 OA
BRANCH   4   6
HETATM    6  O   LIG     1      27.151  27.062  32.219  1.00  0.00    -0.776 OA
HETATM    7  H   LIG     1      27.767  27.735  31.782  1.00  0.00     0.167 HD
ENDBRANCH   4   6
ENDBRANCH   3   4
ENDBRANCH   1   3
BRANCH   1   8
HETATM    8  C   LIG     1      27.848  30.664  35.264  1.00  0.00     0.056 C 
HETATM    9  C   LIG     1      27.845  31.332  33.858  1.00  0.00     0.027 C 
HETATM   10  C   LIG     1      29.172  31.095  35.950  1.00  0.00     0.027 C 
BRANCH   8  11
HETATM   11  C   LIG     1      26.728  31.275  36.106  1.00  0.00     0.149 C 
HETATM   12  O   LIG     1      26.953  31.724  37.264  1.00  0.00    -0.649 OA
BRANCH  11  13
HETATM   13  O   LIG     1      25.433  31.344  35.596  1.00  0.00    -0.776 OA
HETATM   14  H   LIG     1      24.815  32.105  35.849  1.00  0.00     0.167 HD
ENDBRANCH  11  13
ENDBRANCH   8  11
ENDBRANCH   1   8
BRANCH   1  15
HETATM   15  C   LIG     1      28.979  28.363  34.857  1.00  0.00     0.150 C 
HETATM   16  O   LIG     1      29.528  28.481  33.726  1.00  0.00    -0.649 OA
BRANCH  15  17
HETATM   17  O   LIG     1      29.608  27.571  35.812  1.00  0.00    -0.776 OA
HETATM   18  H   LIG     1      30.595  27.678  36.013  1.00  0.00     0.167 HD
ENDBRANCH  15  17
ENDBRANCH   1  15
TORSDOF 8
ENDMDL
