MODEL 1
REMARK VINA RESULT:      -8.7      0.000      0.000
REMARK  0 active torsions:
REMARK  status: ('A' for Active; 'I' for Inactive)
ROOT
HETATM    1  C   LIG     1      15.637  33.984  20.678  1.00  0.00     0.004 A 
HETATM    2  C   LIG     1      14.940  32.841  21.059  1.00  0.00     0.015 A 
HETATM    3  C   LIG     1      14.467  31.990  20.048  1.00  0.00     0.013 A 
HETATM    4  C   LIG     1      15.874  34.300  19.355  1.00  0.00     0.055 A 
HETATM    5  N   LIG     1      16.571  35.457  19.249  1.00  0.00    -0.353 N 
HETATM    6  C   LIG     1      16.772  35.870  20.524  1.00  0.00     0.055 A 
HETATM    7  C   LIG     1      17.447  37.022  20.964  1.00  0.00     0.002 A 
HETATM    8  C   LIG     1      18.030  37.943  20.079  1.00  0.00     0.014 A 
HETATM    9  C   LIG     1      18.687  39.071  20.578  1.00  0.00     0.001 A 
HETATM   10  C   LIG     1      18.770  39.290  21.955  1.00  0.00     0.001 A 
HETATM   11  C   LIG     1      18.194  38.382  22.849  1.00  0.00     0.012 A 
HETATM   12  C   LIG     1      17.529  37.244  22.370  1.00  0.00    -0.024 A 
HETATM   13  C   LIG     1      16.945  36.323  23.273  1.00  0.00     0.013 A 
HETATM   14  C   LIG     1      16.279  35.181  22.801  1.00  0.00     0.015 A 
HETATM   15  C   LIG     1      16.212  34.988  21.424  1.00  0.00     0.004 A 
HETATM   16  C   LIG     1      15.414  33.470  18.320  1.00  0.00     0.002 A 
HETATM   17  C   LIG     1      14.696  32.292  18.684  1.00  0.00    -0.024 A 
HETATM   18  C   LIG     1      14.221  31.437  17.679  1.00  0.00     0.012 A 
HETATM   19  C   LIG     1      14.449  31.737  16.333  1.00  0.00     0.001 A 
HETATM   20  C   LIG     1      15.153  32.890  15.977  1.00  0.00     0.001 A 
HETATM   21  C   LIG     1      15.635  33.757  16.962  1.00  0.00     0.014 A 
HETATM   22  H   LIG     1      16.885  35.928  18.374  1.00  0.00     0.166 HD
ENDROOT
TORSDOF 0
ENDMDL
MODEL 2
REMARK VINA RESULT:      -8.7      0.029      6.362
REMARK  0 active torsions:
REMARK  status: ('A' for Active; 'I' for Inactive)
ROOT
HETATM    1  C   LIG     1      16.222  35.000  21.404  1.00  0.00     0.004 A 
HETATM    2  C   LIG     1      16.294  35.192  22.780  1.00  0.00     0.015 A 
HETATM    3  C   LIG     1      16.958  36.335  23.253  1.00  0.00     0.013 A 
HETATM    4  C   LIG     1      16.776  35.888  20.503  1.00  0.00     0.055 A 
HETATM    5  N   LIG     1      16.570  35.478  19.228  1.00  0.00    -0.353 N 
HETATM    6  C   LIG     1      15.879  34.317  19.334  1.00  0.00     0.055 A 
HETATM    7  C   LIG     1      15.417  33.488  18.298  1.00  0.00     0.002 A 
HETATM    8  C   LIG     1      15.631  33.780  16.941  1.00  0.00     0.014 A 
HETATM    9  C   LIG     1      15.147  32.914  15.955  1.00  0.00     0.001 A 
HETATM   10  C   LIG     1      14.449  31.757  16.311  1.00  0.00     0.001 A 
HETATM   11  C   LIG     1      14.228  31.453  17.657  1.00  0.00     0.012 A 
HETATM   12  C   LIG     1      14.705  32.307  18.662  1.00  0.00    -0.024 A 
HETATM   13  C   LIG     1      14.483  32.001  20.027  1.00  0.00     0.013 A 
HETATM   14  C   LIG     1      14.957  32.851  21.038  1.00  0.00     0.015 A 
HETATM   15  C   LIG     1      15.649  33.997  20.656  1.00  0.00     0.004 A 
HETATM   16  C   LIG     1      17.447  37.041  20.943  1.00  0.00     0.002 A 
HETATM   17  C   LIG     1      17.535  37.260  22.349  1.00  0.00    -0.024 A 
HETATM   18  C   LIG     1      18.196  38.400  22.828  1.00  0.00     0.012 A 
HETATM   19  C   LIG     1      18.764  39.312  21.935  1.00  0.00     0.001 A 
HETATM   20  C   LIG     1      18.678  39.097  20.557  1.00  0.00     0.001 A 
HETATM   21  C   LIG     1      18.023  37.967  20.057  1.00  0.00     0.014 A 
HETATM   22  H   LIG     1      16.878  35.953  18.353  1.00  0.00     0.166 HD
ENDROOT
TORSDOF 0
ENDMDL
MODEL 3
REMARK VINA RESULT:      -8.1      1.675      3.354
REMARK  0 active torsions:
REMARK  status: ('A' for Active; 'I' for Inactive)
ROOT
HETATM    1  C   LIG     1      16.338  35.472  20.512  1.00  0.00     0.004 A 
HETATM    2  C   LIG     1      16.153  35.831  19.181  1.00  0.00     0.015 A 
HETATM    3  C   LIG     1      15.619  34.872  18.307  1.00  0.00     0.013 A 
HETATM    4  C   LIG     1      16.016  34.218  20.993  1.00  0.00     0.055 A 
HETATM    5  N   LIG     1      16.289  34.120  22.316  1.00  0.00    -0.353 N 
HETATM    6  C   LIG     1      16.789  35.329  22.668  1.00  0.00     0.055 A 
HETATM    7  C   LIG     1      17.228  35.748  23.935  1.00  0.00     0.002 A 
HETATM    8  C   LIG     1      17.199  34.910  25.063  1.00  0.00     0.014 A 
HETATM    9  C   LIG     1      17.650  35.385  26.297  1.00  0.00     0.001 A 
HETATM   10  C   LIG     1      18.130  36.691  26.420  1.00  0.00     0.001 A 
HETATM   11  C   LIG     1      18.165  37.538  25.308  1.00  0.00     0.012 A 
HETATM   12  C   LIG     1      17.718  37.081  24.059  1.00  0.00    -0.024 A 
HETATM   13  C   LIG     1      17.752  37.936  22.931  1.00  0.00     0.013 A 
HETATM   14  C   LIG     1      17.305  37.487  21.678  1.00  0.00     0.015 A 
HETATM   15  C   LIG     1      16.832  36.181  21.584  1.00  0.00     0.004 A 
HETATM   16  C   LIG     1      15.480  33.235  20.145  1.00  0.00     0.002 A 
HETATM   17  C   LIG     1      15.280  33.579  18.775  1.00  0.00    -0.024 A 
HETATM   18  C   LIG     1      14.746  32.625  17.896  1.00  0.00     0.012 A 
HETATM   19  C   LIG     1      14.412  31.349  18.360  1.00  0.00     0.001 A 
HETATM   20  C   LIG     1      14.607  31.014  19.702  1.00  0.00     0.001 A 
HETATM   21  C   LIG     1      15.139  31.948  20.595  1.00  0.00     0.014 A 
HETATM   22  H   LIG     1      16.145  33.291  22.932  1.00  0.00     0.166 HD
ENDROOT
TORSDOF 0
ENDMDL
MODEL 4
REMARK VINA RESULT:      -8.1      1.679      7.046
REMARK  0 active torsions:
REMARK  status: ('A' for Active; 'I' for Inactive)
ROOT
HETATM    1  C   LIG     1      16.841  36.199  21.596  1.00  0.00     0.004 A 
HETATM    2  C   LIG     1      17.313  37.504  21.691  1.00  0.00     0.015 A 
HETATM    3  C   LIG     1      17.759  37.955  22.944  1.00  0.00     0.013 A 
HETATM    4  C   LIG     1      16.797  35.346  22.681  1.00  0.00     0.055 A 
HETATM    5  N   LIG     1      16.299  34.137  22.329  1.00  0.00    -0.353 N 
HETATM    6  C   LIG     1      16.026  34.235  21.006  1.00  0.00     0.055 A 
HETATM    7  C   LIG     1      15.490  33.251  20.158  1.00  0.00     0.002 A 
HETATM    8  C   LIG     1      15.151  31.965  20.608  1.00  0.00     0.014 A 
HETATM    9  C   LIG     1      14.621  31.029  19.716  1.00  0.00     0.001 A 
HETATM   10  C   LIG     1      14.425  31.363  18.373  1.00  0.00     0.001 A 
HETATM   11  C   LIG     1      14.758  32.640  17.909  1.00  0.00     0.012 A 
HETATM   12  C   LIG     1      15.291  33.595  18.788  1.00  0.00    -0.024 A 
HETATM   13  C   LIG     1      15.629  34.888  18.321  1.00  0.00     0.013 A 
HETATM   14  C   LIG     1      16.163  35.848  19.194  1.00  0.00     0.015 A 
HETATM   15  C   LIG     1      16.347  35.488  20.526  1.00  0.00     0.004 A 
HETATM   16  C   LIG     1      17.236  35.766  23.948  1.00  0.00     0.002 A 
HETATM   17  C   LIG     1      17.725  37.100  24.072  1.00  0.00    -0.024 A 
HETATM   18  C   LIG     1      18.173  37.556  25.321  1.00  0.00     0.012 A 
HETATM   19  C   LIG     1      18.138  36.710  26.433  1.00  0.00     0.001 A 
HETATM   20  C   LIG     1      17.659  35.404  26.310  1.00  0.00     0.001 A 
HETATM   21  C   LIG     1      17.208  34.928  25.076  1.00  0.00     0.014 A 
HETATM   22  H   LIG     1      16.156  33.308  22.945  1.00  0.00     0.166 HD
ENDROOT
TORSDOF 0
ENDMDL
MODEL 5
REMARK VINA RESULT:      -6.7      1.319      2.798
REMARK  0 active torsions:
REMARK  status: ('A' for Active; 'I' for Inactive)
ROOT
HETATM    1  C   LIG     1      14.804  32.518  18.313  1.00  0.00     0.004 A 
HETATM    2  C   LIG     1      13.991  31.409  18.106  1.00  0.00     0.015 A 
HETATM    3  C   LIG     1      13.969  30.838  16.824  1.00  0.00     0.013 A 
HETATM    4  C   LIG     1      15.579  33.067  17.310  1.00  0.00     0.055 A 
HETATM    5  N   LIG     1      16.277  34.135  17.764  1.00  0.00    -0.353 N 
HETATM    6  C   LIG     1      15.934  34.257  19.069  1.00  0.00     0.055 A 
HETATM    7  C   LIG     1      16.383  35.213  19.996  1.00  0.00     0.002 A 
HETATM    8  C   LIG     1      17.300  36.222  19.660  1.00  0.00     0.014 A 
HETATM    9  C   LIG     1      17.708  37.145  20.627  1.00  0.00     0.001 A 
HETATM   10  C   LIG     1      17.211  37.071  21.930  1.00  0.00     0.001 A 
HETATM   11  C   LIG     1      16.297  36.072  22.281  1.00  0.00     0.012 A 
HETATM   12  C   LIG     1      15.873  35.136  21.326  1.00  0.00    -0.024 A 
HETATM   13  C   LIG     1      14.948  34.124  21.677  1.00  0.00     0.013 A 
HETATM   14  C   LIG     1      14.520  33.183  20.728  1.00  0.00     0.015 A 
HETATM   15  C   LIG     1      15.032  33.280  19.437  1.00  0.00     0.004 A 
HETATM   16  C   LIG     1      15.580  32.519  16.016  1.00  0.00     0.002 A 
HETATM   17  C   LIG     1      14.754  31.381  15.778  1.00  0.00    -0.024 A 
HETATM   18  C   LIG     1      14.727  30.805  14.499  1.00  0.00     0.012 A 
HETATM   19  C   LIG     1      15.503  31.343  13.469  1.00  0.00     0.001 A 
HETATM   20  C   LIG     1      16.312  32.458  13.703  1.00  0.00     0.001 A 
HETATM   21  C   LIG     1      16.353  33.048  14.969  1.00  0.00     0.014 A 
HETATM   22  H   LIG     1      16.937  34.735  17.225  1.00  0.00     0.166 HD
ENDROOT
TORSDOF 0
ENDMDL
MODEL 6
REMARK VINA RESULT:      -6.7      1.325      6.709
REMARK  0 active torsions:
REMARK  status: ('A' for Active; 'I' for Inactive)
ROOT
HETATM    1  C   LIG     1      15.050  33.292  19.439  1.00  0.00     0.004 A 
HETATM    2  C   LIG     1      14.553  33.215  20.736  1.00  0.00     0.015 A 
HETATM    3  C   LIG     1      14.993  34.166  21.669  1.00  0.00     0.013 A 
HETATM    4  C   LIG     1      15.951  34.263  19.048  1.00  0.00     0.055 A 
HETATM    5  N   LIG     1      16.279  34.124  17.741  1.00  0.00    -0.353 N 
HETATM    6  C   LIG     1      15.574  33.050  17.308  1.00  0.00     0.055 A 
HETATM    7  C   LIG     1      15.560  32.487  16.021  1.00  0.00     0.002 A 
HETATM    8  C   LIG     1      16.323  33.000  14.960  1.00  0.00     0.014 A 
HETATM    9  C   LIG     1      16.266  32.395  13.702  1.00  0.00     0.001 A 
HETATM   10  C   LIG     1      15.452  31.279  13.490  1.00  0.00     0.001 A 
HETATM   11  C   LIG     1      14.687  30.756  14.536  1.00  0.00     0.012 A 
HETATM   12  C   LIG     1      14.729  31.348  15.807  1.00  0.00    -0.024 A 
HETATM   13  C   LIG     1      13.955  30.820  16.869  1.00  0.00     0.013 A 
HETATM   14  C   LIG     1      13.991  31.407  18.143  1.00  0.00     0.015 A 
HETATM   15  C   LIG     1      14.810  32.518  18.326  1.00  0.00     0.004 A 
HETATM   16  C   LIG     1      16.412  35.230  19.957  1.00  0.00     0.002 A 
HETATM   17  C   LIG     1      15.916  35.172  21.293  1.00  0.00    -0.024 A 
HETATM   18  C   LIG     1      16.352  36.120  22.231  1.00  0.00     0.012 A 
HETATM   19  C   LIG     1      17.263  37.112  21.858  1.00  0.00     0.001 A 
HETATM   20  C   LIG     1      17.747  37.168  20.549  1.00  0.00     0.001 A 
HETATM   21  C   LIG     1      17.327  36.234  19.598  1.00  0.00     0.014 A 
HETATM   22  H   LIG     1      16.934  34.716  17.187  1.00  0.00     0.166 HD
ENDROOT
TORSDOF 0
ENDMDL
MODEL 7
REMARK VINA RESULT:      -6.7     17.726     20.211
REMARK  0 active torsions:
REMARK  status: ('A' for Active; 'I' for Inactive)
ROOT
HETATM    1  C   LIG     1      27.296  27.063  35.413  1.00  0.00     0.004 A 
HETATM    2  C   LIG     1      27.420  26.792  36.772  1.00  0.00     0.015 A 
HETATM    3  C   LIG     1      27.130  27.823  37.679  1.00  0.00     0.013 A 
HETATM    4  C   LIG     1      26.903  28.298  34.937  1.00  0.00     0.055 A 
HETATM    5  N   LIG     1      26.860  28.306  33.583  1.00  0.00    -0.353 N 
HETATM    6  C   LIG     1      27.232  27.059  33.207  1.00  0.00     0.055 A 
HETATM    7  C   LIG     1      27.350  26.547  31.904  1.00  0.00     0.002 A 
HETATM    8  C   LIG     1      27.080  27.316  30.760  1.00  0.00     0.014 A 
HETATM    9  C   LIG     1      27.216  26.751  29.489  1.00  0.00     0.001 A 
HETATM   10  C   LIG     1      27.620  25.421  29.347  1.00  0.00     0.001 A 
HETATM   11  C   LIG     1      27.892  24.642  30.476  1.00  0.00     0.012 A 
HETATM   12  C   LIG     1      27.763  25.190  31.760  1.00  0.00    -0.024 A 
HETATM   13  C   LIG     1      28.039  24.403  32.905  1.00  0.00     0.013 A 
HETATM   14  C   LIG     1      27.910  24.944  34.194  1.00  0.00     0.015 A 
HETATM   15  C   LIG     1      27.506  26.272  34.307  1.00  0.00     0.004 A 
HETATM   16  C   LIG     1      26.605  29.351  35.818  1.00  0.00     0.002 A 
HETATM   17  C   LIG     1      26.724  29.099  37.217  1.00  0.00    -0.024 A 
HETATM   18  C   LIG     1      26.436  30.125  38.129  1.00  0.00     0.012 A 
HETATM   19  C   LIG     1      26.036  31.382  37.670  1.00  0.00     0.001 A 
HETATM   20  C   LIG     1      25.919  31.629  36.300  1.00  0.00     0.001 A 
HETATM   21  C   LIG     1      26.202  30.622  35.373  1.00  0.00     0.014 A 
HETATM   22  H   LIG     1      26.596  29.102  32.963  1.00  0.00     0.166 HD
ENDROOT
TORSDOF 0
ENDMDL
MODEL 8
REMARK VINA RESULT:      -6.7     17.723     19.401
REMARK  0 active torsions:
REMARK  status: ('A' for Active; 'I' for Inactive)
ROOT
HETATM    1  C   LIG     1      27.532  26.290  34.296  1.00  0.00     0.004 A 
HETATM    2  C   LIG     1      27.944  24.967  34.178  1.00  0.00     0.015 A 
HETATM    3  C   LIG     1      28.071  24.429  32.888  1.00  0.00     0.013 A 
HETATM    4  C   LIG     1      27.249  27.079  33.199  1.00  0.00     0.055 A 
HETATM    5  N   LIG     1      26.871  28.324  33.578  1.00  0.00    -0.353 N 
HETATM    6  C   LIG     1      26.917  28.312  34.933  1.00  0.00     0.055 A 
HETATM    7  C   LIG     1      26.616  29.362  35.817  1.00  0.00     0.002 A 
HETATM    8  C   LIG     1      26.204  30.630  35.376  1.00  0.00     0.014 A 
HETATM    9  C   LIG     1      25.918  31.634  36.305  1.00  0.00     0.001 A 
HETATM   10  C   LIG     1      26.040  31.386  37.675  1.00  0.00     0.001 A 
HETATM   11  C   LIG     1      26.449  30.129  38.129  1.00  0.00     0.012 A 
HETATM   12  C   LIG     1      26.741  29.106  37.214  1.00  0.00    -0.024 A 
HETATM   13  C   LIG     1      27.155  27.832  37.672  1.00  0.00     0.013 A 
HETATM   14  C   LIG     1      27.449  26.804  36.763  1.00  0.00     0.015 A 
HETATM   15  C   LIG     1      27.319  27.079  35.404  1.00  0.00     0.004 A 
HETATM   16  C   LIG     1      27.367  26.571  31.894  1.00  0.00     0.002 A 
HETATM   17  C   LIG     1      27.788  25.217  31.746  1.00  0.00    -0.024 A 
HETATM   18  C   LIG     1      27.918  24.673  30.459  1.00  0.00     0.012 A 
HETATM   19  C   LIG     1      27.638  25.452  29.334  1.00  0.00     0.001 A 
HETATM   20  C   LIG     1      27.227  26.779  29.480  1.00  0.00     0.001 A 
HETATM   21  C   LIG     1      27.089  27.342  30.752  1.00  0.00     0.014 A 
HETATM   22  H   LIG     1      26.603  29.119  32.961  1.00  0.00     0.166 HD
ENDROOT
TORSDOF 0
ENDMDL
MODEL 9
REMARK VINA RESULT:      -6.5      6.071     11.598
REMARK  0 active torsions:
REMARK  status: ('A' for Active; 'I' for Inactive)
ROOT
HETATM    1  C   LIG     1      15.131  29.125  13.729  1.00  0.00     0.004 A 
HETATM    2  C   LIG     1      16.257  29.901  13.983  1.00  0.00     0.015 A 
HETATM    3  C   LIG     1      16.139  30.952  14.906  1.00  0.00     0.013 A 
HETATM    4  C   LIG     1      13.918  29.354  14.347  1.00  0.00     0.055 A 
HETATM    5  N   LIG     1      12.984  28.465  13.931  1.00  0.00    -0.353 N 
HETATM    6  C   LIG     1      13.622  27.669  13.039  1.00  0.00     0.055 A 
HETATM    7  C   LIG     1      13.096  26.585  12.317  1.00  0.00     0.002 A 
HETATM    8  C   LIG     1      11.760  26.170  12.438  1.00  0.00     0.014 A 
HETATM    9  C   LIG     1      11.295  25.083  11.691  1.00  0.00     0.001 A 
HETATM   10  C   LIG     1      12.152  24.405  10.822  1.00  0.00     0.001 A 
HETATM   11  C   LIG     1      13.485  24.806  10.689  1.00  0.00     0.012 A 
HETATM   12  C   LIG     1      13.972  25.894  11.429  1.00  0.00    -0.024 A 
HETATM   13  C   LIG     1      15.321  26.303  11.296  1.00  0.00     0.013 A 
HETATM   14  C   LIG     1      15.816  27.390  12.033  1.00  0.00     0.015 A 
HETATM   15  C   LIG     1      14.941  28.048  12.893  1.00  0.00     0.004 A 
HETATM   16  C   LIG     1      13.766  30.398  15.276  1.00  0.00     0.002 A 
HETATM   17  C   LIG     1      14.906  31.208  15.554  1.00  0.00    -0.024 A 
HETATM   18  C   LIG     1      14.794  32.260  16.476  1.00  0.00     0.012 A 
HETATM   19  C   LIG     1      13.577  32.510  17.114  1.00  0.00     0.001 A 
HETATM   20  C   LIG     1      12.461  31.716  16.841  1.00  0.00     0.001 A 
HETATM   21  C   LIG     1      12.549  30.663  15.926  1.00  0.00     0.014 A 
HETATM   22  H   LIG     1      11.988  28.406  14.233  1.00  0.00     0.166 HD
ENDROOT
TORSDOF 0
ENDMDL
MODEL 10
REMARK VINA RESULT:      -6.4     14.879     15.704
REMARK  0 active torsions:
REMARK  status: ('A' for Active; 'I' for Inactive)
ROOT
HETATM    1  C   LIG     1      25.717  23.558  19.711  1.00  0.00     0.004 A 
HETATM    2  C   LIG     1      24.937  23.422  20.855  1.00  0.00     0.015 A 
HETATM    3  C   LIG     1      24.079  22.315  20.942  1.00  0.00     0.013 A 
HETATM    4  C   LIG     1      25.672  22.649  18.673  1.00  0.00     0.055 A 
HETATM    5  N   LIG     1      26.522  23.004  17.679  1.00  0.00    -0.353 N 
HETATM    6  C   LIG     1      27.106  24.152  18.102  1.00  0.00     0.055 A 
HETATM    7  C   LIG     1      28.068  24.928  17.436  1.00  0.00     0.002 A 
HETATM    8  C   LIG     1      28.574  24.589  16.170  1.00  0.00     0.014 A 
HETATM    9  C   LIG     1      29.531  25.403  15.558  1.00  0.00     0.001 A 
HETATM   10  C   LIG     1      29.991  26.557  16.198  1.00  0.00     0.001 A 
HETATM   11  C   LIG     1      29.497  26.909  17.458  1.00  0.00     0.012 A 
HETATM   12  C   LIG     1      28.536  26.106  18.090  1.00  0.00    -0.024 A 
HETATM   13  C   LIG     1      28.035  26.461  19.366  1.00  0.00     0.013 A 
HETATM   14  C   LIG     1      27.074  25.662  20.005  1.00  0.00     0.015 A 
HETATM   15  C   LIG     1      26.633  24.518  19.345  1.00  0.00     0.004 A 
HETATM   16  C   LIG     1      24.825  21.530  18.727  1.00  0.00     0.002 A 
HETATM   17  C   LIG     1      24.016  21.368  19.890  1.00  0.00    -0.024 A 
HETATM   18  C   LIG     1      23.156  20.263  19.983  1.00  0.00     0.012 A 
HETATM   19  C   LIG     1      23.095  19.330  18.945  1.00  0.00     0.001 A 
HETATM   20  C   LIG     1      23.889  19.489  17.806  1.00  0.00     0.001 A 
HETATM   21  C   LIG     1      24.751  20.582  17.692  1.00  0.00     0.014 A 
HETATM   22  H   LIG     1      26.691  22.501  16.782  1.00  0.00     0.166 HD
ENDROOT
TORSDOF 0
ENDMDL
MODEL 11
REMARK VINA RESULT:      -6.4     15.272     16.739
REMARK  0 active torsions:
REMARK  status: ('A' for Active; 'I' for Inactive)
ROOT
HETATM    1  C   LIG     1      24.366  21.988  24.772  1.00  0.00     0.004 A 
HETATM    2  C   LIG     1      23.956  21.550  26.027  1.00  0.00     0.015 A 
HETATM    3  C   LIG     1      24.570  22.114  27.156  1.00  0.00     0.013 A 
HETATM    4  C   LIG     1      25.345  22.948  24.607  1.00  0.00     0.055 A 
HETATM    5  N   LIG     1      25.561  23.201  23.293  1.00  0.00    -0.353 N 
HETATM    6  C   LIG     1      24.707  22.386  22.628  1.00  0.00     0.055 A 
HETATM    7  C   LIG     1      24.535  22.262  21.239  1.00  0.00     0.002 A 
HETATM    8  C   LIG     1      25.277  23.014  20.313  1.00  0.00     0.014 A 
HETATM    9  C   LIG     1      25.060  22.845  18.943  1.00  0.00     0.001 A 
HETATM   10  C   LIG     1      24.109  21.931  18.484  1.00  0.00     0.001 A 
HETATM   11  C   LIG     1      23.362  21.175  19.393  1.00  0.00     0.012 A 
HETATM   12  C   LIG     1      23.564  21.328  20.773  1.00  0.00    -0.024 A 
HETATM   13  C   LIG     1      22.810  20.563  21.696  1.00  0.00     0.013 A 
HETATM   14  C   LIG     1      23.005  20.712  23.078  1.00  0.00     0.015 A 
HETATM   15  C   LIG     1      23.959  21.630  23.507  1.00  0.00     0.004 A 
HETATM   16  C   LIG     1      25.979  23.533  25.716  1.00  0.00     0.002 A 
HETATM   17  C   LIG     1      25.576  23.100  27.013  1.00  0.00    -0.024 A 
HETATM   18  C   LIG     1      26.184  23.660  28.146  1.00  0.00     0.012 A 
HETATM   19  C   LIG     1      27.177  24.634  28.003  1.00  0.00     0.001 A 
HETATM   20  C   LIG     1      27.571  25.058  26.731  1.00  0.00     0.001 A 
HETATM   21  C   LIG     1      26.978  24.513  25.589  1.00  0.00     0.014 A 
HETATM   22  H   LIG     1      26.240  23.877  22.883  1.00  0.00     0.166 HD
ENDROOT
TORSDOF 0
ENDMDL
MODEL 12
REMARK VINA RESULT:      -6.4     15.291     15.738
REMARK  0 active torsions:
REMARK  status: ('A' for Active; 'I' for Inactive)
ROOT
HETATM    1  C   LIG     1      23.958  21.611  23.518  1.00  0.00     0.004 A 
HETATM    2  C   LIG     1      23.006  20.690  23.093  1.00  0.00     0.015 A 
HETATM    3  C   LIG     1      22.809  20.535  21.712  1.00  0.00     0.013 A 
HETATM    4  C   LIG     1      24.705  22.366  22.636  1.00  0.00     0.055 A 
HETATM    5  N   LIG     1      25.559  23.183  23.297  1.00  0.00    -0.353 N 
HETATM    6  C   LIG     1      25.343  22.937  24.612  1.00  0.00     0.055 A 
HETATM    7  C   LIG     1      25.977  23.527  25.718  1.00  0.00     0.002 A 
HETATM    8  C   LIG     1      26.974  24.507  25.586  1.00  0.00     0.014 A 
HETATM    9  C   LIG     1      27.568  25.057  26.726  1.00  0.00     0.001 A 
HETATM   10  C   LIG     1      27.175  24.639  28.000  1.00  0.00     0.001 A 
HETATM   11  C   LIG     1      26.184  23.664  28.147  1.00  0.00     0.012 A 
HETATM   12  C   LIG     1      25.575  23.099  27.017  1.00  0.00    -0.024 A 
HETATM   13  C   LIG     1      24.570  22.112  27.164  1.00  0.00     0.013 A 
HETATM   14  C   LIG     1      23.956  21.541  26.038  1.00  0.00     0.015 A 
HETATM   15  C   LIG     1      24.366  21.977  24.781  1.00  0.00     0.004 A 
HETATM   16  C   LIG     1      24.533  22.235  21.247  1.00  0.00     0.002 A 
HETATM   17  C   LIG     1      23.562  21.297  20.786  1.00  0.00    -0.024 A 
HETATM   18  C   LIG     1      23.362  21.137  19.407  1.00  0.00     0.012 A 
HETATM   19  C   LIG     1      24.106  21.890  18.495  1.00  0.00     0.001 A 
HETATM   20  C   LIG     1      25.057  22.807  18.948  1.00  0.00     0.001 A 
HETATM   21  C   LIG     1      25.273  22.984  20.317  1.00  0.00     0.014 A 
HETATM   22  H   LIG     1      26.237  23.858  22.883  1.00  0.00     0.166 HD
ENDROOT
TORSDOF 0
ENDMDL
MODEL 13
REMARK VINA RESULT:      -6.3     14.916     16.115
REMARK  0 active torsions:
REMARK  status: ('A' for Active; 'I' for Inactive)
ROOT
HETATM    1  C   LIG     1      24.239  21.871  20.921  1.00  0.00     0.004 A 
HETATM    2  C   LIG     1      23.977  21.597  19.582  1.00  0.00     0.015 A 
HETATM    3  C   LIG     1      24.637  22.365  18.610  1.00  0.00     0.013 A 
HETATM    4  C   LIG     1      25.115  22.862  21.316  1.00  0.00     0.055 A 
HETATM    5  N   LIG     1      25.196  22.929  22.667  1.00  0.00    -0.353 N 
HETATM    6  C   LIG     1      24.358  21.967  23.123  1.00  0.00     0.055 A 
HETATM    7  C   LIG     1      24.078  21.624  24.456  1.00  0.00     0.002 A 
HETATM    8  C   LIG     1      24.671  22.280  25.548  1.00  0.00     0.014 A 
HETATM    9  C   LIG     1      24.351  21.893  26.852  1.00  0.00     0.001 A 
HETATM   10  C   LIG     1      23.444  20.855  27.080  1.00  0.00     0.001 A 
HETATM   11  C   LIG     1      22.846  20.193  26.004  1.00  0.00     0.012 A 
HETATM   12  C   LIG     1      23.151  20.565  24.687  1.00  0.00    -0.024 A 
HETATM   13  C   LIG     1      22.546  19.896  23.595  1.00  0.00     0.013 A 
HETATM   14  C   LIG     1      22.848  20.263  22.274  1.00  0.00     0.015 A 
HETATM   15  C   LIG     1      23.755  21.300  22.076  1.00  0.00     0.004 A 
HETATM   16  C   LIG     1      25.792  23.649  20.369  1.00  0.00     0.002 A 
HETATM   17  C   LIG     1      25.541  23.387  18.990  1.00  0.00    -0.024 A 
HETATM   18  C   LIG     1      26.197  24.151  18.013  1.00  0.00     0.012 A 
HETATM   19  C   LIG     1      27.088  25.159  18.390  1.00  0.00     0.001 A 
HETATM   20  C   LIG     1      27.334  25.415  19.741  1.00  0.00     0.001 A 
HETATM   21  C   LIG     1      26.691  24.666  20.731  1.00  0.00     0.014 A 
HETATM   22  H   LIG     1      25.778  23.582  23.234  1.00  0.00     0.166 HD
ENDROOT
TORSDOF 0
ENDMDL
MODEL 14
REMARK VINA RESULT:      -6.3     14.923     16.138
REMARK  0 active torsions:
REMARK  status: ('A' for Active; 'I' for Inactive)
ROOT
HETATM    1  C   LIG     1      23.765  21.269  22.088  1.00  0.00     0.004 A 
HETATM    2  C   LIG     1      22.871  20.225  22.304  1.00  0.00     0.015 A 
HETATM    3  C   LIG     1      22.573  19.877  23.630  1.00  0.00     0.013 A 
HETATM    4  C   LIG     1      24.357  21.963  23.124  1.00  0.00     0.055 A 
HETATM    5  N   LIG     1      25.183  22.929  22.653  1.00  0.00    -0.353 N 
HETATM    6  C   LIG     1      25.106  22.837  21.303  1.00  0.00     0.055 A 
HETATM    7  C   LIG     1      25.773  23.616  20.343  1.00  0.00     0.002 A 
HETATM    8  C   LIG     1      26.657  24.651  20.689  1.00  0.00     0.014 A 
HETATM    9  C   LIG     1      27.292  25.392  19.687  1.00  0.00     0.001 A 
HETATM   10  C   LIG     1      27.052  25.110  18.340  1.00  0.00     0.001 A 
HETATM   11  C   LIG     1      26.174  24.084  17.980  1.00  0.00     0.012 A 
HETATM   12  C   LIG     1      25.527  23.327  18.969  1.00  0.00    -0.024 A 
HETATM   13  C   LIG     1      24.638  22.286  18.606  1.00  0.00     0.013 A 
HETATM   14  C   LIG     1      23.987  21.526  19.590  1.00  0.00     0.015 A 
HETATM   15  C   LIG     1      24.244  21.828  20.924  1.00  0.00     0.004 A 
HETATM   16  C   LIG     1      24.080  21.640  24.462  1.00  0.00     0.002 A 
HETATM   17  C   LIG     1      23.167  20.573  24.711  1.00  0.00    -0.024 A 
HETATM   18  C   LIG     1      22.863  20.220  26.034  1.00  0.00     0.012 A 
HETATM   19  C   LIG     1      23.451  20.909  27.098  1.00  0.00     0.001 A 
HETATM   20  C   LIG     1      24.345  21.955  26.854  1.00  0.00     0.001 A 
HETATM   21  C   LIG     1      24.662  22.323  25.544  1.00  0.00     0.014 A 
HETATM   22  H   LIG     1      25.755  23.599  23.209  1.00  0.00     0.166 HD
ENDROOT
TORSDOF 0
ENDMDL
MODEL 15
REMARK VINA RESULT:      -6.2     14.925     16.494
REMARK  0 active torsions:
REMARK  status: ('A' for Active; 'I' for Inactive)
ROOT
HETATM    1  C   LIG     1      27.201  22.978  18.020  1.00  0.00     0.004 A 
HETATM    2  C   LIG     1      28.107  22.750  16.988  1.00  0.00     0.015 A 
HETATM    3  C   LIG     1      28.909  23.821  16.567  1.00  0.00     0.013 A 
HETATM    4  C   LIG     1      27.071  24.208  18.633  1.00  0.00     0.055 A 
HETATM    5  N   LIG     1      26.127  24.171  19.603  1.00  0.00    -0.353 N 
HETATM    6  C   LIG     1      25.659  22.899  19.597  1.00  0.00     0.055 A 
HETATM    7  C   LIG     1      24.665  22.339  20.417  1.00  0.00     0.002 A 
HETATM    8  C   LIG     1      23.992  23.077  21.404  1.00  0.00     0.014 A 
HETATM    9  C   LIG     1      23.012  22.463  22.188  1.00  0.00     0.001 A 
HETATM   10  C   LIG     1      22.694  21.116  21.997  1.00  0.00     0.001 A 
HETATM   11  C   LIG     1      23.355  20.368  21.018  1.00  0.00     0.012 A 
HETATM   12  C   LIG     1      24.342  20.964  20.220  1.00  0.00    -0.024 A 
HETATM   13  C   LIG     1      25.013  20.209  19.227  1.00  0.00     0.013 A 
HETATM   14  C   LIG     1      26.002  20.798  18.425  1.00  0.00     0.015 A 
HETATM   15  C   LIG     1      26.299  22.142  18.637  1.00  0.00     0.004 A 
HETATM   16  C   LIG     1      27.860  25.301  18.235  1.00  0.00     0.002 A 
HETATM   17  C   LIG     1      28.795  25.093  17.179  1.00  0.00    -0.024 A 
HETATM   18  C   LIG     1      29.601  26.159  16.753  1.00  0.00     0.012 A 
HETATM   19  C   LIG     1      29.487  27.413  17.359  1.00  0.00     0.001 A 
HETATM   20  C   LIG     1      28.571  27.616  18.393  1.00  0.00     0.001 A 
HETATM   21  C   LIG     1      27.757  26.568  18.833  1.00  0.00     0.014 A 
HETATM   22  H   LIG     1      25.825  24.953  20.222  1.00  0.00     0.166 HD
ENDROOT
TORSDOF 0
ENDMDL
MODEL 16
REMARK VINA RESULT:      -6.1     15.035     15.828
REMARK  0 active torsions:
REMARK  status: ('A' for Active; 'I' for Inactive)
ROOT
HETATM    1  C   LIG     1      24.433  22.094  21.217  1.00  0.00     0.004 A 
HETATM    2  C   LIG     1      23.442  21.119  21.167  1.00  0.00     0.015 A 
HETATM    3  C   LIG     1      22.961  20.604  22.381  1.00  0.00     0.013 A 
HETATM    4  C   LIG     1      24.951  22.563  22.409  1.00  0.00     0.055 A 
HETATM    5  N   LIG     1      25.899  23.506  22.189  1.00  0.00    -0.353 N 
HETATM    6  C   LIG     1      25.976  23.627  20.842  1.00  0.00     0.055 A 
HETATM    7  C   LIG     1      26.810  24.477  20.096  1.00  0.00     0.002 A 
HETATM    8  C   LIG     1      27.726  25.358  20.696  1.00  0.00     0.014 A 
HETATM    9  C   LIG     1      28.530  26.178  19.899  1.00  0.00     0.001 A 
HETATM   10  C   LIG     1      28.430  26.129  18.507  1.00  0.00     0.001 A 
HETATM   11  C   LIG     1      27.524  25.257  17.895  1.00  0.00     0.012 A 
HETATM   12  C   LIG     1      26.708  24.425  18.675  1.00  0.00    -0.024 A 
HETATM   13  C   LIG     1      25.790  23.541  18.058  1.00  0.00     0.013 A 
HETATM   14  C   LIG     1      24.969  22.706  18.831  1.00  0.00     0.015 A 
HETATM   15  C   LIG     1      25.088  22.775  20.217  1.00  0.00     0.004 A 
HETATM   16  C   LIG     1      24.492  22.068  23.641  1.00  0.00     0.002 A 
HETATM   17  C   LIG     1      23.476  21.068  23.616  1.00  0.00    -0.024 A 
HETATM   18  C   LIG     1      22.991  20.549  24.826  1.00  0.00     0.012 A 
HETATM   19  C   LIG     1      23.500  21.008  26.043  1.00  0.00     0.001 A 
HETATM   20  C   LIG     1      24.495  21.988  26.067  1.00  0.00     0.001 A 
HETATM   21  C   LIG     1      24.993  22.519  24.874  1.00  0.00     0.014 A 
HETATM   22  H   LIG     1      26.451  24.026  22.904  1.00  0.00     0.166 HD
ENDROOT
TORSDOF 0
ENDMDL
MODEL 17
REMARK VINA RESULT:      -6.1     17.258     17.930
REMARK  0 active torsions:
REMARK  status: ('A' for Active; 'I' for Inactive)
ROOT
HETATM    1  C   LIG     1      27.647  26.689  30.666  1.00  0.00     0.004 A 
HETATM    2  C   LIG     1      27.214  25.518  30.052  1.00  0.00     0.015 A 
HETATM    3  C   LIG     1      27.671  25.246  28.753  1.00  0.00     0.013 A 
HETATM    4  C   LIG     1      28.501  27.578  30.045  1.00  0.00     0.055 A 
HETATM    5  N   LIG     1      28.772  28.635  30.849  1.00  0.00    -0.353 N 
HETATM    6  C   LIG     1      28.078  28.402  31.989  1.00  0.00     0.055 A 
HETATM    7  C   LIG     1      28.019  29.200  33.144  1.00  0.00     0.002 A 
HETATM    8  C   LIG     1      28.717  30.413  33.264  1.00  0.00     0.014 A 
HETATM    9  C   LIG     1      28.618  31.163  34.439  1.00  0.00     0.001 A 
HETATM   10  C   LIG     1      27.828  30.715  35.500  1.00  0.00     0.001 A 
HETATM   11  C   LIG     1      27.127  29.509  35.396  1.00  0.00     0.012 A 
HETATM   12  C   LIG     1      27.211  28.741  34.226  1.00  0.00    -0.024 A 
HETATM   13  C   LIG     1      26.502  27.520  34.118  1.00  0.00     0.013 A 
HETATM   14  C   LIG     1      26.582  26.745  32.950  1.00  0.00     0.015 A 
HETATM   15  C   LIG     1      27.377  27.216  31.909  1.00  0.00     0.004 A 
HETATM   16  C   LIG     1      28.977  27.336  28.745  1.00  0.00     0.002 A 
HETATM   17  C   LIG     1      28.547  26.143  28.094  1.00  0.00    -0.024 A 
HETATM   18  C   LIG     1      29.000  25.865  26.796  1.00  0.00     0.012 A 
HETATM   19  C   LIG     1      29.865  26.751  26.148  1.00  0.00     0.001 A 
HETATM   20  C   LIG     1      30.286  27.919  26.786  1.00  0.00     0.001 A 
HETATM   21  C   LIG     1      29.846  28.217  28.079  1.00  0.00     0.014 A 
HETATM   22  H   LIG     1      29.384  29.451  30.636  1.00  0.00     0.166 HD
ENDROOT
TORSDOF 0
ENDMDL
MODEL 18
REMARK VINA RESULT:      -5.8     16.418     17.793
REMARK  0 active torsions:
REMARK  status: ('A' for Active; 'I' for Inactive)
ROOT
HETATM    1  C   LIG     1      27.577  24.754  26.408  1.00  0.00     0.004 A 
HETATM    2  C   LIG     1      28.718  25.439  26.001  1.00  0.00     0.015 A 
HETATM    3  C   LIG     1      29.271  26.381  26.882  1.00  0.00     0.013 A 
HETATM    4  C   LIG     1      26.982  24.970  27.635  1.00  0.00     0.055 A 
HETATM    5  N   LIG     1      25.891  24.182  27.791  1.00  0.00    -0.353 N 
HETATM    6  C   LIG     1      25.802  23.464  26.646  1.00  0.00     0.055 A 
HETATM    7  C   LIG     1      24.841  22.499  26.303  1.00  0.00     0.002 A 
HETATM    8  C   LIG     1      23.788  22.138  27.160  1.00  0.00     0.014 A 
HETATM    9  C   LIG     1      22.863  21.170  26.761  1.00  0.00     0.001 A 
HETATM   10  C   LIG     1      22.976  20.555  25.512  1.00  0.00     0.001 A 
HETATM   11  C   LIG     1      24.019  20.902  24.647  1.00  0.00     0.012 A 
HETATM   12  C   LIG     1      24.958  21.872  25.027  1.00  0.00    -0.024 A 
HETATM   13  C   LIG     1      26.015  22.226  24.153  1.00  0.00     0.013 A 
HETATM   14  C   LIG     1      26.959  23.195  24.526  1.00  0.00     0.015 A 
HETATM   15  C   LIG     1      26.822  23.792  25.776  1.00  0.00     0.004 A 
HETATM   16  C   LIG     1      27.510  25.906  28.540  1.00  0.00     0.002 A 
HETATM   17  C   LIG     1      28.680  26.621  28.146  1.00  0.00    -0.024 A 
HETATM   18  C   LIG     1      29.238  27.564  29.022  1.00  0.00     0.012 A 
HETATM   19  C   LIG     1      28.653  27.799  30.269  1.00  0.00     0.001 A 
HETATM   20  C   LIG     1      27.508  27.097  30.655  1.00  0.00     0.001 A 
HETATM   21  C   LIG     1      26.934  26.154  29.797  1.00  0.00     0.014 A 
HETATM   22  H   LIG     1      25.256  24.138  28.617  1.00  0.00     0.166 HD
ENDROOT
TORSDOF 0
ENDMDL
MODEL 19
REMARK VINA RESULT:      -5.8     15.152     16.329
REMARK  0 active torsions:
REMARK  status: ('A' for Active; 'I' for Inactive)
ROOT
HETATM    1  C   LIG     1      28.328  24.411  21.845  1.00  0.00     0.004 A 
HETATM    2  C   LIG     1      29.611  24.700  22.302  1.00  0.00     0.015 A 
HETATM    3  C   LIG     1      30.390  25.596  21.555  1.00  0.00     0.013 A 
HETATM    4  C   LIG     1      27.808  24.972  20.696  1.00  0.00     0.055 A 
HETATM    5  N   LIG     1      26.547  24.533  20.468  1.00  0.00    -0.353 N 
HETATM    6  C   LIG     1      26.275  23.685  21.489  1.00  0.00     0.055 A 
HETATM    7  C   LIG     1      25.093  22.961  21.721  1.00  0.00     0.002 A 
HETATM    8  C   LIG     1      23.981  23.032  20.867  1.00  0.00     0.014 A 
HETATM    9  C   LIG     1      22.833  22.286  21.150  1.00  0.00     0.001 A 
HETATM   10  C   LIG     1      22.783  21.467  22.281  1.00  0.00     0.001 A 
HETATM   11  C   LIG     1      23.883  21.385  23.141  1.00  0.00     0.012 A 
HETATM   12  C   LIG     1      25.045  22.125  22.875  1.00  0.00    -0.024 A 
HETATM   13  C   LIG     1      26.160  22.043  23.744  1.00  0.00     0.013 A 
HETATM   14  C   LIG     1      27.326  22.780  23.485  1.00  0.00     0.015 A 
HETATM   15  C   LIG     1      27.348  23.588  22.351  1.00  0.00     0.004 A 
HETATM   16  C   LIG     1      28.562  25.873  19.925  1.00  0.00     0.002 A 
HETATM   17  C   LIG     1      29.880  26.185  20.373  1.00  0.00    -0.024 A 
HETATM   18  C   LIG     1      30.665  27.081  19.631  1.00  0.00     0.012 A 
HETATM   19  C   LIG     1      30.159  27.661  18.465  1.00  0.00     0.001 A 
HETATM   20  C   LIG     1      28.868  27.355  18.028  1.00  0.00     0.001 A 
HETATM   21  C   LIG     1      28.069  26.465  18.750  1.00  0.00     0.014 A 
HETATM   22  H   LIG     1      25.920  24.792  19.677  1.00  0.00     0.166 HD
ENDROOT
TORSDOF 0
ENDMDL
MODEL 20
REMARK VINA RESULT:      -5.8     15.199     15.976
REMARK  0 active torsions:
REMARK  status: ('A' for Active; 'I' for Inactive)
ROOT
HETATM    1  C   LIG     1      26.578  23.376  21.893  1.00  0.00     0.004 A 
HETATM    2  C   LIG     1      27.244  23.711  20.719  1.00  0.00     0.015 A 
HETATM    3  C   LIG     1      26.614  23.426  19.498  1.00  0.00     0.013 A 
HETATM    4  C   LIG     1      25.333  22.779  21.893  1.00  0.00     0.055 A 
HETATM    5  N   LIG     1      24.901  22.555  23.157  1.00  0.00    -0.353 N 
HETATM    6  C   LIG     1      25.890  23.017  23.959  1.00  0.00     0.055 A 
HETATM    7  C   LIG     1      25.935  23.020  25.363  1.00  0.00     0.002 A 
HETATM    8  C   LIG     1      24.894  22.510  26.156  1.00  0.00     0.014 A 
HETATM    9  C   LIG     1      24.998  22.541  27.550  1.00  0.00     0.001 A 
HETATM   10  C   LIG     1      26.133  23.077  28.163  1.00  0.00     0.001 A 
HETATM   11  C   LIG     1      27.178  23.589  27.388  1.00  0.00     0.012 A 
HETATM   12  C   LIG     1      27.095  23.568  25.988  1.00  0.00    -0.024 A 
HETATM   13  C   LIG     1      28.152  24.085  25.200  1.00  0.00     0.013 A 
HETATM   14  C   LIG     1      28.076  24.068  23.798  1.00  0.00     0.015 A 
HETATM   15  C   LIG     1      26.933  23.528  23.214  1.00  0.00     0.004 A 
HETATM   16  C   LIG     1      24.674  22.479  20.688  1.00  0.00     0.002 A 
HETATM   17  C   LIG     1      25.337  22.814  19.470  1.00  0.00    -0.024 A 
HETATM   18  C   LIG     1      24.712  22.532  18.247  1.00  0.00     0.012 A 
HETATM   19  C   LIG     1      23.452  21.928  18.222  1.00  0.00     0.001 A 
HETATM   20  C   LIG     1      22.804  21.601  19.416  1.00  0.00     0.001 A 
HETATM   21  C   LIG     1      23.408  21.873  20.646  1.00  0.00     0.014 A 
HETATM   22  H   LIG     1      24.000  22.120  23.450  1.00  0.00     0.166 HD
ENDROOT
TORSDOF 0
ENDMDL
