REMARK  0 active torsions:
REMARK  status: ('A' for Active; 'I' for Inactive)
ROOT
HETATM    1  C   LIG     1       0.692  -1.175  -0.461  1.00  0.00     0.004 A 
HETATM    2  C   LIG     1       1.612  -2.159  -0.809  1.00  0.00     0.015 A 
HETATM    3  C   LIG     1       2.977  -1.866  -0.665  1.00  0.00     0.013 A 
HETATM    4  C   LIG     1       1.076   0.063   0.015  1.00  0.00     0.055 A 
HETATM    5  N   LIG     1      -0.003   0.838   0.281  1.00  0.00    -0.353 N 
HETATM    6  C   LIG     1      -1.077   0.074  -0.034  1.00  0.00     0.055 A 
HETATM    7  C   LIG     1      -2.437   0.413   0.061  1.00  0.00     0.002 A 
HETATM    8  C   LIG     1      -2.876   1.665   0.522  1.00  0.00     0.014 A 
HETATM    9  C   LIG     1      -4.244   1.943   0.593  1.00  0.00     0.001 A 
HETATM   10  C   LIG     1      -5.182   0.982   0.208  1.00  0.00     0.001 A 
HETATM   11  C   LIG     1      -4.761  -0.269  -0.253  1.00  0.00     0.012 A 
HETATM   12  C   LIG     1      -3.393  -0.569  -0.333  1.00  0.00    -0.024 A 
HETATM   13  C   LIG     1      -2.964  -1.835  -0.800  1.00  0.00     0.013 A 
HETATM   14  C   LIG     1      -1.597  -2.143  -0.882  1.00  0.00     0.015 A 
HETATM   15  C   LIG     1      -0.684  -1.167  -0.492  1.00  0.00     0.004 A 
HETATM   16  C   LIG     1       2.434   0.388   0.171  1.00  0.00     0.002 A 
HETATM   17  C   LIG     1       3.397  -0.604  -0.179  1.00  0.00    -0.024 A 
HETATM   18  C   LIG     1       4.763  -0.318  -0.037  1.00  0.00     0.012 A 
HETATM   19  C   LIG     1       5.175   0.928   0.443  1.00  0.00     0.001 A 
HETATM   20  C   LIG     1       4.231   1.899   0.786  1.00  0.00     0.001 A 
HETATM   21  C   LIG     1       2.865   1.636   0.652  1.00  0.00     0.014 A 
HETATM   22  H   LIG     1      -0.006   1.813   0.649  1.00  0.00     0.166 HD
ENDROOT
TORSDOF 0
