MODEL 1
REMARK VINA RESULT:      -8.4      0.000      0.000
REMARK  0 active torsions:
REMARK  status: ('A' for Active; 'I' for Inactive)
ROOT
HETATM    1  C   LIG     1      16.666  35.229  22.363  1.00  0.00    -0.018 A 
HETATM    2  C   LIG     1      16.245  33.972  21.934  1.00  0.00     0.025 A 
HETATM    3  C   LIG     1      15.857  33.821  20.588  1.00  0.00    -0.025 A 
HETATM    4  C   LIG     1      15.425  32.576  20.106  1.00  0.00     0.012 A 
HETATM    5  C   LIG     1      15.042  32.435  18.770  1.00  0.00     0.001 A 
HETATM    6  C   LIG     1      15.087  33.531  17.902  1.00  0.00     0.001 A 
HETATM    7  C   LIG     1      15.514  34.779  18.364  1.00  0.00     0.012 A 
HETATM    8  C   LIG     1      15.903  34.940  19.703  1.00  0.00    -0.025 A 
HETATM    9  C   LIG     1      16.335  36.196  20.175  1.00  0.00     0.020 A 
HETATM   10  C   LIG     1      16.713  36.316  21.512  1.00  0.00    -0.042 A 
HETATM   11  C   LIG     1      17.200  37.549  22.216  1.00  0.00     0.078 A 
HETATM   12  C   LIG     1      17.426  37.006  23.597  1.00  0.00    -0.043 A 
HETATM   13  C   LIG     1      17.113  35.661  23.671  1.00  0.00    -0.019 A 
HETATM   14  C   LIG     1      17.245  34.940  24.858  1.00  0.00     0.013 A 
HETATM   15  C   LIG     1      17.708  35.619  25.997  1.00  0.00     0.001 A 
HETATM   16  C   LIG     1      18.028  36.989  25.929  1.00  0.00     0.001 A 
HETATM   17  C   LIG     1      17.887  37.693  24.721  1.00  0.00     0.008 A 
ENDROOT
TORSDOF 0
ENDMDL
MODEL 2
REMARK VINA RESULT:      -7.6      0.589      5.802
REMARK  0 active torsions:
REMARK  status: ('A' for Active; 'I' for Inactive)
ROOT
HETATM    1  C   LIG     1      16.565  34.981  22.041  1.00  0.00    -0.018 A 
HETATM    2  C   LIG     1      16.777  34.510  23.335  1.00  0.00     0.025 A 
HETATM    3  C   LIG     1      17.265  35.410  24.302  1.00  0.00    -0.025 A 
HETATM    4  C   LIG     1      17.496  34.984  25.619  1.00  0.00     0.012 A 
HETATM    5  C   LIG     1      17.980  35.883  26.573  1.00  0.00     0.001 A 
HETATM    6  C   LIG     1      18.238  37.212  26.224  1.00  0.00     0.001 A 
HETATM    7  C   LIG     1      18.015  37.655  24.916  1.00  0.00     0.012 A 
HETATM    8  C   LIG     1      17.528  36.767  23.945  1.00  0.00    -0.025 A 
HETATM    9  C   LIG     1      17.301  37.206  22.626  1.00  0.00     0.020 A 
HETATM   10  C   LIG     1      16.818  36.293  21.689  1.00  0.00    -0.042 A 
HETATM   11  C   LIG     1      16.509  36.546  20.242  1.00  0.00     0.078 A 
HETATM   12  C   LIG     1      16.041  35.185  19.818  1.00  0.00    -0.043 A 
HETATM   13  C   LIG     1      16.077  34.286  20.868  1.00  0.00    -0.019 A 
HETATM   14  C   LIG     1      15.687  32.956  20.710  1.00  0.00     0.013 A 
HETATM   15  C   LIG     1      15.249  32.540  19.443  1.00  0.00     0.001 A 
HETATM   16  C   LIG     1      15.209  33.450  18.368  1.00  0.00     0.001 A 
HETATM   17  C   LIG     1      15.607  34.785  18.553  1.00  0.00     0.008 A 
ENDROOT
TORSDOF 0
ENDMDL
MODEL 3
REMARK VINA RESULT:      -7.4      1.189      2.692
REMARK  0 active torsions:
REMARK  status: ('A' for Active; 'I' for Inactive)
ROOT
HETATM    1  C   LIG     1      16.499  35.780  20.880  1.00  0.00    -0.018 A 
HETATM    2  C   LIG     1      16.265  35.675  19.510  1.00  0.00     0.025 A 
HETATM    3  C   LIG     1      15.703  34.480  19.018  1.00  0.00    -0.025 A 
HETATM    4  C   LIG     1      15.449  34.323  17.648  1.00  0.00     0.012 A 
HETATM    5  C   LIG     1      14.892  33.135  17.168  1.00  0.00     0.001 A 
HETATM    6  C   LIG     1      14.583  32.094  18.049  1.00  0.00     0.001 A 
HETATM    7  C   LIG     1      14.831  32.231  19.418  1.00  0.00     0.012 A 
HETATM    8  C   LIG     1      15.389  33.417  19.918  1.00  0.00    -0.025 A 
HETATM    9  C   LIG     1      15.640  33.562  21.297  1.00  0.00     0.020 A 
HETATM   10  C   LIG     1      16.197  34.756  21.755  1.00  0.00    -0.042 A 
HETATM   11  C   LIG     1      16.544  35.118  23.171  1.00  0.00     0.078 A 
HETATM   12  C   LIG     1      17.088  36.503  22.975  1.00  0.00    -0.043 A 
HETATM   13  C   LIG     1      17.057  36.877  21.644  1.00  0.00    -0.019 A 
HETATM   14  C   LIG     1      17.514  38.125  21.220  1.00  0.00     0.013 A 
HETATM   15  C   LIG     1      18.014  39.010  22.189  1.00  0.00     0.001 A 
HETATM   16  C   LIG     1      18.049  38.637  23.547  1.00  0.00     0.001 A 
HETATM   17  C   LIG     1      17.582  37.373  23.947  1.00  0.00     0.008 A 
ENDROOT
TORSDOF 0
ENDMDL
MODEL 4
REMARK VINA RESULT:      -7.4      2.393      4.124
REMARK  0 active torsions:
REMARK  status: ('A' for Active; 'I' for Inactive)
ROOT
HETATM    1  C   LIG     1      17.966  37.119  22.843  1.00  0.00    -0.018 A 
HETATM    2  C   LIG     1      18.428  38.311  22.289  1.00  0.00     0.025 A 
HETATM    3  C   LIG     1      18.522  38.403  20.886  1.00  0.00    -0.025 A 
HETATM    4  C   LIG     1      18.981  39.582  20.279  1.00  0.00     0.012 A 
HETATM    5  C   LIG     1      19.072  39.665  18.887  1.00  0.00     0.001 A 
HETATM    6  C   LIG     1      18.707  38.577  18.089  1.00  0.00     0.001 A 
HETATM    7  C   LIG     1      18.248  37.394  18.676  1.00  0.00     0.012 A 
HETATM    8  C   LIG     1      18.149  37.292  20.072  1.00  0.00    -0.025 A 
HETATM    9  C   LIG     1      17.687  36.102  20.670  1.00  0.00     0.020 A 
HETATM   10  C   LIG     1      17.604  36.040  22.061  1.00  0.00    -0.042 A 
HETATM   11  C   LIG     1      17.143  34.881  22.897  1.00  0.00     0.078 A 
HETATM   12  C   LIG     1      17.295  35.458  24.274  1.00  0.00    -0.043 A 
HETATM   13  C   LIG     1      17.772  36.755  24.231  1.00  0.00    -0.019 A 
HETATM   14  C   LIG     1      17.993  37.495  25.393  1.00  0.00     0.013 A 
HETATM   15  C   LIG     1      17.717  36.887  26.628  1.00  0.00     0.001 A 
HETATM   16  C   LIG     1      17.230  35.566  26.680  1.00  0.00     0.001 A 
HETATM   17  C   LIG     1      17.015  34.842  25.494  1.00  0.00     0.008 A 
ENDROOT
TORSDOF 0
ENDMDL
MODEL 5
REMARK VINA RESULT:      -7.3      2.776      5.877
REMARK  0 active torsions:
REMARK  status: ('A' for Active; 'I' for Inactive)
ROOT
HETATM    1  C   LIG     1      18.064  37.294  22.086  1.00  0.00    -0.018 A 
HETATM    2  C   LIG     1      17.734  36.081  22.689  1.00  0.00     0.025 A 
HETATM    3  C   LIG     1      17.597  36.047  24.090  1.00  0.00    -0.025 A 
HETATM    4  C   LIG     1      17.267  34.851  24.745  1.00  0.00     0.012 A 
HETATM    5  C   LIG     1      17.132  34.825  26.135  1.00  0.00     0.001 A 
HETATM    6  C   LIG     1      17.325  35.989  26.885  1.00  0.00     0.001 A 
HETATM    7  C   LIG     1      17.656  37.190  26.251  1.00  0.00     0.012 A 
HETATM    8  C   LIG     1      17.795  37.236  24.855  1.00  0.00    -0.025 A 
HETATM    9  C   LIG     1      18.128  38.443  24.209  1.00  0.00     0.020 A 
HETATM   10  C   LIG     1      18.257  38.447  22.821  1.00  0.00    -0.042 A 
HETATM   11  C   LIG     1      18.602  39.613  21.939  1.00  0.00     0.078 A 
HETATM   12  C   LIG     1      18.578  38.954  20.591  1.00  0.00    -0.043 A 
HETATM   13  C   LIG     1      18.265  37.611  20.688  1.00  0.00    -0.019 A 
HETATM   14  C   LIG     1      18.184  36.793  19.561  1.00  0.00     0.013 A 
HETATM   15  C   LIG     1      18.431  37.369  18.304  1.00  0.00     0.001 A 
HETATM   16  C   LIG     1      18.750  38.737  18.198  1.00  0.00     0.001 A 
HETATM   17  C   LIG     1      18.825  39.541  19.349  1.00  0.00     0.008 A 
ENDROOT
TORSDOF 0
ENDMDL
MODEL 6
REMARK VINA RESULT:      -7.3      1.246      6.328
REMARK  0 active torsions:
REMARK  status: ('A' for Active; 'I' for Inactive)
ROOT
HETATM    1  C   LIG     1      16.085  34.970  20.001  1.00  0.00    -0.018 A 
HETATM    2  C   LIG     1      16.728  36.207  20.012  1.00  0.00     0.025 A 
HETATM    3  C   LIG     1      17.060  36.777  21.257  1.00  0.00    -0.025 A 
HETATM    4  C   LIG     1      17.707  38.020  21.322  1.00  0.00     0.012 A 
HETATM    5  C   LIG     1      18.033  38.578  22.560  1.00  0.00     0.001 A 
HETATM    6  C   LIG     1      17.719  37.903  23.744  1.00  0.00     0.001 A 
HETATM    7  C   LIG     1      17.074  36.663  23.699  1.00  0.00     0.012 A 
HETATM    8  C   LIG     1      16.739  36.087  22.465  1.00  0.00    -0.025 A 
HETATM    9  C   LIG     1      16.089  34.838  22.413  1.00  0.00     0.020 A 
HETATM   10  C   LIG     1      15.771  34.298  21.166  1.00  0.00    -0.042 A 
HETATM   11  C   LIG     1      15.085  32.993  20.884  1.00  0.00     0.078 A 
HETATM   12  C   LIG     1      15.054  33.018  19.383  1.00  0.00    -0.043 A 
HETATM   13  C   LIG     1      15.636  34.168  18.883  1.00  0.00    -0.019 A 
HETATM   14  C   LIG     1      15.721  34.411  17.512  1.00  0.00     0.013 A 
HETATM   15  C   LIG     1      15.195  33.449  16.634  1.00  0.00     0.001 A 
HETATM   16  C   LIG     1      14.601  32.275  17.137  1.00  0.00     0.001 A 
HETATM   17  C   LIG     1      14.528  32.053  18.524  1.00  0.00     0.008 A 
ENDROOT
TORSDOF 0
ENDMDL
MODEL 7
REMARK VINA RESULT:      -7.2      2.809      3.819
REMARK  0 active torsions:
REMARK  status: ('A' for Active; 'I' for Inactive)
ROOT
HETATM    1  C   LIG     1      17.925  37.018  22.794  1.00  0.00    -0.018 A 
HETATM    2  C   LIG     1      17.957  36.485  21.507  1.00  0.00     0.025 A 
HETATM    3  C   LIG     1      18.248  37.349  20.433  1.00  0.00    -0.025 A 
HETATM    4  C   LIG     1      18.292  36.862  19.118  1.00  0.00     0.012 A 
HETATM    5  C   LIG     1      18.582  37.725  18.059  1.00  0.00     0.001 A 
HETATM    6  C   LIG     1      18.829  39.080  18.299  1.00  0.00     0.001 A 
HETATM    7  C   LIG     1      18.789  39.584  19.603  1.00  0.00     0.012 A 
HETATM    8  C   LIG     1      18.500  38.732  20.679  1.00  0.00    -0.025 A 
HETATM    9  C   LIG     1      18.458  39.234  21.996  1.00  0.00     0.020 A 
HETATM   10  C   LIG     1      18.168  38.355  23.039  1.00  0.00    -0.042 A 
HETATM   11  C   LIG     1      18.073  38.675  24.503  1.00  0.00     0.078 A 
HETATM   12  C   LIG     1      17.740  37.321  25.059  1.00  0.00    -0.043 A 
HETATM   13  C   LIG     1      17.656  36.369  24.061  1.00  0.00    -0.019 A 
HETATM   14  C   LIG     1      17.357  35.036  24.340  1.00  0.00     0.013 A 
HETATM   15  C   LIG     1      17.138  34.672  25.679  1.00  0.00     0.001 A 
HETATM   16  C   LIG     1      17.221  35.638  26.702  1.00  0.00     0.001 A 
HETATM   17  C   LIG     1      17.525  36.975  26.394  1.00  0.00     0.008 A 
ENDROOT
TORSDOF 0
ENDMDL
MODEL 8
REMARK VINA RESULT:      -7.1      2.259      5.970
REMARK  0 active torsions:
REMARK  status: ('A' for Active; 'I' for Inactive)
ROOT
HETATM    1  C   LIG     1      18.106  37.350  22.226  1.00  0.00    -0.018 A 
HETATM    2  C   LIG     1      18.254  37.760  23.550  1.00  0.00     0.025 A 
HETATM    3  C   LIG     1      17.874  36.867  24.571  1.00  0.00    -0.025 A 
HETATM    4  C   LIG     1      18.003  37.232  25.920  1.00  0.00     0.012 A 
HETATM    5  C   LIG     1      17.623  36.341  26.928  1.00  0.00     0.001 A 
HETATM    6  C   LIG     1      17.113  35.081  26.601  1.00  0.00     0.001 A 
HETATM    7  C   LIG     1      16.977  34.700  25.262  1.00  0.00     0.012 A 
HETATM    8  C   LIG     1      17.353  35.581  24.237  1.00  0.00    -0.025 A 
HETATM    9  C   LIG     1      17.219  35.204  22.886  1.00  0.00     0.020 A 
HETATM   10  C   LIG     1      17.603  36.107  21.896  1.00  0.00    -0.042 A 
HETATM   11  C   LIG     1      17.544  35.912  20.408  1.00  0.00     0.078 A 
HETATM   12  C   LIG     1      18.090  37.228  19.936  1.00  0.00    -0.043 A 
HETATM   13  C   LIG     1      18.412  38.053  20.998  1.00  0.00    -0.019 A 
HETATM   14  C   LIG     1      18.938  39.331  20.802  1.00  0.00     0.013 A 
HETATM   15  C   LIG     1      19.137  39.770  19.482  1.00  0.00     0.001 A 
HETATM   16  C   LIG     1      18.811  38.934  18.396  1.00  0.00     0.001 A 
HETATM   17  C   LIG     1      18.283  37.651  18.621  1.00  0.00     0.008 A 
ENDROOT
TORSDOF 0
ENDMDL
MODEL 9
REMARK VINA RESULT:      -6.6      2.068      5.578
REMARK  0 active torsions:
REMARK  status: ('A' for Active; 'I' for Inactive)
ROOT
HETATM    1  C   LIG     1      16.624  35.407  20.437  1.00  0.00    -0.018 A 
HETATM    2  C   LIG     1      17.565  36.037  19.625  1.00  0.00     0.025 A 
HETATM    3  C   LIG     1      18.131  37.247  20.072  1.00  0.00    -0.025 A 
HETATM    4  C   LIG     1      19.083  37.920  19.292  1.00  0.00     0.012 A 
HETATM    5  C   LIG     1      19.639  39.120  19.742  1.00  0.00     0.001 A 
HETATM    6  C   LIG     1      19.253  39.659  20.973  1.00  0.00     0.001 A 
HETATM    7  C   LIG     1      18.305  39.003  21.765  1.00  0.00     0.012 A 
HETATM    8  C   LIG     1      17.736  37.797  21.329  1.00  0.00    -0.025 A 
HETATM    9  C   LIG     1      16.780  37.130  22.122  1.00  0.00     0.020 A 
HETATM   10  C   LIG     1      16.237  35.934  21.654  1.00  0.00    -0.042 A 
HETATM   11  C   LIG     1      15.214  35.068  22.331  1.00  0.00     0.078 A 
HETATM   12  C   LIG     1      15.073  33.967  21.321  1.00  0.00    -0.043 A 
HETATM   13  C   LIG     1      15.895  34.174  20.228  1.00  0.00    -0.019 A 
HETATM   14  C   LIG     1      15.933  33.278  19.159  1.00  0.00     0.013 A 
HETATM   15  C   LIG     1      15.108  32.143  19.215  1.00  0.00     0.001 A 
HETATM   16  C   LIG     1      14.269  31.927  20.326  1.00  0.00     0.001 A 
HETATM   17  C   LIG     1      14.248  32.844  21.391  1.00  0.00     0.008 A 
ENDROOT
TORSDOF 0
ENDMDL
MODEL 10
REMARK VINA RESULT:      -6.5      6.882     11.982
REMARK  0 active torsions:
REMARK  status: ('A' for Active; 'I' for Inactive)
ROOT
HETATM    1  C   LIG     1      13.419  28.547  13.914  1.00  0.00    -0.018 A 
HETATM    2  C   LIG     1      12.730  29.385  14.789  1.00  0.00     0.025 A 
HETATM    3  C   LIG     1      13.444  30.418  15.426  1.00  0.00    -0.025 A 
HETATM    4  C   LIG     1      12.796  31.289  16.315  1.00  0.00     0.012 A 
HETATM    5  C   LIG     1      13.511  32.311  16.944  1.00  0.00     0.001 A 
HETATM    6  C   LIG     1      14.877  32.476  16.691  1.00  0.00     0.001 A 
HETATM    7  C   LIG     1      15.540  31.618  15.808  1.00  0.00     0.012 A 
HETATM    8  C   LIG     1      14.838  30.586  15.168  1.00  0.00    -0.025 A 
HETATM    9  C   LIG     1      15.500  29.718  14.277  1.00  0.00     0.020 A 
HETATM   10  C   LIG     1      14.768  28.704  13.660  1.00  0.00    -0.042 A 
HETATM   11  C   LIG     1      15.270  27.677  12.686  1.00  0.00     0.078 A 
HETATM   12  C   LIG     1      14.008  26.911  12.420  1.00  0.00    -0.043 A 
HETATM   13  C   LIG     1      12.942  27.423  13.136  1.00  0.00    -0.019 A 
HETATM   14  C   LIG     1      11.664  26.870  13.048  1.00  0.00     0.013 A 
HETATM   15  C   LIG     1      11.478  25.764  12.203  1.00  0.00     0.001 A 
HETATM   16  C   LIG     1      12.559  25.236  11.470  1.00  0.00     0.001 A 
HETATM   17  C   LIG     1      13.837  25.812  11.576  1.00  0.00     0.008 A 
ENDROOT
TORSDOF 0
ENDMDL
MODEL 11
REMARK VINA RESULT:      -6.5      2.736      5.711
REMARK  0 active torsions:
REMARK  status: ('A' for Active; 'I' for Inactive)
ROOT
HETATM    1  C   LIG     1      15.365  33.007  17.880  1.00  0.00    -0.018 A 
HETATM    2  C   LIG     1      15.811  33.241  16.581  1.00  0.00     0.025 A 
HETATM    3  C   LIG     1      15.519  32.281  15.592  1.00  0.00    -0.025 A 
HETATM    4  C   LIG     1      15.946  32.469  14.268  1.00  0.00     0.012 A 
HETATM    5  C   LIG     1      15.653  31.513  13.293  1.00  0.00     0.001 A 
HETATM    6  C   LIG     1      14.933  30.361  13.627  1.00  0.00     0.001 A 
HETATM    7  C   LIG     1      14.500  30.156  14.941  1.00  0.00     0.012 A 
HETATM    8  C   LIG     1      14.785  31.106  15.933  1.00  0.00    -0.025 A 
HETATM    9  C   LIG     1      14.351  30.905  17.259  1.00  0.00     0.020 A 
HETATM   10  C   LIG     1      14.654  31.872  18.217  1.00  0.00    -0.042 A 
HETATM   11  C   LIG     1      14.293  31.858  19.675  1.00  0.00     0.078 A 
HETATM   12  C   LIG     1      14.902  33.155  20.121  1.00  0.00    -0.043 A 
HETATM   13  C   LIG     1      15.521  33.812  19.074  1.00  0.00    -0.019 A 
HETATM   14  C   LIG     1      16.158  35.040  19.251  1.00  0.00     0.013 A 
HETATM   15  C   LIG     1      16.160  35.606  20.536  1.00  0.00     0.001 A 
HETATM   16  C   LIG     1      15.531  34.942  21.608  1.00  0.00     0.001 A 
HETATM   17  C   LIG     1      14.896  33.705  21.403  1.00  0.00     0.008 A 
ENDROOT
TORSDOF 0
ENDMDL
MODEL 12
REMARK VINA RESULT:      -6.5      6.922     10.705
REMARK  0 active torsions:
REMARK  status: ('A' for Active; 'I' for Inactive)
ROOT
HETATM    1  C   LIG     1      13.536  29.183  14.375  1.00  0.00    -0.018 A 
HETATM    2  C   LIG     1      12.441  28.383  14.049  1.00  0.00     0.025 A 
HETATM    3  C   LIG     1      12.633  27.328  13.136  1.00  0.00    -0.025 A 
HETATM    4  C   LIG     1      11.564  26.495  12.775  1.00  0.00     0.012 A 
HETATM    5  C   LIG     1      11.762  25.450  11.868  1.00  0.00     0.001 A 
HETATM    6  C   LIG     1      13.026  25.226  11.314  1.00  0.00     0.001 A 
HETATM    7  C   LIG     1      14.104  26.047  11.661  1.00  0.00     0.012 A 
HETATM    8  C   LIG     1      13.924  27.100  12.570  1.00  0.00    -0.025 A 
HETATM    9  C   LIG     1      15.006  27.931  12.925  1.00  0.00     0.020 A 
HETATM   10  C   LIG     1      14.787  28.968  13.831  1.00  0.00    -0.042 A 
HETATM   11  C   LIG     1      15.790  29.962  14.341  1.00  0.00     0.078 A 
HETATM   12  C   LIG     1      14.926  30.777  15.259  1.00  0.00    -0.043 A 
HETATM   13  C   LIG     1      13.622  30.317  15.270  1.00  0.00    -0.019 A 
HETATM   14  C   LIG     1      12.637  30.921  16.051  1.00  0.00     0.013 A 
HETATM   15  C   LIG     1      13.001  32.025  16.840  1.00  0.00     0.001 A 
HETATM   16  C   LIG     1      14.328  32.499  16.833  1.00  0.00     0.001 A 
HETATM   17  C   LIG     1      15.302  31.873  16.037  1.00  0.00     0.008 A 
ENDROOT
TORSDOF 0
ENDMDL
MODEL 13
REMARK VINA RESULT:      -6.4      7.321      9.535
REMARK  0 active torsions:
REMARK  status: ('A' for Active; 'I' for Inactive)
ROOT
HETATM    1  C   LIG     1      17.073  32.409  13.526  1.00  0.00    -0.018 A 
HETATM    2  C   LIG     1      16.164  31.374  13.315  1.00  0.00     0.025 A 
HETATM    3  C   LIG     1      15.180  31.139  14.295  1.00  0.00    -0.025 A 
HETATM    4  C   LIG     1      14.242  30.109  14.130  1.00  0.00     0.012 A 
HETATM    5  C   LIG     1      13.269  29.882  15.106  1.00  0.00     0.001 A 
HETATM    6  C   LIG     1      13.221  30.679  16.254  1.00  0.00     0.001 A 
HETATM    7  C   LIG     1      14.147  31.710  16.436  1.00  0.00     0.012 A 
HETATM    8  C   LIG     1      15.131  31.953  15.467  1.00  0.00    -0.025 A 
HETATM    9  C   LIG     1      16.068  32.991  15.644  1.00  0.00     0.020 A 
HETATM   10  C   LIG     1      17.032  33.200  14.658  1.00  0.00    -0.042 A 
HETATM   11  C   LIG     1      18.115  34.240  14.645  1.00  0.00     0.078 A 
HETATM   12  C   LIG     1      18.782  33.927  13.338  1.00  0.00    -0.043 A 
HETATM   13  C   LIG     1      18.170  32.865  12.698  1.00  0.00    -0.019 A 
HETATM   14  C   LIG     1      18.618  32.394  11.464  1.00  0.00     0.013 A 
HETATM   15  C   LIG     1      19.722  33.030  10.873  1.00  0.00     0.001 A 
HETATM   16  C   LIG     1      20.351  34.113  11.519  1.00  0.00     0.001 A 
HETATM   17  C   LIG     1      19.879  34.569  12.762  1.00  0.00     0.008 A 
ENDROOT
TORSDOF 0
ENDMDL
MODEL 14
REMARK VINA RESULT:      -6.3      6.764      9.278
REMARK  0 active torsions:
REMARK  status: ('A' for Active; 'I' for Inactive)
ROOT
HETATM    1  C   LIG     1      16.297  32.173  14.196  1.00  0.00    -0.018 A 
HETATM    2  C   LIG     1      16.949  31.909  12.992  1.00  0.00     0.025 A 
HETATM    3  C   LIG     1      18.053  32.709  12.641  1.00  0.00    -0.025 A 
HETATM    4  C   LIG     1      18.743  32.485  11.441  1.00  0.00     0.012 A 
HETATM    5  C   LIG     1      19.838  33.283  11.099  1.00  0.00     0.001 A 
HETATM    6  C   LIG     1      20.255  34.311  11.951  1.00  0.00     0.001 A 
HETATM    7  C   LIG     1      19.579  34.551  13.151  1.00  0.00     0.012 A 
HETATM    8  C   LIG     1      18.478  33.759  13.511  1.00  0.00    -0.025 A 
HETATM    9  C   LIG     1      17.793  33.995  14.719  1.00  0.00     0.020 A 
HETATM   10  C   LIG     1      16.703  33.187  15.041  1.00  0.00    -0.042 A 
HETATM   11  C   LIG     1      15.839  33.264  16.267  1.00  0.00     0.078 A 
HETATM   12  C   LIG     1      14.878  32.142  15.997  1.00  0.00    -0.043 A 
HETATM   13  C   LIG     1      15.153  31.517  14.795  1.00  0.00    -0.019 A 
HETATM   14  C   LIG     1      14.390  30.445  14.333  1.00  0.00     0.013 A 
HETATM   15  C   LIG     1      13.319  30.003  15.128  1.00  0.00     0.001 A 
HETATM   16  C   LIG     1      13.033  30.636  16.354  1.00  0.00     0.001 A 
HETATM   17  C   LIG     1      13.818  31.715  16.796  1.00  0.00     0.008 A 
ENDROOT
TORSDOF 0
ENDMDL
MODEL 15
REMARK VINA RESULT:      -6.2     16.555     18.457
REMARK  0 active torsions:
REMARK  status: ('A' for Active; 'I' for Inactive)
ROOT
HETATM    1  C   LIG     1      27.482  29.239  33.976  1.00  0.00    -0.018 A 
HETATM    2  C   LIG     1      26.533  29.302  34.995  1.00  0.00     0.025 A 
HETATM    3  C   LIG     1      26.739  30.220  36.044  1.00  0.00    -0.025 A 
HETATM    4  C   LIG     1      25.813  30.322  37.093  1.00  0.00     0.012 A 
HETATM    5  C   LIG     1      26.024  31.235  38.129  1.00  0.00     0.001 A 
HETATM    6  C   LIG     1      27.158  32.054  38.129  1.00  0.00     0.001 A 
HETATM    7  C   LIG     1      28.092  31.966  37.093  1.00  0.00     0.012 A 
HETATM    8  C   LIG     1      27.896  31.055  36.043  1.00  0.00    -0.025 A 
HETATM    9  C   LIG     1      28.833  30.962  34.995  1.00  0.00     0.020 A 
HETATM   10  C   LIG     1      28.604  30.044  33.970  1.00  0.00    -0.042 A 
HETATM   11  C   LIG     1      29.465  29.782  32.768  1.00  0.00     0.078 A 
HETATM   12  C   LIG     1      28.669  28.708  32.088  1.00  0.00    -0.043 A 
HETATM   13  C   LIG     1      27.521  28.401  32.796  1.00  0.00    -0.019 A 
HETATM   14  C   LIG     1      26.624  27.429  32.354  1.00  0.00     0.013 A 
HETATM   15  C   LIG     1      26.912  26.757  31.155  1.00  0.00     0.001 A 
HETATM   16  C   LIG     1      28.079  27.065  30.428  1.00  0.00     0.001 A 
HETATM   17  C   LIG     1      28.967  28.049  30.895  1.00  0.00     0.008 A 
ENDROOT
TORSDOF 0
ENDMDL
MODEL 16
REMARK VINA RESULT:      -6.2      6.603     11.519
REMARK  0 active torsions:
REMARK  status: ('A' for Active; 'I' for Inactive)
ROOT
HETATM    1  C   LIG     1      14.786  29.120  13.859  1.00  0.00    -0.018 A 
HETATM    2  C   LIG     1      15.603  30.165  14.286  1.00  0.00     0.025 A 
HETATM    3  C   LIG     1      15.085  31.073  15.231  1.00  0.00    -0.025 A 
HETATM    4  C   LIG     1      15.867  32.143  15.693  1.00  0.00     0.012 A 
HETATM    5  C   LIG     1      15.347  33.039  16.631  1.00  0.00     0.001 A 
HETATM    6  C   LIG     1      14.045  32.878  17.115  1.00  0.00     0.001 A 
HETATM    7  C   LIG     1      13.251  31.819  16.666  1.00  0.00     0.012 A 
HETATM    8  C   LIG     1      13.757  30.908  15.725  1.00  0.00    -0.025 A 
HETATM    9  C   LIG     1      12.962  29.838  15.268  1.00  0.00     0.020 A 
HETATM   10  C   LIG     1      13.500  28.955  14.333  1.00  0.00    -0.042 A 
HETATM   11  C   LIG     1      12.833  27.758  13.717  1.00  0.00     0.078 A 
HETATM   12  C   LIG     1      13.930  27.263  12.821  1.00  0.00    -0.043 A 
HETATM   13  C   LIG     1      15.057  28.059  12.911  1.00  0.00    -0.019 A 
HETATM   14  C   LIG     1      16.206  27.792  12.167  1.00  0.00     0.013 A 
HETATM   15  C   LIG     1      16.197  26.680  11.310  1.00  0.00     0.001 A 
HETATM   16  C   LIG     1      15.052  25.864  11.213  1.00  0.00     0.001 A 
HETATM   17  C   LIG     1      13.907  26.154  11.974  1.00  0.00     0.008 A 
ENDROOT
TORSDOF 0
ENDMDL
MODEL 17
REMARK VINA RESULT:      -6.1     14.362     15.869
REMARK  0 active torsions:
REMARK  status: ('A' for Active; 'I' for Inactive)
ROOT
HETATM    1  C   LIG     1      25.926  23.834  19.452  1.00  0.00    -0.018 A 
HETATM    2  C   LIG     1      26.380  25.131  19.680  1.00  0.00     0.025 A 
HETATM    3  C   LIG     1      27.366  25.654  18.820  1.00  0.00    -0.025 A 
HETATM    4  C   LIG     1      27.857  26.955  19.008  1.00  0.00     0.012 A 
HETATM    5  C   LIG     1      28.835  27.467  18.151  1.00  0.00     0.001 A 
HETATM    6  C   LIG     1      29.332  26.689  17.101  1.00  0.00     0.001 A 
HETATM    7  C   LIG     1      28.856  25.390  16.899  1.00  0.00     0.012 A 
HETATM    8  C   LIG     1      27.873  24.859  17.749  1.00  0.00    -0.025 A 
HETATM    9  C   LIG     1      27.388  23.551  17.551  1.00  0.00     0.020 A 
HETATM   10  C   LIG     1      26.413  23.059  18.417  1.00  0.00    -0.042 A 
HETATM   11  C   LIG     1      25.763  21.705  18.387  1.00  0.00     0.078 A 
HETATM   12  C   LIG     1      24.832  21.821  19.559  1.00  0.00    -0.043 A 
HETATM   13  C   LIG     1      24.935  23.058  20.168  1.00  0.00    -0.019 A 
HETATM   14  C   LIG     1      24.164  23.395  21.280  1.00  0.00     0.013 A 
HETATM   15  C   LIG     1      23.266  22.437  21.779  1.00  0.00     0.001 A 
HETATM   16  C   LIG     1      23.156  21.175  21.163  1.00  0.00     0.001 A 
HETATM   17  C   LIG     1      23.944  20.860  20.043  1.00  0.00     0.008 A 
ENDROOT
TORSDOF 0
ENDMDL
MODEL 18
REMARK VINA RESULT:      -6.1     16.719     17.603
REMARK  0 active torsions:
REMARK  status: ('A' for Active; 'I' for Inactive)
ROOT
HETATM    1  C   LIG     1      27.344  29.416  34.594  1.00  0.00    -0.018 A 
HETATM    2  C   LIG     1      26.720  28.342  33.963  1.00  0.00     0.025 A 
HETATM    3  C   LIG     1      27.238  27.900  32.729  1.00  0.00    -0.025 A 
HETATM    4  C   LIG     1      26.646  26.822  32.053  1.00  0.00     0.012 A 
HETATM    5  C   LIG     1      27.164  26.389  30.830  1.00  0.00     0.001 A 
HETATM    6  C   LIG     1      28.277  27.026  30.271  1.00  0.00     0.001 A 
HETATM    7  C   LIG     1      28.880  28.102  30.929  1.00  0.00     0.012 A 
HETATM    8  C   LIG     1      28.373  28.549  32.158  1.00  0.00    -0.025 A 
HETATM    9  C   LIG     1      28.976  29.633  32.827  1.00  0.00     0.020 A 
HETATM   10  C   LIG     1      28.443  30.050  34.046  1.00  0.00    -0.042 A 
HETATM   11  C   LIG     1      28.925  31.172  34.919  1.00  0.00     0.078 A 
HETATM   12  C   LIG     1      27.939  31.087  36.047  1.00  0.00    -0.043 A 
HETATM   13  C   LIG     1      27.028  30.066  35.849  1.00  0.00    -0.019 A 
HETATM   14  C   LIG     1      26.015  29.797  36.768  1.00  0.00     0.013 A 
HETATM   15  C   LIG     1      25.936  30.596  37.921  1.00  0.00     0.001 A 
HETATM   16  C   LIG     1      26.861  31.638  38.129  1.00  0.00     0.001 A 
HETATM   17  C   LIG     1      27.873  31.889  37.187  1.00  0.00     0.008 A 
ENDROOT
TORSDOF 0
ENDMDL
MODEL 19
REMARK VINA RESULT:      -5.8     14.440     15.881
REMARK  0 active torsions:
REMARK  status: ('A' for Active; 'I' for Inactive)
ROOT
HETATM    1  C   LIG     1      26.523  24.209  19.099  1.00  0.00    -0.018 A 
HETATM    2  C   LIG     1      25.604  24.269  20.145  1.00  0.00     0.025 A 
HETATM    3  C   LIG     1      24.828  23.125  20.417  1.00  0.00    -0.025 A 
HETATM    4  C   LIG     1      23.888  23.134  21.459  1.00  0.00     0.012 A 
HETATM    5  C   LIG     1      23.122  21.995  21.724  1.00  0.00     0.001 A 
HETATM    6  C   LIG     1      23.286  20.839  20.954  1.00  0.00     0.001 A 
HETATM    7  C   LIG     1      24.217  20.812  19.911  1.00  0.00     0.012 A 
HETATM    8  C   LIG     1      24.996  21.945  19.631  1.00  0.00    -0.025 A 
HETATM    9  C   LIG     1      25.936  21.925  18.582  1.00  0.00     0.020 A 
HETATM   10  C   LIG     1      26.690  23.072  18.334  1.00  0.00    -0.042 A 
HETATM   11  C   LIG     1      27.737  23.265  17.276  1.00  0.00     0.078 A 
HETATM   12  C   LIG     1      28.146  24.683  17.549  1.00  0.00    -0.043 A 
HETATM   13  C   LIG     1      27.436  25.221  18.607  1.00  0.00    -0.019 A 
HETATM   14  C   LIG     1      27.645  26.529  19.043  1.00  0.00     0.013 A 
HETATM   15  C   LIG     1      28.608  27.304  18.376  1.00  0.00     0.001 A 
HETATM   16  C   LIG     1      29.335  26.763  17.297  1.00  0.00     0.001 A 
HETATM   17  C   LIG     1      29.105  25.441  16.877  1.00  0.00     0.008 A 
ENDROOT
TORSDOF 0
ENDMDL
