REMARK  0 active torsions:
REMARK  status: ('A' for Active; 'I' for Inactive)
ROOT
HETATM    1  C   LIG     1       0.414  -0.041   0.227  1.00  0.00    -0.018 A 
HETATM    2  C   LIG     1      -0.509  -0.382   1.214  1.00  0.00     0.025 A 
HETATM    3  C   LIG     1      -1.879  -0.347   0.888  1.00  0.00    -0.025 A 
HETATM    4  C   LIG     1      -2.848  -0.681   1.846  1.00  0.00     0.012 A 
HETATM    5  C   LIG     1      -4.205  -0.644   1.515  1.00  0.00     0.001 A 
HETATM    6  C   LIG     1      -4.608  -0.275   0.228  1.00  0.00     0.001 A 
HETATM    7  C   LIG     1      -3.657   0.062  -0.740  1.00  0.00     0.012 A 
HETATM    8  C   LIG     1      -2.290   0.030  -0.426  1.00  0.00    -0.025 A 
HETATM    9  C   LIG     1      -1.326   0.368  -1.397  1.00  0.00     0.020 A 
HETATM   10  C   LIG     1       0.023   0.325  -1.046  1.00  0.00    -0.042 A 
HETATM   11  C   LIG     1       1.204   0.643  -1.917  1.00  0.00     0.078 A 
HETATM   12  C   LIG     1       2.329   0.404  -0.953  1.00  0.00    -0.043 A 
HETATM   13  C   LIG     1       1.860   0.008   0.286  1.00  0.00    -0.019 A 
HETATM   14  C   LIG     1       2.725  -0.271   1.344  1.00  0.00     0.013 A 
HETATM   15  C   LIG     1       4.106  -0.140   1.123  1.00  0.00     0.001 A 
HETATM   16  C   LIG     1       4.591   0.263  -0.137  1.00  0.00     0.001 A 
HETATM   17  C   LIG     1       3.698   0.538  -1.187  1.00  0.00     0.008 A 
ENDROOT
TORSDOF 0
