REMARK  12 active torsions:
REMARK  status: ('A' for Active; 'I' for Inactive)
REMARK    1  A    between atoms: C_2  and  C_4 
REMARK    2  A    between atoms: C_2  and  O_3 
REMARK    3  A    between atoms: C_4  and  C_5 
REMARK    4  A    between atoms: C_5  and  C_6 
REMARK    5  A    between atoms: C_6  and  C_7 
REMARK    6  A    between atoms: C_7  and  C_8 
REMARK    7  A    between atoms: C_8  and  C_9 
REMARK    8  A    between atoms: C_9  and  C_10 
REMARK    9  A    between atoms: C_10  and  C_11 
REMARK   10  A    between atoms: C_11  and  C_12 
REMARK   11  A    between atoms: C_12  and  C_13 
REMARK   12  A    between atoms: C_13  and  N_14 
ROOT
HETATM    1  C   LIG     1       0.844  -0.859  -0.311  1.00  0.00     0.000 C 
ENDROOT
BRANCH   1   2
HETATM    2  C   LIG     1       1.361   0.403  -1.022  1.00  0.00     0.000 C 
BRANCH   2   3
HETATM    3  C   LIG     1       2.750   0.206  -1.659  1.00  0.00     0.001 C 
BRANCH   3   4
HETATM    4  C   LIG     1       3.883  -0.119  -0.668  1.00  0.00     0.010 C 
BRANCH   4   5
HETATM    5  C   LIG     1       4.107   0.987   0.370  1.00  0.00     0.110 C 
BRANCH   5   6
HETATM    6  C   LIG     1       5.326   0.694   1.190  1.00  0.00     0.139 C 
HETATM    7  O   LIG     1       6.428   1.224   0.890  1.00  0.00    -0.650 OA
BRANCH   6   8
HETATM    8  O   LIG     1       5.262  -0.193   2.261  1.00  0.00    -0.776 OA
HETATM    9  H   LIG     1       4.392  -0.648   2.512  1.00  0.00     0.167 HD
ENDBRANCH   6   8
ENDBRANCH   5   6
ENDBRANCH   4   5
ENDBRANCH   3   4
ENDBRANCH   2   3
ENDBRANCH   1   2
BRANCH   1  10
HETATM   10  C   LIG     1      -0.578  -0.680   0.247  1.00  0.00     0.000 C 
BRANCH  10  11
HETATM   11  C   LIG     1      -1.651  -0.659  -0.857  1.00  0.00     0.000 C 
BRANCH  11  12
HETATM   12  C   LIG     1      -3.078  -0.770  -0.296  1.00  0.00     0.002 C 
BRANCH  12  13
HETATM   13  C   LIG     1      -3.522   0.503   0.443  1.00  0.00     0.030 C 
BRANCH  13  14
HETATM   14  C   LIG     1      -4.955   0.396   0.979  1.00  0.00     0.267 C 
BRANCH  14  15
HETATM   15  N   LIG     1      -5.926   0.430  -0.112  1.00  0.00     0.078 N 
HETATM   16  H   LIG     1      -5.984  -0.525  -0.533  1.00  0.00     0.312 HD
HETATM   17  H   LIG     1      -6.867   0.618   0.304  1.00  0.00     0.312 HD
ENDBRANCH  14  15
ENDBRANCH  13  14
ENDBRANCH  12  13
ENDBRANCH  11  12
ENDBRANCH  10  11
ENDBRANCH   1  10
TORSDOF 12
