REMARK  0 active torsions:
REMARK  status: ('A' for Active; 'I' for Inactive)
ROOT
HETATM    1  C   LIG     1      -1.710  -1.727   0.661  1.00  0.00     0.073 C 
HETATM    2  C   LIG     1      -1.243  -0.417   0.096  1.00  0.00     0.064 A 
HETATM    3  N   LIG     1      -2.173   0.456  -0.377  1.00  0.00    -0.244 NA
HETATM    4  C   LIG     1      -1.819   1.659  -0.902  1.00  0.00     0.235 A 
HETATM    5  N   LIG     1      -0.510   2.019  -0.966  1.00  0.00    -0.220 NA
HETATM    6  C   LIG     1       0.459   1.187  -0.510  1.00  0.00     0.181 A 
HETATM    7  C   LIG     1       0.116  -0.063   0.038  1.00  0.00     0.128 A 
HETATM    8  N   LIG     1       1.102  -0.883   0.490  1.00  0.00    -0.254 NA
HETATM    9  C   LIG     1       2.409  -0.514   0.422  1.00  0.00     0.136 A 
HETATM   10  C   LIG     1       2.748   0.728  -0.123  1.00  0.00     0.138 A 
HETATM   11  N   LIG     1       1.766   1.552  -0.577  1.00  0.00    -0.238 NA
ENDROOT
TORSDOF 0
