MODEL 1
REMARK VINA RESULT:      -5.8      0.000      0.000
REMARK  0 active torsions:
REMARK  status: ('A' for Active; 'I' for Inactive)
ROOT
HETATM    1  C   LIG     1      16.011  35.439  20.598  1.00  0.00     0.093 C 
HETATM    2  C   LIG     1      16.463  35.989  21.909  1.00  0.00     0.124 A 
HETATM    3  N   LIG     1      16.790  35.142  22.922  1.00  0.00    -0.212 NA
HETATM    4  C   LIG     1      17.204  35.622  24.123  1.00  0.00     0.181 A 
HETATM    5  N   LIG     1      17.529  34.775  25.134  1.00  0.00    -0.238 NA
HETATM    6  C   LIG     1      17.944  35.253  26.337  1.00  0.00     0.138 A 
HETATM    7  C   LIG     1      18.039  36.634  26.540  1.00  0.00     0.136 A 
HETATM    8  N   LIG     1      17.714  37.485  25.529  1.00  0.00    -0.254 NA
HETATM    9  C   LIG     1      17.299  37.008  24.327  1.00  0.00     0.121 A 
HETATM   10  C   LIG     1      16.961  37.861  23.277  1.00  0.00     0.154 A 
HETATM   11  N   LIG     1      16.551  37.337  22.092  1.00  0.00    -0.243 NA
ENDROOT
TORSDOF 0
ENDMDL
MODEL 2
REMARK VINA RESULT:      -5.7      2.897      4.298
REMARK  0 active torsions:
REMARK  status: ('A' for Active; 'I' for Inactive)
ROOT
HETATM    1  C   LIG     1      15.273  34.423  21.283  1.00  0.00     0.093 C 
HETATM    2  C   LIG     1      16.173  35.613  21.292  1.00  0.00     0.124 A 
HETATM    3  N   LIG     1      17.157  35.724  20.359  1.00  0.00    -0.212 NA
HETATM    4  C   LIG     1      17.987  36.799  20.349  1.00  0.00     0.181 A 
HETATM    5  N   LIG     1      18.968  36.909  19.417  1.00  0.00    -0.238 NA
HETATM    6  C   LIG     1      19.802  37.983  19.405  1.00  0.00     0.138 A 
HETATM    7  C   LIG     1      19.647  38.991  20.364  1.00  0.00     0.136 A 
HETATM    8  N   LIG     1      18.665  38.884  21.299  1.00  0.00    -0.254 NA
HETATM    9  C   LIG     1      17.833  37.810  21.312  1.00  0.00     0.121 A 
HETATM   10  C   LIG     1      16.819  37.679  22.260  1.00  0.00     0.154 A 
HETATM   11  N   LIG     1      16.012  36.587  22.232  1.00  0.00    -0.243 NA
ENDROOT
TORSDOF 0
ENDMDL
MODEL 3
REMARK VINA RESULT:      -5.5      1.131      2.398
REMARK  0 active torsions:
REMARK  status: ('A' for Active; 'I' for Inactive)
ROOT
HETATM    1  C   LIG     1      17.642  39.263  21.653  1.00  0.00     0.093 C 
HETATM    2  C   LIG     1      17.522  38.072  22.543  1.00  0.00     0.124 A 
HETATM    3  N   LIG     1      17.925  38.153  23.841  1.00  0.00    -0.212 NA
HETATM    4  C   LIG     1      17.824  37.081  24.667  1.00  0.00     0.181 A 
HETATM    5  N   LIG     1      18.226  37.163  25.962  1.00  0.00    -0.238 NA
HETATM    6  C   LIG     1      18.128  36.090  26.792  1.00  0.00     0.138 A 
HETATM    7  C   LIG     1      17.604  34.886  26.309  1.00  0.00     0.136 A 
HETATM    8  N   LIG     1      17.200  34.800  25.013  1.00  0.00    -0.254 NA
HETATM    9  C   LIG     1      17.299  35.871  24.183  1.00  0.00     0.121 A 
HETATM   10  C   LIG     1      16.892  35.807  22.852  1.00  0.00     0.154 A 
HETATM   11  N   LIG     1      17.011  36.905  22.060  1.00  0.00    -0.243 NA
ENDROOT
TORSDOF 0
ENDMDL
MODEL 4
REMARK VINA RESULT:      -5.5      8.177      9.942
REMARK  0 active torsions:
REMARK  status: ('A' for Active; 'I' for Inactive)
ROOT
HETATM    1  C   LIG     1      18.329  34.021  13.495  1.00  0.00     0.093 C 
HETATM    2  C   LIG     1      17.241  33.174  14.064  1.00  0.00     0.124 A 
HETATM    3  N   LIG     1      16.803  33.397  15.334  1.00  0.00    -0.212 NA
HETATM    4  C   LIG     1      15.814  32.637  15.870  1.00  0.00     0.181 A 
HETATM    5  N   LIG     1      15.378  32.860  17.137  1.00  0.00    -0.238 NA
HETATM    6  C   LIG     1      14.389  32.101  17.678  1.00  0.00     0.138 A 
HETATM    7  C   LIG     1      13.809  31.076  16.921  1.00  0.00     0.136 A 
HETATM    8  N   LIG     1      14.244  30.849  15.652  1.00  0.00    -0.254 NA
HETATM    9  C   LIG     1      15.233  31.608  15.112  1.00  0.00     0.121 A 
HETATM   10  C   LIG     1      15.694  31.394  13.814  1.00  0.00     0.154 A 
HETATM   11  N   LIG     1      16.686  32.179  13.317  1.00  0.00    -0.243 NA
ENDROOT
TORSDOF 0
ENDMDL
MODEL 5
REMARK VINA RESULT:      -5.5      2.986      4.313
REMARK  0 active torsions:
REMARK  status: ('A' for Active; 'I' for Inactive)
ROOT
HETATM    1  C   LIG     1      20.508  38.887  19.309  1.00  0.00     0.093 C 
HETATM    2  C   LIG     1      19.373  38.369  20.127  1.00  0.00     0.124 A 
HETATM    3  N   LIG     1      18.726  37.234  19.744  1.00  0.00    -0.212 NA
HETATM    4  C   LIG     1      17.691  36.745  20.474  1.00  0.00     0.181 A 
HETATM    5  N   LIG     1      17.046  35.613  20.092  1.00  0.00    -0.238 NA
HETATM    6  C   LIG     1      16.009  35.121  20.820  1.00  0.00     0.138 A 
HETATM    7  C   LIG     1      15.598  35.788  21.980  1.00  0.00     0.136 A 
HETATM    8  N   LIG     1      16.242  36.923  22.366  1.00  0.00    -0.254 NA
HETATM    9  C   LIG     1      17.278  37.415  21.638  1.00  0.00     0.121 A 
HETATM   10  C   LIG     1      17.953  38.575  22.015  1.00  0.00     0.154 A 
HETATM   11  N   LIG     1      18.983  39.028  21.254  1.00  0.00    -0.243 NA
ENDROOT
TORSDOF 0
ENDMDL
MODEL 6
REMARK VINA RESULT:      -5.4      9.208     10.664
REMARK  0 active torsions:
REMARK  status: ('A' for Active; 'I' for Inactive)
ROOT
HETATM    1  C   LIG     1      13.937  29.130  14.139  1.00  0.00     0.093 C 
HETATM    2  C   LIG     1      14.658  30.382  14.514  1.00  0.00     0.124 A 
HETATM    3  N   LIG     1      15.596  30.900  13.675  1.00  0.00    -0.212 NA
HETATM    4  C   LIG     1      16.263  32.037  13.997  1.00  0.00     0.181 A 
HETATM    5  N   LIG     1      17.199  32.553  13.159  1.00  0.00    -0.238 NA
HETATM    6  C   LIG     1      17.870  33.692  13.479  1.00  0.00     0.138 A 
HETATM    7  C   LIG     1      17.593  34.343  14.686  1.00  0.00     0.136 A 
HETATM    8  N   LIG     1      16.657  33.829  15.528  1.00  0.00    -0.254 NA
HETATM    9  C   LIG     1      15.986  32.691  15.209  1.00  0.00     0.121 A 
HETATM   10  C   LIG     1      15.022  32.146  16.055  1.00  0.00     0.154 A 
HETATM   11  N   LIG     1      14.379  31.006  15.693  1.00  0.00    -0.243 NA
ENDROOT
TORSDOF 0
ENDMDL
MODEL 7
REMARK VINA RESULT:      -5.4      2.630      5.078
REMARK  0 active torsions:
REMARK  status: ('A' for Active; 'I' for Inactive)
ROOT
HETATM    1  C   LIG     1      16.776  37.589  24.727  1.00  0.00     0.093 C 
HETATM    2  C   LIG     1      17.187  37.358  23.312  1.00  0.00     0.124 A 
HETATM    3  N   LIG     1      17.785  38.359  22.609  1.00  0.00    -0.212 NA
HETATM    4  C   LIG     1      18.168  38.170  21.321  1.00  0.00     0.181 A 
HETATM    5  N   LIG     1      18.764  39.170  20.620  1.00  0.00    -0.238 NA
HETATM    6  C   LIG     1      19.147  38.985  19.329  1.00  0.00     0.138 A 
HETATM    7  C   LIG     1      18.927  37.748  18.711  1.00  0.00     0.136 A 
HETATM    8  N   LIG     1      18.330  36.745  19.410  1.00  0.00    -0.254 NA
HETATM    9  C   LIG     1      17.946  36.930  20.700  1.00  0.00     0.121 A 
HETATM   10  C   LIG     1      17.333  35.917  21.435  1.00  0.00     0.154 A 
HETATM   11  N   LIG     1      16.967  36.149  22.722  1.00  0.00    -0.243 NA
ENDROOT
TORSDOF 0
ENDMDL
MODEL 8
REMARK VINA RESULT:      -5.3      9.101     10.760
REMARK  0 active torsions:
REMARK  status: ('A' for Active; 'I' for Inactive)
ROOT
HETATM    1  C   LIG     1      18.675  34.051  13.258  1.00  0.00     0.093 C 
HETATM    2  C   LIG     1      17.558  33.356  13.961  1.00  0.00     0.124 A 
HETATM    3  N   LIG     1      17.013  32.232  13.418  1.00  0.00    -0.212 NA
HETATM    4  C   LIG     1      15.996  31.584  14.042  1.00  0.00     0.181 A 
HETATM    5  N   LIG     1      15.453  30.463  13.500  1.00  0.00    -0.238 NA
HETATM    6  C   LIG     1      14.433  29.811  14.121  1.00  0.00     0.138 A 
HETATM    7  C   LIG     1      13.937  30.299  15.335  1.00  0.00     0.136 A 
HETATM    8  N   LIG     1      14.478  31.422  15.880  1.00  0.00    -0.254 NA
HETATM    9  C   LIG     1      15.496  32.073  15.260  1.00  0.00     0.121 A 
HETATM   10  C   LIG     1      16.067  33.225  15.800  1.00  0.00     0.154 A 
HETATM   11  N   LIG     1      17.083  33.841  15.142  1.00  0.00    -0.243 NA
ENDROOT
TORSDOF 0
ENDMDL
MODEL 9
REMARK VINA RESULT:      -5.3      6.819      9.953
REMARK  0 active torsions:
REMARK  status: ('A' for Active; 'I' for Inactive)
ROOT
HETATM    1  C   LIG     1      15.180  33.102  19.558  1.00  0.00     0.093 C 
HETATM    2  C   LIG     1      15.017  32.485  18.209  1.00  0.00     0.124 A 
HETATM    3  N   LIG     1      15.792  32.909  17.173  1.00  0.00    -0.212 NA
HETATM    4  C   LIG     1      15.660  32.361  15.938  1.00  0.00     0.181 A 
HETATM    5  N   LIG     1      16.433  32.785  14.905  1.00  0.00    -0.238 NA
HETATM    6  C   LIG     1      16.303  32.239  13.666  1.00  0.00     0.138 A 
HETATM    7  C   LIG     1      15.362  31.226  13.451  1.00  0.00     0.136 A 
HETATM    8  N   LIG     1      14.585  30.799  14.483  1.00  0.00    -0.254 NA
HETATM    9  C   LIG     1      14.714  31.345  15.721  1.00  0.00     0.121 A 
HETATM   10  C   LIG     1      13.930  30.924  16.793  1.00  0.00     0.154 A 
HETATM   11  N   LIG     1      14.096  31.500  18.013  1.00  0.00    -0.243 NA
ENDROOT
TORSDOF 0
ENDMDL
MODEL 10
REMARK VINA RESULT:      -5.1      2.579      3.648
REMARK  0 active torsions:
REMARK  status: ('A' for Active; 'I' for Inactive)
ROOT
HETATM    1  C   LIG     1      19.467  38.923  18.809  1.00  0.00     0.093 C 
HETATM    2  C   LIG     1      18.771  38.214  19.922  1.00  0.00     0.124 A 
HETATM    3  N   LIG     1      18.575  38.849  21.111  1.00  0.00    -0.212 NA
HETATM    4  C   LIG     1      17.944  38.222  22.136  1.00  0.00     0.181 A 
HETATM    5  N   LIG     1      17.749  38.856  23.322  1.00  0.00    -0.238 NA
HETATM    6  C   LIG     1      17.118  38.231  24.351  1.00  0.00     0.138 A 
HETATM    7  C   LIG     1      16.660  36.918  24.189  1.00  0.00     0.136 A 
HETATM    8  N   LIG     1      16.853  36.281  23.003  1.00  0.00    -0.254 NA
HETATM    9  C   LIG     1      17.485  36.904  21.974  1.00  0.00     0.121 A 
HETATM   10  C   LIG     1      17.693  36.271  20.750  1.00  0.00     0.154 A 
HETATM   11  N   LIG     1      18.330  36.936  19.751  1.00  0.00    -0.243 NA
ENDROOT
TORSDOF 0
ENDMDL
MODEL 11
REMARK VINA RESULT:      -5.1      0.831      3.864
REMARK  0 active torsions:
REMARK  status: ('A' for Active; 'I' for Inactive)
ROOT
HETATM    1  C   LIG     1      18.280  36.294  27.004  1.00  0.00     0.093 C 
HETATM    2  C   LIG     1      17.862  36.544  25.594  1.00  0.00     0.124 A 
HETATM    3  N   LIG     1      17.495  35.501  24.801  1.00  0.00    -0.212 NA
HETATM    4  C   LIG     1      17.111  35.707  23.515  1.00  0.00     0.181 A 
HETATM    5  N   LIG     1      16.745  34.664  22.725  1.00  0.00    -0.238 NA
HETATM    6  C   LIG     1      16.362  34.867  21.437  1.00  0.00     0.138 A 
HETATM    7  C   LIG     1      16.342  36.166  20.915  1.00  0.00     0.136 A 
HETATM    8  N   LIG     1      16.708  37.212  21.704  1.00  0.00    -0.254 NA
HETATM    9  C   LIG     1      17.092  37.010  22.991  1.00  0.00     0.121 A 
HETATM   10  C   LIG     1      17.471  38.066  23.818  1.00  0.00     0.154 A 
HETATM   11  N   LIG     1      17.848  37.814  25.099  1.00  0.00    -0.243 NA
ENDROOT
TORSDOF 0
ENDMDL
MODEL 12
REMARK VINA RESULT:      -4.9      1.197      2.356
REMARK  0 active torsions:
REMARK  status: ('A' for Active; 'I' for Inactive)
ROOT
HETATM    1  C   LIG     1      15.963  35.459  20.061  1.00  0.00     0.093 C 
HETATM    2  C   LIG     1      16.377  35.734  21.468  1.00  0.00     0.124 A 
HETATM    3  N   LIG     1      16.429  37.017  21.919  1.00  0.00    -0.212 NA
HETATM    4  C   LIG     1      16.802  37.290  23.195  1.00  0.00     0.181 A 
HETATM    5  N   LIG     1      16.854  38.571  23.644  1.00  0.00    -0.238 NA
HETATM    6  C   LIG     1      17.228  38.848  24.922  1.00  0.00     0.138 A 
HETATM    7  C   LIG     1      17.565  37.801  25.788  1.00  0.00     0.136 A 
HETATM    8  N   LIG     1      17.514  36.517  25.341  1.00  0.00    -0.254 NA
HETATM    9  C   LIG     1      17.141  36.240  24.065  1.00  0.00     0.121 A 
HETATM   10  C   LIG     1      17.081  34.932  23.585  1.00  0.00     0.154 A 
HETATM   11  N   LIG     1      16.702  34.705  22.301  1.00  0.00    -0.243 NA
ENDROOT
TORSDOF 0
ENDMDL
MODEL 13
REMARK VINA RESULT:      -4.9      7.787      9.901
REMARK  0 active torsions:
REMARK  status: ('A' for Active; 'I' for Inactive)
ROOT
HETATM    1  C   LIG     1      18.940  33.983  12.516  1.00  0.00     0.093 C 
HETATM    2  C   LIG     1      17.830  33.481  13.377  1.00  0.00     0.124 A 
HETATM    3  N   LIG     1      17.489  34.160  14.507  1.00  0.00    -0.212 NA
HETATM    4  C   LIG     1      16.482  33.721  15.304  1.00  0.00     0.181 A 
HETATM    5  N   LIG     1      16.143  34.399  16.431  1.00  0.00    -0.238 NA
HETATM    6  C   LIG     1      15.136  33.961  17.233  1.00  0.00     0.138 A 
HETATM    7  C   LIG     1      14.436  32.797  16.893  1.00  0.00     0.136 A 
HETATM    8  N   LIG     1      14.773  32.115  15.765  1.00  0.00    -0.254 NA
HETATM    9  C   LIG     1      15.780  32.552  14.965  1.00  0.00     0.121 A 
HETATM   10  C   LIG     1      16.142  31.870  13.804  1.00  0.00     0.154 A 
HETATM   11  N   LIG     1      17.157  32.346  13.036  1.00  0.00    -0.243 NA
ENDROOT
TORSDOF 0
ENDMDL
MODEL 14
REMARK VINA RESULT:      -4.8      8.430     10.359
REMARK  0 active torsions:
REMARK  status: ('A' for Active; 'I' for Inactive)
ROOT
HETATM    1  C   LIG     1      14.719  28.216  13.539  1.00  0.00     0.093 C 
HETATM    2  C   LIG     1      14.984  29.583  14.073  1.00  0.00     0.124 A 
HETATM    3  N   LIG     1      14.430  29.967  15.256  1.00  0.00    -0.212 NA
HETATM    4  C   LIG     1      14.659  31.207  15.760  1.00  0.00     0.181 A 
HETATM    5  N   LIG     1      14.105  31.589  16.940  1.00  0.00    -0.238 NA
HETATM    6  C   LIG     1      14.332  32.830  17.447  1.00  0.00     0.138 A 
HETATM    7  C   LIG     1      15.147  33.727  16.747  1.00  0.00     0.136 A 
HETATM    8  N   LIG     1      15.703  33.347  15.565  1.00  0.00    -0.254 NA
HETATM    9  C   LIG     1      15.477  32.108  15.057  1.00  0.00     0.121 A 
HETATM   10  C   LIG     1      16.036  31.697  13.849  1.00  0.00     0.154 A 
HETATM   11  N   LIG     1      15.780  30.447  13.382  1.00  0.00    -0.243 NA
ENDROOT
TORSDOF 0
ENDMDL
MODEL 15
REMARK VINA RESULT:      -4.4      7.502     10.233
REMARK  0 active torsions:
REMARK  status: ('A' for Active; 'I' for Inactive)
ROOT
HETATM    1  C   LIG     1      15.018  34.364  17.969  1.00  0.00     0.093 C 
HETATM    2  C   LIG     1      15.571  33.786  16.709  1.00  0.00     0.124 A 
HETATM    3  N   LIG     1      16.455  34.506  15.966  1.00  0.00    -0.212 NA
HETATM    4  C   LIG     1      16.970  33.999  14.816  1.00  0.00     0.181 A 
HETATM    5  N   LIG     1      17.852  34.718  14.075  1.00  0.00    -0.238 NA
HETATM    6  C   LIG     1      18.369  34.214  12.923  1.00  0.00     0.138 A 
HETATM    7  C   LIG     1      17.989  32.937  12.494  1.00  0.00     0.136 A 
HETATM    8  N   LIG     1      17.105  32.214  13.233  1.00  0.00    -0.254 NA
HETATM    9  C   LIG     1      16.588  32.718  14.384  1.00  0.00     0.121 A 
HETATM   10  C   LIG     1      15.682  31.995  15.159  1.00  0.00     0.154 A 
HETATM   11  N   LIG     1      15.192  32.542  16.302  1.00  0.00    -0.243 NA
ENDROOT
TORSDOF 0
ENDMDL
MODEL 16
REMARK VINA RESULT:      -4.4      8.734     10.755
REMARK  0 active torsions:
REMARK  status: ('A' for Active; 'I' for Inactive)
ROOT
HETATM    1  C   LIG     1      14.989  27.909  13.349  1.00  0.00     0.093 C 
HETATM    2  C   LIG     1      14.904  29.182  14.122  1.00  0.00     0.124 A 
HETATM    3  N   LIG     1      15.922  30.083  14.057  1.00  0.00    -0.212 NA
HETATM    4  C   LIG     1      15.865  31.247  14.753  1.00  0.00     0.181 A 
HETATM    5  N   LIG     1      16.881  32.146  14.687  1.00  0.00    -0.238 NA
HETATM    6  C   LIG     1      16.827  33.312  15.384  1.00  0.00     0.138 A 
HETATM    7  C   LIG     1      15.710  33.594  16.178  1.00  0.00     0.136 A 
HETATM    8  N   LIG     1      14.690  32.697  16.247  1.00  0.00    -0.254 NA
HETATM    9  C   LIG     1      14.744  31.530  15.551  1.00  0.00     0.121 A 
HETATM   10  C   LIG     1      13.711  30.596  15.606  1.00  0.00     0.154 A 
HETATM   11  N   LIG     1      13.811  29.444  14.893  1.00  0.00    -0.243 NA
ENDROOT
TORSDOF 0
ENDMDL
MODEL 17
REMARK VINA RESULT:      -4.3      1.698      2.055
REMARK  0 active torsions:
REMARK  status: ('A' for Active; 'I' for Inactive)
ROOT
HETATM    1  C   LIG     1      16.053  38.909  22.020  1.00  0.00     0.093 C 
HETATM    2  C   LIG     1      16.604  38.288  23.259  1.00  0.00     0.124 A 
HETATM    3  N   LIG     1      16.742  36.936  23.335  1.00  0.00    -0.212 NA
HETATM    4  C   LIG     1      17.241  36.350  24.453  1.00  0.00     0.181 A 
HETATM    5  N   LIG     1      17.378  35.001  24.528  1.00  0.00    -0.238 NA
HETATM    6  C   LIG     1      17.877  34.411  25.647  1.00  0.00     0.138 A 
HETATM    7  C   LIG     1      18.257  35.203  26.737  1.00  0.00     0.136 A 
HETATM    8  N   LIG     1      18.121  36.555  26.666  1.00  0.00    -0.254 NA
HETATM    9  C   LIG     1      17.622  37.144  25.548  1.00  0.00     0.121 A 
HETATM   10  C   LIG     1      17.474  38.527  25.452  1.00  0.00     0.154 A 
HETATM   11  N   LIG     1      16.969  39.070  24.314  1.00  0.00    -0.243 NA
ENDROOT
TORSDOF 0
ENDMDL
MODEL 18
REMARK VINA RESULT:      -4.3      9.835     11.646
REMARK  0 active torsions:
REMARK  status: ('A' for Active; 'I' for Inactive)
ROOT
HETATM    1  C   LIG     1      15.172  31.611  14.674  1.00  0.00     0.093 C 
HETATM    2  C   LIG     1      16.324  32.428  14.194  1.00  0.00     0.124 A 
HETATM    3  N   LIG     1      17.035  32.022  13.107  1.00  0.00    -0.212 NA
HETATM    4  C   LIG     1      18.087  32.750  12.653  1.00  0.00     0.181 A 
HETATM    5  N   LIG     1      18.796  32.344  11.569  1.00  0.00    -0.238 NA
HETATM    6  C   LIG     1      19.851  33.070  11.112  1.00  0.00     0.138 A 
HETATM    7  C   LIG     1      20.211  34.254  11.766  1.00  0.00     0.136 A 
HETATM    8  N   LIG     1      19.504  34.664  12.852  1.00  0.00    -0.254 NA
HETATM    9  C   LIG     1      18.450  33.938  13.309  1.00  0.00     0.121 A 
HETATM   10  C   LIG     1      17.710  34.339  14.420  1.00  0.00     0.154 A 
HETATM   11  N   LIG     1      16.665  33.579  14.840  1.00  0.00    -0.243 NA
ENDROOT
TORSDOF 0
ENDMDL
MODEL 19
REMARK VINA RESULT:      -4.1      7.096      9.937
REMARK  0 active torsions:
REMARK  status: ('A' for Active; 'I' for Inactive)
ROOT
HETATM    1  C   LIG     1      14.545  32.109  19.502  1.00  0.00     0.093 C 
HETATM    2  C   LIG     1      14.930  32.234  18.066  1.00  0.00     0.124 A 
HETATM    3  N   LIG     1      14.622  31.236  17.193  1.00  0.00    -0.212 NA
HETATM    4  C   LIG     1      14.963  31.330  15.883  1.00  0.00     0.181 A 
HETATM    5  N   LIG     1      14.656  30.333  15.013  1.00  0.00    -0.238 NA
HETATM    6  C   LIG     1      14.997  30.424  13.699  1.00  0.00     0.138 A 
HETATM    7  C   LIG     1      15.671  31.559  13.235  1.00  0.00     0.136 A 
HETATM    8  N   LIG     1      15.981  32.559  14.104  1.00  0.00    -0.254 NA
HETATM    9  C   LIG     1      15.641  32.469  15.416  1.00  0.00     0.121 A 
HETATM   10  C   LIG     1      15.947  33.481  16.324  1.00  0.00     0.154 A 
HETATM   11  N   LIG     1      15.587  33.345  17.627  1.00  0.00    -0.243 NA
ENDROOT
TORSDOF 0
ENDMDL
MODEL 20
REMARK VINA RESULT:      -3.5     15.725     16.842
REMARK  0 active torsions:
REMARK  status: ('A' for Active; 'I' for Inactive)
ROOT
HETATM    1  C   LIG     1      26.513  27.117  32.524  1.00  0.00     0.093 C 
HETATM    2  C   LIG     1      26.666  27.733  33.874  1.00  0.00     0.124 A 
HETATM    3  N   LIG     1      26.263  29.016  34.082  1.00  0.00    -0.212 NA
HETATM    4  C   LIG     1      26.393  29.596  35.303  1.00  0.00     0.181 A 
HETATM    5  N   LIG     1      25.990  30.876  35.509  1.00  0.00    -0.238 NA
HETATM    6  C   LIG     1      26.121  31.460  36.731  1.00  0.00     0.138 A 
HETATM    7  C   LIG     1      26.675  30.734  37.791  1.00  0.00     0.136 A 
HETATM    8  N   LIG     1      27.079  29.451  37.588  1.00  0.00    -0.254 NA
HETATM    9  C   LIG     1      26.950  28.868  36.367  1.00  0.00     0.121 A 
HETATM   10  C   LIG     1      27.357  27.555  36.136  1.00  0.00     0.154 A 
HETATM   11  N   LIG     1      27.208  27.015  34.898  1.00  0.00    -0.243 NA
ENDROOT
TORSDOF 0
ENDMDL
