REMARK  0 active torsions:
REMARK  status: ('A' for Active; 'I' for Inactive)
ROOT
HETATM    1  C   LIG     1       3.255   0.290  -0.301  1.00  0.00     0.093 C 
HETATM    2  C   LIG     1       1.821  -0.009  -0.018  1.00  0.00     0.124 A 
HETATM    3  N   LIG     1       0.845   0.711  -0.636  1.00  0.00    -0.212 NA
HETATM    4  C   LIG     1      -0.466   0.455  -0.393  1.00  0.00     0.181 A 
HETATM    5  N   LIG     1      -1.439   1.174  -1.010  1.00  0.00    -0.238 NA
HETATM    6  C   LIG     1      -2.753   0.921  -0.768  1.00  0.00     0.138 A 
HETATM    7  C   LIG     1      -3.110  -0.094   0.127  1.00  0.00     0.136 A 
HETATM    8  N   LIG     1      -2.138  -0.816   0.747  1.00  0.00    -0.254 NA
HETATM    9  C   LIG     1      -0.825  -0.563   0.506  1.00  0.00     0.121 A 
HETATM   10  C   LIG     1       0.188  -1.290   1.129  1.00  0.00     0.154 A 
HETATM   11  N   LIG     1       1.487  -1.000   0.856  1.00  0.00    -0.243 NA
ENDROOT
TORSDOF 0
