MODEL 1
REMARK VINA RESULT:      -6.4      0.000      0.000
REMARK  0 active torsions:
REMARK  status: ('A' for Active; 'I' for Inactive)
ROOT
HETATM    1  C   LIG     1      18.092  34.811  26.153  1.00  0.00     0.073 C 
HETATM    2  C   LIG     1      17.652  36.077  25.477  1.00  0.00     0.064 A 
HETATM    3  N   LIG     1      17.712  37.242  26.175  1.00  0.00    -0.244 NA
HETATM    4  C   LIG     1      17.329  38.424  25.623  1.00  0.00     0.235 A 
HETATM    5  N   LIG     1      16.871  38.466  24.345  1.00  0.00    -0.220 NA
HETATM    6  C   LIG     1      16.788  37.334  23.603  1.00  0.00     0.181 A 
HETATM    7  C   LIG     1      17.180  36.099  24.153  1.00  0.00     0.128 A 
HETATM    8  N   LIG     1      17.090  34.975  23.393  1.00  0.00    -0.254 NA
HETATM    9  C   LIG     1      16.630  35.026  22.114  1.00  0.00     0.136 A 
HETATM   10  C   LIG     1      16.241  36.254  21.569  1.00  0.00     0.138 A 
HETATM   11  N   LIG     1      16.329  37.381  22.325  1.00  0.00    -0.238 NA
ENDROOT
TORSDOF 0
ENDMDL
MODEL 2
REMARK VINA RESULT:      -6.3      0.919      3.305
REMARK  0 active torsions:
REMARK  status: ('A' for Active; 'I' for Inactive)
ROOT
HETATM    1  C   LIG     1      16.636  34.961  21.885  1.00  0.00     0.073 C 
HETATM    2  C   LIG     1      16.803  36.199  22.717  1.00  0.00     0.064 A 
HETATM    3  N   LIG     1      16.565  37.408  22.140  1.00  0.00    -0.244 NA
HETATM    4  C   LIG     1      16.698  38.568  22.835  1.00  0.00     0.235 A 
HETATM    5  N   LIG     1      17.077  38.544  24.140  1.00  0.00    -0.220 NA
HETATM    6  C   LIG     1      17.329  37.367  24.766  1.00  0.00     0.181 A 
HETATM    7  C   LIG     1      17.197  36.154  24.066  1.00  0.00     0.128 A 
HETATM    8  N   LIG     1      17.453  34.984  24.710  1.00  0.00    -0.254 NA
HETATM    9  C   LIG     1      17.831  34.970  26.016  1.00  0.00     0.136 A 
HETATM   10  C   LIG     1      17.962  36.176  26.710  1.00  0.00     0.138 A 
HETATM   11  N   LIG     1      17.708  37.349  26.070  1.00  0.00    -0.238 NA
ENDROOT
TORSDOF 0
ENDMDL
MODEL 3
REMARK VINA RESULT:      -5.7      2.634      3.628
REMARK  0 active torsions:
REMARK  status: ('A' for Active; 'I' for Inactive)
ROOT
HETATM    1  C   LIG     1      16.588  34.983  21.619  1.00  0.00     0.073 C 
HETATM    2  C   LIG     1      16.972  36.399  21.936  1.00  0.00     0.064 A 
HETATM    3  N   LIG     1      16.499  36.961  23.081  1.00  0.00    -0.244 NA
HETATM    4  C   LIG     1      16.809  38.238  23.429  1.00  0.00     0.235 A 
HETATM    5  N   LIG     1      17.608  38.991  22.628  1.00  0.00    -0.220 NA
HETATM    6  C   LIG     1      18.106  38.482  21.474  1.00  0.00     0.181 A 
HETATM    7  C   LIG     1      17.800  37.162  21.094  1.00  0.00     0.128 A 
HETATM    8  N   LIG     1      18.310  36.670  19.933  1.00  0.00    -0.254 NA
HETATM    9  C   LIG     1      19.109  37.430  19.139  1.00  0.00     0.136 A 
HETATM   10  C   LIG     1      19.412  38.741  19.517  1.00  0.00     0.138 A 
HETATM   11  N   LIG     1      18.905  39.239  20.677  1.00  0.00    -0.238 NA
ENDROOT
TORSDOF 0
ENDMDL
MODEL 4
REMARK VINA RESULT:      -5.7      1.097      4.053
REMARK  0 active torsions:
REMARK  status: ('A' for Active; 'I' for Inactive)
ROOT
HETATM    1  C   LIG     1      16.814  39.085  22.735  1.00  0.00     0.073 C 
HETATM    2  C   LIG     1      16.829  37.589  22.852  1.00  0.00     0.064 A 
HETATM    3  N   LIG     1      16.466  36.848  21.771  1.00  0.00    -0.244 NA
HETATM    4  C   LIG     1      16.457  35.489  21.809  1.00  0.00     0.235 A 
HETATM    5  N   LIG     1      16.815  34.834  22.945  1.00  0.00    -0.220 NA
HETATM    6  C   LIG     1      17.185  35.522  24.053  1.00  0.00     0.181 A 
HETATM    7  C   LIG     1      17.202  36.930  24.036  1.00  0.00     0.128 A 
HETATM    8  N   LIG     1      17.576  37.602  25.158  1.00  0.00    -0.254 NA
HETATM    9  C   LIG     1      17.932  36.938  26.289  1.00  0.00     0.136 A 
HETATM   10  C   LIG     1      17.914  35.540  26.304  1.00  0.00     0.138 A 
HETATM   11  N   LIG     1      17.541  34.862  25.186  1.00  0.00    -0.238 NA
ENDROOT
TORSDOF 0
ENDMDL
MODEL 5
REMARK VINA RESULT:      -5.5      8.930     10.259
REMARK  0 active torsions:
REMARK  status: ('A' for Active; 'I' for Inactive)
ROOT
HETATM    1  C   LIG     1      14.737  29.837  14.066  1.00  0.00     0.073 C 
HETATM    2  C   LIG     1      14.822  30.961  15.058  1.00  0.00     0.064 A 
HETATM    3  N   LIG     1      13.995  30.940  16.138  1.00  0.00    -0.244 NA
HETATM    4  C   LIG     1      14.020  31.926  17.073  1.00  0.00     0.235 A 
HETATM    5  N   LIG     1      14.884  32.967  16.948  1.00  0.00    -0.220 NA
HETATM    6  C   LIG     1      15.731  33.039  15.891  1.00  0.00     0.181 A 
HETATM    7  C   LIG     1      15.723  32.030  14.910  1.00  0.00     0.128 A 
HETATM    8  N   LIG     1      16.580  32.119  13.858  1.00  0.00    -0.254 NA
HETATM    9  C   LIG     1      17.442  33.165  13.741  1.00  0.00     0.136 A 
HETATM   10  C   LIG     1      17.448  34.167  14.716  1.00  0.00     0.138 A 
HETATM   11  N   LIG     1      16.593  34.082  15.770  1.00  0.00    -0.238 NA
ENDROOT
TORSDOF 0
ENDMDL
MODEL 6
REMARK VINA RESULT:      -5.5      2.726      4.258
REMARK  0 active torsions:
REMARK  status: ('A' for Active; 'I' for Inactive)
ROOT
HETATM    1  C   LIG     1      17.074  38.282  23.732  1.00  0.00     0.073 C 
HETATM    2  C   LIG     1      17.129  37.343  22.562  1.00  0.00     0.064 A 
HETATM    3  N   LIG     1      16.412  36.188  22.620  1.00  0.00    -0.244 NA
HETATM    4  C   LIG     1      16.417  35.294  21.597  1.00  0.00     0.235 A 
HETATM    5  N   LIG     1      17.149  35.538  20.478  1.00  0.00    -0.220 NA
HETATM    6  C   LIG     1      17.883  36.673  20.367  1.00  0.00     0.181 A 
HETATM    7  C   LIG     1      17.893  37.613  21.414  1.00  0.00     0.128 A 
HETATM    8  N   LIG     1      18.635  38.745  21.283  1.00  0.00    -0.254 NA
HETATM    9  C   LIG     1      19.364  38.981  20.160  1.00  0.00     0.136 A 
HETATM   10  C   LIG     1      19.354  38.046  19.121  1.00  0.00     0.138 A 
HETATM   11  N   LIG     1      18.614  36.912  19.246  1.00  0.00    -0.238 NA
ENDROOT
TORSDOF 0
ENDMDL
MODEL 7
REMARK VINA RESULT:      -5.4      2.222      4.322
REMARK  0 active torsions:
REMARK  status: ('A' for Active; 'I' for Inactive)
ROOT
HETATM    1  C   LIG     1      16.289  34.747  20.757  1.00  0.00     0.073 C 
HETATM    2  C   LIG     1      17.146  35.978  20.688  1.00  0.00     0.064 A 
HETATM    3  N   LIG     1      17.887  36.193  19.568  1.00  0.00    -0.244 NA
HETATM    4  C   LIG     1      18.684  37.287  19.440  1.00  0.00     0.235 A 
HETATM    5  N   LIG     1      18.758  38.201  20.443  1.00  0.00    -0.220 NA
HETATM    6  C   LIG     1      18.041  38.036  21.582  1.00  0.00     0.181 A 
HETATM    7  C   LIG     1      17.209  36.912  21.737  1.00  0.00     0.128 A 
HETATM    8  N   LIG     1      16.498  36.765  22.886  1.00  0.00    -0.254 NA
HETATM    9  C   LIG     1      16.578  37.685  23.884  1.00  0.00     0.136 A 
HETATM   10  C   LIG     1      17.405  38.801  23.729  1.00  0.00     0.138 A 
HETATM   11  N   LIG     1      18.119  38.953  22.582  1.00  0.00    -0.238 NA
ENDROOT
TORSDOF 0
ENDMDL
MODEL 8
REMARK VINA RESULT:      -5.4      8.189     10.636
REMARK  0 active torsions:
REMARK  status: ('A' for Active; 'I' for Inactive)
ROOT
HETATM    1  C   LIG     1      17.616  33.441  14.433  1.00  0.00     0.073 C 
HETATM    2  C   LIG     1      16.526  32.410  14.477  1.00  0.00     0.064 A 
HETATM    3  N   LIG     1      16.323  31.631  13.380  1.00  0.00    -0.244 NA
HETATM    4  C   LIG     1      15.353  30.679  13.352  1.00  0.00     0.235 A 
HETATM    5  N   LIG     1      14.556  30.482  14.435  1.00  0.00    -0.220 NA
HETATM    6  C   LIG     1      14.714  31.231  15.555  1.00  0.00     0.181 A 
HETATM    7  C   LIG     1      15.711  32.222  15.607  1.00  0.00     0.128 A 
HETATM    8  N   LIG     1      15.854  32.962  16.739  1.00  0.00    -0.254 NA
HETATM    9  C   LIG     1      15.051  32.758  17.817  1.00  0.00     0.136 A 
HETATM   10  C   LIG     1      14.061  31.773  17.764  1.00  0.00     0.138 A 
HETATM   11  N   LIG     1      13.913  31.030  16.634  1.00  0.00    -0.238 NA
ENDROOT
TORSDOF 0
ENDMDL
MODEL 9
REMARK VINA RESULT:      -5.4      8.809     10.771
REMARK  0 active torsions:
REMARK  status: ('A' for Active; 'I' for Inactive)
ROOT
HETATM    1  C   LIG     1      14.525  32.517  17.299  1.00  0.00     0.073 C 
HETATM    2  C   LIG     1      14.937  31.942  15.975  1.00  0.00     0.064 A 
HETATM    3  N   LIG     1      14.335  30.800  15.546  1.00  0.00    -0.244 NA
HETATM    4  C   LIG     1      14.660  30.226  14.357  1.00  0.00     0.235 A 
HETATM    5  N   LIG     1      15.607  30.790  13.562  1.00  0.00    -0.220 NA
HETATM    6  C   LIG     1      16.240  31.928  13.941  1.00  0.00     0.181 A 
HETATM    7  C   LIG     1      15.920  32.540  15.167  1.00  0.00     0.128 A 
HETATM    8  N   LIG     1      16.565  33.680  15.529  1.00  0.00    -0.254 NA
HETATM    9  C   LIG     1      17.511  34.237  14.726  1.00  0.00     0.136 A 
HETATM   10  C   LIG     1      17.829  33.628  13.509  1.00  0.00     0.138 A 
HETATM   11  N   LIG     1      17.187  32.486  13.142  1.00  0.00    -0.238 NA
ENDROOT
TORSDOF 0
ENDMDL
MODEL 10
REMARK VINA RESULT:      -5.4      8.418     10.476
REMARK  0 active torsions:
REMARK  status: ('A' for Active; 'I' for Inactive)
ROOT
HETATM    1  C   LIG     1      15.091  33.896  17.190  1.00  0.00     0.073 C 
HETATM    2  C   LIG     1      15.806  33.386  15.972  1.00  0.00     0.064 A 
HETATM    3  N   LIG     1      16.846  34.110  15.478  1.00  0.00    -0.244 NA
HETATM    4  C   LIG     1      17.537  33.706  14.379  1.00  0.00     0.235 A 
HETATM    5  N   LIG     1      17.197  32.555  13.742  1.00  0.00    -0.220 NA
HETATM    6  C   LIG     1      16.167  31.795  14.191  1.00  0.00     0.181 A 
HETATM    7  C   LIG     1      15.438  32.193  15.327  1.00  0.00     0.128 A 
HETATM    8  N   LIG     1      14.410  31.417  15.761  1.00  0.00    -0.254 NA
HETATM    9  C   LIG     1      14.077  30.267  15.118  1.00  0.00     0.136 A 
HETATM   10  C   LIG     1      14.801  29.873  13.989  1.00  0.00     0.138 A 
HETATM   11  N   LIG     1      15.831  30.645  13.550  1.00  0.00    -0.238 NA
ENDROOT
TORSDOF 0
ENDMDL
MODEL 11
REMARK VINA RESULT:      -5.3      2.856      3.821
REMARK  0 active torsions:
REMARK  status: ('A' for Active; 'I' for Inactive)
ROOT
HETATM    1  C   LIG     1      19.629  37.600  19.358  1.00  0.00     0.073 C 
HETATM    2  C   LIG     1      18.718  37.887  20.516  1.00  0.00     0.064 A 
HETATM    3  N   LIG     1      18.964  38.984  21.282  1.00  0.00    -0.244 NA
HETATM    4  C   LIG     1      18.179  39.302  22.345  1.00  0.00     0.235 A 
HETATM    5  N   LIG     1      17.116  38.519  22.670  1.00  0.00    -0.220 NA
HETATM    6  C   LIG     1      16.825  37.412  21.941  1.00  0.00     0.181 A 
HETATM    7  C   LIG     1      17.624  37.064  20.836  1.00  0.00     0.128 A 
HETATM    8  N   LIG     1      17.315  35.951  20.119  1.00  0.00    -0.254 NA
HETATM    9  C   LIG     1      16.250  35.174  20.451  1.00  0.00     0.136 A 
HETATM   10  C   LIG     1      15.458  35.521  21.549  1.00  0.00     0.138 A 
HETATM   11  N   LIG     1      15.762  36.633  22.271  1.00  0.00    -0.238 NA
ENDROOT
TORSDOF 0
ENDMDL
MODEL 12
REMARK VINA RESULT:      -5.2      2.159      2.985
REMARK  0 active torsions:
REMARK  status: ('A' for Active; 'I' for Inactive)
ROOT
HETATM    1  C   LIG     1      17.174  38.023  24.654  1.00  0.00     0.073 C 
HETATM    2  C   LIG     1      17.576  37.960  23.209  1.00  0.00     0.064 A 
HETATM    3  N   LIG     1      18.382  38.938  22.715  1.00  0.00    -0.244 NA
HETATM    4  C   LIG     1      18.784  38.942  21.416  1.00  0.00     0.235 A 
HETATM    5  N   LIG     1      18.382  37.954  20.573  1.00  0.00    -0.220 NA
HETATM    6  C   LIG     1      17.578  36.955  21.013  1.00  0.00     0.181 A 
HETATM    7  C   LIG     1      17.150  36.930  22.353  1.00  0.00     0.128 A 
HETATM    8  N   LIG     1      16.344  35.920  22.774  1.00  0.00    -0.254 NA
HETATM    9  C   LIG     1      15.947  34.936  21.924  1.00  0.00     0.136 A 
HETATM   10  C   LIG     1      16.373  34.962  20.592  1.00  0.00     0.138 A 
HETATM   11  N   LIG     1      17.179  35.970  20.165  1.00  0.00    -0.238 NA
ENDROOT
TORSDOF 0
ENDMDL
MODEL 13
REMARK VINA RESULT:      -5.2      2.539      4.535
REMARK  0 active torsions:
REMARK  status: ('A' for Active; 'I' for Inactive)
ROOT
HETATM    1  C   LIG     1      19.009  36.766  19.511  1.00  0.00     0.073 C 
HETATM    2  C   LIG     1      17.768  36.543  20.325  1.00  0.00     0.064 A 
HETATM    3  N   LIG     1      16.899  35.572  19.934  1.00  0.00    -0.244 NA
HETATM    4  C   LIG     1      15.756  35.318  20.625  1.00  0.00     0.235 A 
HETATM    5  N   LIG     1      15.454  36.039  21.737  1.00  0.00    -0.220 NA
HETATM    6  C   LIG     1      16.284  37.020  22.171  1.00  0.00     0.181 A 
HETATM    7  C   LIG     1      17.473  37.300  21.472  1.00  0.00     0.128 A 
HETATM    8  N   LIG     1      18.292  38.287  21.924  1.00  0.00    -0.254 NA
HETATM    9  C   LIG     1      17.981  39.003  23.037  1.00  0.00     0.136 A 
HETATM   10  C   LIG     1      16.800  38.723  23.730  1.00  0.00     0.138 A 
HETATM   11  N   LIG     1      15.977  37.738  23.283  1.00  0.00    -0.238 NA
ENDROOT
TORSDOF 0
ENDMDL
MODEL 14
REMARK VINA RESULT:      -5.2      3.004      4.448
REMARK  0 active torsions:
REMARK  status: ('A' for Active; 'I' for Inactive)
ROOT
HETATM    1  C   LIG     1      18.295  39.473  22.381  1.00  0.00     0.073 C 
HETATM    2  C   LIG     1      18.369  38.431  21.303  1.00  0.00     0.064 A 
HETATM    3  N   LIG     1      19.344  38.539  20.360  1.00  0.00    -0.244 NA
HETATM    4  C   LIG     1      19.468  37.630  19.357  1.00  0.00     0.235 A 
HETATM    5  N   LIG     1      18.609  36.580  19.274  1.00  0.00    -0.220 NA
HETATM    6  C   LIG     1      17.618  36.424  20.187  1.00  0.00     0.181 A 
HETATM    7  C   LIG     1      17.471  37.352  21.235  1.00  0.00     0.128 A 
HETATM    8  N   LIG     1      16.472  37.178  22.140  1.00  0.00    -0.254 NA
HETATM    9  C   LIG     1      15.617  36.124  22.050  1.00  0.00     0.136 A 
HETATM   10  C   LIG     1      15.765  35.204  21.008  1.00  0.00     0.138 A 
HETATM   11  N   LIG     1      16.762  35.373  20.099  1.00  0.00    -0.238 NA
ENDROOT
TORSDOF 0
ENDMDL
MODEL 15
REMARK VINA RESULT:      -4.0      8.066     10.508
REMARK  0 active torsions:
REMARK  status: ('A' for Active; 'I' for Inactive)
ROOT
HETATM    1  C   LIG     1      15.663  30.783  13.255  1.00  0.00     0.073 C 
HETATM    2  C   LIG     1      14.835  30.916  14.500  1.00  0.00     0.064 A 
HETATM    3  N   LIG     1      13.882  29.978  14.750  1.00  0.00    -0.244 NA
HETATM    4  C   LIG     1      13.097  30.038  15.858  1.00  0.00     0.235 A 
HETATM    5  N   LIG     1      13.250  31.051  16.752  1.00  0.00    -0.220 NA
HETATM    6  C   LIG     1      14.185  32.013  16.551  1.00  0.00     0.181 A 
HETATM    7  C   LIG     1      15.009  31.971  15.412  1.00  0.00     0.128 A 
HETATM    8  N   LIG     1      15.939  32.946  15.229  1.00  0.00    -0.254 NA
HETATM    9  C   LIG     1      16.086  33.955  16.128  1.00  0.00     0.136 A 
HETATM   10  C   LIG     1      15.266  33.995  17.260  1.00  0.00     0.138 A 
HETATM   11  N   LIG     1      14.333  33.024  17.448  1.00  0.00    -0.238 NA
ENDROOT
TORSDOF 0
ENDMDL
MODEL 16
REMARK VINA RESULT:      -3.9     10.846     12.906
REMARK  0 active torsions:
REMARK  status: ('A' for Active; 'I' for Inactive)
ROOT
HETATM    1  C   LIG     1      21.847  34.985  12.632  1.00  0.00     0.073 C 
HETATM    2  C   LIG     1      20.940  33.930  12.069  1.00  0.00     0.064 A 
HETATM    3  N   LIG     1      21.391  33.167  11.037  1.00  0.00    -0.244 NA
HETATM    4  C   LIG     1      20.621  32.194  10.481  1.00  0.00     0.235 A 
HETATM    5  N   LIG     1      19.367  31.961  10.951  1.00  0.00    -0.220 NA
HETATM    6  C   LIG     1      18.866  32.692  11.977  1.00  0.00     0.181 A 
HETATM    7  C   LIG     1      19.645  33.704  12.569  1.00  0.00     0.128 A 
HETATM    8  N   LIG     1      19.126  34.426  13.597  1.00  0.00    -0.254 NA
HETATM    9  C   LIG     1      17.870  34.186  14.061  1.00  0.00     0.136 A 
HETATM   10  C   LIG     1      17.098  33.181  13.471  1.00  0.00     0.138 A 
HETATM   11  N   LIG     1      17.612  32.455  12.443  1.00  0.00    -0.238 NA
ENDROOT
TORSDOF 0
ENDMDL
