REMARK  1 active torsions:
REMARK  status: ('A' for Active; 'I' for Inactive)
REMARK    1  A    between atoms: C_8  and  C_9 
ROOT
HETATM    1 CL   LIG     1      -0.580  -2.336   1.509  1.00  0.00    -0.083 Cl
HETATM    2  C   LIG     1      -1.428  -0.985   0.764  1.00  0.00     0.046 A 
HETATM    3  C   LIG     1      -2.823  -0.929   0.866  1.00  0.00     0.048 A 
HETATM    4  C   LIG     1      -3.534   0.112   0.260  1.00  0.00     0.035 A 
HETATM    5 CL   LIG     1      -5.282   0.174   0.392  1.00  0.00    -0.084 Cl
HETATM    6  C   LIG     1      -2.851   1.100  -0.455  1.00  0.00     0.025 A 
HETATM    7  C   LIG     1      -1.459   1.051  -0.562  1.00  0.00     0.016 A 
HETATM    8  C   LIG     1      -0.736   0.017   0.052  1.00  0.00    -0.002 A 
ENDROOT
BRANCH   8   9
HETATM    9  C   LIG     1       0.735  -0.008  -0.075  1.00  0.00    -0.002 A 
HETATM   10  C   LIG     1       1.310  -0.352  -1.308  1.00  0.00     0.016 A 
HETATM   11  C   LIG     1       2.699  -0.386  -1.453  1.00  0.00     0.025 A 
HETATM   12  C   LIG     1       3.525  -0.071  -0.370  1.00  0.00     0.035 A 
HETATM   13  C   LIG     1       2.961   0.284   0.859  1.00  0.00     0.048 A 
HETATM   14 CL   LIG     1       5.269  -0.113  -0.556  1.00  0.00    -0.084 Cl
HETATM   15  C   LIG     1       1.569   0.320   1.013  1.00  0.00     0.046 A 
HETATM   16 CL   LIG     1       0.904   0.811   2.568  1.00  0.00    -0.083 Cl
ENDBRANCH   8   9
TORSDOF 1
