MODEL 1
REMARK VINA RESULT:      -6.9      0.000      0.000
REMARK  1 active torsions:
REMARK  status: ('A' for Active; 'I' for Inactive)
REMARK    1  A    between atoms: C_8  and  C_9 
ROOT
HETATM    1 CL   LIG     1      14.887  30.857  19.920  1.00  0.00    -0.083 Cl
HETATM    2  C   LIG     1      15.204  32.514  19.420  1.00  0.00     0.046 A 
HETATM    3  C   LIG     1      15.658  33.430  20.377  1.00  0.00     0.048 A 
HETATM    4  C   LIG     1      15.891  34.763  20.024  1.00  0.00     0.035 A 
HETATM    5 CL   LIG     1      16.459  35.904  21.229  1.00  0.00    -0.084 Cl
HETATM    6  C   LIG     1      15.666  35.187  18.711  1.00  0.00     0.025 A 
HETATM    7  C   LIG     1      15.213  34.280  17.750  1.00  0.00     0.016 A 
HETATM    8  C   LIG     1      14.987  32.938  18.092  1.00  0.00    -0.002 A 
ENDROOT
BRANCH   8   9
HETATM    9  C   LIG     1      14.511  32.000  17.055  1.00  0.00    -0.002 A 
HETATM   10  C   LIG     1      13.231  31.437  17.177  1.00  0.00     0.016 A 
HETATM   11  C   LIG     1      12.759  30.545  16.212  1.00  0.00     0.025 A 
HETATM   12  C   LIG     1      13.557  30.213  15.113  1.00  0.00     0.035 A 
HETATM   13  C   LIG     1      14.829  30.778  14.977  1.00  0.00     0.048 A 
HETATM   14 CL   LIG     1      12.960  29.094  13.901  1.00  0.00    -0.084 Cl
HETATM   15  C   LIG     1      15.311  31.673  15.941  1.00  0.00     0.046 A 
HETATM   16 CL   LIG     1      16.902  32.390  15.708  1.00  0.00    -0.083 Cl
ENDBRANCH   8   9
TORSDOF 1
ENDMDL
MODEL 2
REMARK VINA RESULT:      -6.9      0.044      5.997
REMARK  1 active torsions:
REMARK  status: ('A' for Active; 'I' for Inactive)
REMARK    1  A    between atoms: C_8  and  C_9 
ROOT
HETATM    1 CL   LIG     1      16.898  32.474  15.690  1.00  0.00    -0.083 Cl
HETATM    2  C   LIG     1      15.323  31.725  15.932  1.00  0.00     0.046 A 
HETATM    3  C   LIG     1      14.846  30.835  14.962  1.00  0.00     0.048 A 
HETATM    4  C   LIG     1      13.586  30.245  15.104  1.00  0.00     0.035 A 
HETATM    5 CL   LIG     1      12.995  29.133  13.884  1.00  0.00    -0.084 Cl
HETATM    6  C   LIG     1      12.796  30.546  16.218  1.00  0.00     0.025 A 
HETATM    7  C   LIG     1      13.265  31.433  17.190  1.00  0.00     0.016 A 
HETATM    8  C   LIG     1      14.532  32.021  17.062  1.00  0.00    -0.002 A 
ENDROOT
BRANCH   8   9
HETATM    9  C   LIG     1      15.004  32.952  18.106  1.00  0.00    -0.002 A 
HETATM   10  C   LIG     1      15.246  34.293  17.770  1.00  0.00     0.016 A 
HETATM   11  C   LIG     1      15.695  35.193  18.739  1.00  0.00     0.025 A 
HETATM   12  C   LIG     1      15.900  34.763  20.053  1.00  0.00     0.035 A 
HETATM   13  C   LIG     1      15.651  33.432  20.401  1.00  0.00     0.048 A 
HETATM   14 CL   LIG     1      16.463  35.897  21.269  1.00  0.00    -0.084 Cl
HETATM   15  C   LIG     1      15.200  32.523  19.435  1.00  0.00     0.046 A 
HETATM   16 CL   LIG     1      14.861  30.867  19.927  1.00  0.00    -0.083 Cl
ENDBRANCH   8   9
TORSDOF 1
ENDMDL
MODEL 3
REMARK VINA RESULT:      -6.3      3.984      6.531
REMARK  1 active torsions:
REMARK  status: ('A' for Active; 'I' for Inactive)
REMARK    1  A    between atoms: C_8  and  C_9 
ROOT
HETATM    1 CL   LIG     1      16.122  38.393  22.606  1.00  0.00    -0.083 Cl
HETATM    2  C   LIG     1      16.754  37.084  23.600  1.00  0.00     0.046 A 
HETATM    3  C   LIG     1      17.160  37.371  24.909  1.00  0.00     0.048 A 
HETATM    4  C   LIG     1      17.697  36.364  25.718  1.00  0.00     0.035 A 
HETATM    5 CL   LIG     1      18.205  36.732  27.356  1.00  0.00    -0.084 Cl
HETATM    6  C   LIG     1      17.833  35.066  25.218  1.00  0.00     0.025 A 
HETATM    7  C   LIG     1      17.431  34.772  23.913  1.00  0.00     0.016 A 
HETATM    8  C   LIG     1      16.881  35.772  23.098  1.00  0.00    -0.002 A 
ENDROOT
BRANCH   8   9
HETATM    9  C   LIG     1      16.461  35.432  21.724  1.00  0.00    -0.002 A 
HETATM   10  C   LIG     1      15.385  34.551  21.535  1.00  0.00     0.016 A 
HETATM   11  C   LIG     1      14.971  34.211  20.244  1.00  0.00     0.025 A 
HETATM   12  C   LIG     1      15.623  34.753  19.133  1.00  0.00     0.035 A 
HETATM   13  C   LIG     1      16.689  35.641  19.312  1.00  0.00     0.048 A 
HETATM   14 CL   LIG     1      15.099  34.325  17.514  1.00  0.00    -0.084 Cl
HETATM   15  C   LIG     1      17.111  35.986  20.602  1.00  0.00     0.046 A 
HETATM   16 CL   LIG     1      18.431  37.138  20.778  1.00  0.00    -0.083 Cl
ENDBRANCH   8   9
TORSDOF 1
ENDMDL
MODEL 4
REMARK VINA RESULT:      -5.6      3.207      4.662
REMARK  1 active torsions:
REMARK  status: ('A' for Active; 'I' for Inactive)
REMARK    1  A    between atoms: C_8  and  C_9 
ROOT
HETATM    1 CL   LIG     1      13.366  30.412  16.814  1.00  0.00    -0.083 Cl
HETATM    2  C   LIG     1      14.487  31.025  15.603  1.00  0.00     0.046 A 
HETATM    3  C   LIG     1      15.284  32.130  15.924  1.00  0.00     0.048 A 
HETATM    4  C   LIG     1      16.164  32.665  14.978  1.00  0.00     0.035 A 
HETATM    5 CL   LIG     1      17.159  34.050  15.388  1.00  0.00    -0.084 Cl
HETATM    6  C   LIG     1      16.247  32.097  13.703  1.00  0.00     0.025 A 
HETATM    7  C   LIG     1      15.455  30.995  13.374  1.00  0.00     0.016 A 
HETATM    8  C   LIG     1      14.577  30.444  14.321  1.00  0.00    -0.002 A 
ENDROOT
BRANCH   8   9
HETATM    9  C   LIG     1      13.754  29.277  13.947  1.00  0.00    -0.002 A 
HETATM   10  C   LIG     1      12.378  29.450  13.733  1.00  0.00     0.016 A 
HETATM   11  C   LIG     1      11.576  28.361  13.382  1.00  0.00     0.025 A 
HETATM   12  C   LIG     1      12.144  27.091  13.235  1.00  0.00     0.035 A 
HETATM   13  C   LIG     1      13.516  26.912  13.435  1.00  0.00     0.048 A 
HETATM   14 CL   LIG     1      11.135  25.726  12.792  1.00  0.00    -0.084 Cl
HETATM   15  C   LIG     1      14.326  27.999  13.788  1.00  0.00     0.046 A 
HETATM   16 CL   LIG     1      16.055  27.732  13.990  1.00  0.00    -0.083 Cl
ENDBRANCH   8   9
TORSDOF 1
ENDMDL
MODEL 5
REMARK VINA RESULT:      -5.5      2.714      4.712
REMARK  1 active torsions:
REMARK  status: ('A' for Active; 'I' for Inactive)
REMARK    1  A    between atoms: C_8  and  C_9 
ROOT
HETATM    1 CL   LIG     1      15.558  30.721  12.977  1.00  0.00    -0.083 Cl
HETATM    2  C   LIG     1      14.807  31.015  14.541  1.00  0.00     0.046 A 
HETATM    3  C   LIG     1      15.275  32.078  15.322  1.00  0.00     0.048 A 
HETATM    4  C   LIG     1      14.724  32.323  16.584  1.00  0.00     0.035 A 
HETATM    5 CL   LIG     1      15.316  33.658  17.556  1.00  0.00    -0.084 Cl
HETATM    6  C   LIG     1      13.705  31.500  17.073  1.00  0.00     0.025 A 
HETATM    7  C   LIG     1      13.233  30.436  16.300  1.00  0.00     0.016 A 
HETATM    8  C   LIG     1      13.771  30.190  15.028  1.00  0.00    -0.002 A 
ENDROOT
BRANCH   8   9
HETATM    9  C   LIG     1      13.251  29.060  14.232  1.00  0.00    -0.002 A 
HETATM   10  C   LIG     1      11.913  29.079  13.809  1.00  0.00     0.016 A 
HETATM   11  C   LIG     1      11.396  28.021  13.057  1.00  0.00     0.025 A 
HETATM   12  C   LIG     1      12.213  26.938  12.717  1.00  0.00     0.035 A 
HETATM   13  C   LIG     1      13.550  26.916  13.124  1.00  0.00     0.048 A 
HETATM   14 CL   LIG     1      11.561  25.612  11.772  1.00  0.00    -0.084 Cl
HETATM   15  C   LIG     1      14.076  27.973  13.878  1.00  0.00     0.046 A 
HETATM   16 CL   LIG     1      15.776  27.921  14.335  1.00  0.00    -0.083 Cl
ENDBRANCH   8   9
TORSDOF 1
ENDMDL
MODEL 6
REMARK VINA RESULT:      -5.2     19.654     21.911
REMARK  1 active torsions:
REMARK  status: ('A' for Active; 'I' for Inactive)
REMARK    1  A    between atoms: C_8  and  C_9 
ROOT
HETATM    1 CL   LIG     1      29.168  30.254  32.302  1.00  0.00    -0.083 Cl
HETATM    2  C   LIG     1      28.166  28.818  32.487  1.00  0.00     0.046 A 
HETATM    3  C   LIG     1      28.154  27.870  31.457  1.00  0.00     0.048 A 
HETATM    4  C   LIG     1      27.347  26.732  31.554  1.00  0.00     0.035 A 
HETATM    5 CL   LIG     1      27.337  25.550  30.258  1.00  0.00    -0.084 Cl
HETATM    6  C   LIG     1      26.544  26.540  32.682  1.00  0.00     0.025 A 
HETATM    7  C   LIG     1      26.550  27.482  33.714  1.00  0.00     0.016 A 
HETATM    8  C   LIG     1      27.365  28.621  33.631  1.00  0.00    -0.002 A 
ENDROOT
BRANCH   8   9
HETATM    9  C   LIG     1      27.353  29.598  34.738  1.00  0.00    -0.002 A 
HETATM   10  C   LIG     1      26.229  30.419  34.915  1.00  0.00     0.016 A 
HETATM   11  C   LIG     1      26.195  31.354  35.952  1.00  0.00     0.025 A 
HETATM   12  C   LIG     1      27.280  31.472  36.826  1.00  0.00     0.035 A 
HETATM   13  C   LIG     1      28.399  30.650  36.665  1.00  0.00     0.048 A 
HETATM   14 CL   LIG     1      27.233  32.645  38.129  1.00  0.00    -0.084 Cl
HETATM   15  C   LIG     1      28.442  29.710  35.626  1.00  0.00     0.046 A 
HETATM   16 CL   LIG     1      29.856  28.670  35.486  1.00  0.00    -0.083 Cl
ENDBRANCH   8   9
TORSDOF 1
ENDMDL
MODEL 7
REMARK VINA RESULT:      -5.0     14.024     15.488
REMARK  1 active torsions:
REMARK  status: ('A' for Active; 'I' for Inactive)
REMARK    1  A    between atoms: C_8  and  C_9 
ROOT
HETATM    1 CL   LIG     1      23.380  23.233  21.629  1.00  0.00    -0.083 Cl
HETATM    2  C   LIG     1      23.962  22.409  20.186  1.00  0.00     0.046 A 
HETATM    3  C   LIG     1      23.078  21.583  19.481  1.00  0.00     0.048 A 
HETATM    4  C   LIG     1      23.513  20.888  18.348  1.00  0.00     0.035 A 
HETATM    5 CL   LIG     1      22.399  19.855  17.472  1.00  0.00    -0.084 Cl
HETATM    6  C   LIG     1      24.837  21.013  17.918  1.00  0.00     0.025 A 
HETATM    7  C   LIG     1      25.726  21.834  18.616  1.00  0.00     0.016 A 
HETATM    8  C   LIG     1      25.296  22.545  19.747  1.00  0.00    -0.002 A 
ENDROOT
BRANCH   8   9
HETATM    9  C   LIG     1      26.256  23.408  20.464  1.00  0.00    -0.002 A 
HETATM   10  C   LIG     1      26.829  22.949  21.660  1.00  0.00     0.016 A 
HETATM   11  C   LIG     1      27.737  23.748  22.358  1.00  0.00     0.025 A 
HETATM   12  C   LIG     1      28.086  25.009  21.865  1.00  0.00     0.035 A 
HETATM   13  C   LIG     1      27.529  25.470  20.669  1.00  0.00     0.048 A 
HETATM   14 CL   LIG     1      29.228  26.009  22.744  1.00  0.00    -0.084 Cl
HETATM   15  C   LIG     1      26.616  24.675  19.962  1.00  0.00     0.046 A 
HETATM   16 CL   LIG     1      25.971  25.281  18.440  1.00  0.00    -0.083 Cl
ENDBRANCH   8   9
TORSDOF 1
ENDMDL
MODEL 8
REMARK VINA RESULT:      -5.0     14.017     14.950
REMARK  1 active torsions:
REMARK  status: ('A' for Active; 'I' for Inactive)
REMARK    1  A    between atoms: C_8  and  C_9 
ROOT
HETATM    1 CL   LIG     1      27.536  21.501  18.749  1.00  0.00    -0.083 Cl
HETATM    2  C   LIG     1      27.317  23.247  18.823  1.00  0.00     0.046 A 
HETATM    3  C   LIG     1      28.191  24.064  18.096  1.00  0.00     0.048 A 
HETATM    4  C   LIG     1      28.068  25.457  18.155  1.00  0.00     0.035 A 
HETATM    5 CL   LIG     1      29.167  26.474  17.243  1.00  0.00    -0.084 Cl
HETATM    6  C   LIG     1      27.072  26.036  18.946  1.00  0.00     0.025 A 
HETATM    7  C   LIG     1      26.196  25.227  19.674  1.00  0.00     0.016 A 
HETATM    8  C   LIG     1      26.304  23.830  19.612  1.00  0.00    -0.002 A 
ENDROOT
BRANCH   8   9
HETATM    9  C   LIG     1      25.363  22.999  20.390  1.00  0.00    -0.002 A 
HETATM   10  C   LIG     1      25.525  22.901  21.781  1.00  0.00     0.016 A 
HETATM   11  C   LIG     1      24.650  22.119  22.539  1.00  0.00     0.025 A 
HETATM   12  C   LIG     1      23.603  21.434  21.915  1.00  0.00     0.035 A 
HETATM   13  C   LIG     1      23.427  21.535  20.532  1.00  0.00     0.048 A 
HETATM   14 CL   LIG     1      22.504  20.454  22.871  1.00  0.00    -0.084 Cl
HETATM   15  C   LIG     1      24.300  22.317  19.765  1.00  0.00     0.046 A 
HETATM   16 CL   LIG     1      24.016  22.446  18.032  1.00  0.00    -0.083 Cl
ENDBRANCH   8   9
TORSDOF 1
ENDMDL
MODEL 9
REMARK VINA RESULT:      -5.0     14.213     14.865
REMARK  1 active torsions:
REMARK  status: ('A' for Active; 'I' for Inactive)
REMARK    1  A    between atoms: C_8  and  C_9 
ROOT
HETATM    1 CL   LIG     1      21.999  22.711  21.231  1.00  0.00    -0.083 Cl
HETATM    2  C   LIG     1      23.621  22.140  21.605  1.00  0.00     0.046 A 
HETATM    3  C   LIG     1      24.366  22.820  22.576  1.00  0.00     0.048 A 
HETATM    4  C   LIG     1      25.670  22.415  22.877  1.00  0.00     0.035 A 
HETATM    5 CL   LIG     1      26.597  23.273  24.095  1.00  0.00    -0.084 Cl
HETATM    6  C   LIG     1      26.237  21.329  22.204  1.00  0.00     0.025 A 
HETATM    7  C   LIG     1      25.501  20.646  21.233  1.00  0.00     0.016 A 
HETATM    8  C   LIG     1      24.188  21.037  20.932  1.00  0.00    -0.002 A 
ENDROOT
BRANCH   8   9
HETATM    9  C   LIG     1      23.432  20.295  19.903  1.00  0.00    -0.002 A 
HETATM   10  C   LIG     1      22.834  19.071  20.243  1.00  0.00     0.016 A 
HETATM   11  C   LIG     1      22.116  18.348  19.287  1.00  0.00     0.025 A 
HETATM   12  C   LIG     1      21.985  18.844  17.986  1.00  0.00     0.035 A 
HETATM   13  C   LIG     1      22.567  20.067  17.642  1.00  0.00     0.048 A 
HETATM   14 CL   LIG     1      21.081  17.934  16.789  1.00  0.00    -0.084 Cl
HETATM   15  C   LIG     1      23.289  20.798  18.594  1.00  0.00     0.046 A 
HETATM   16 CL   LIG     1      23.971  22.353  18.126  1.00  0.00    -0.083 Cl
ENDBRANCH   8   9
TORSDOF 1
ENDMDL
MODEL 10
REMARK VINA RESULT:      -4.9     14.173     14.962
REMARK  1 active torsions:
REMARK  status: ('A' for Active; 'I' for Inactive)
REMARK    1  A    between atoms: C_8  and  C_9 
ROOT
HETATM    1 CL   LIG     1      27.958  22.310  17.122  1.00  0.00    -0.083 Cl
HETATM    2  C   LIG     1      27.508  23.794  17.955  1.00  0.00     0.046 A 
HETATM    3  C   LIG     1      28.306  24.930  17.782  1.00  0.00     0.048 A 
HETATM    4  C   LIG     1      27.998  26.119  18.453  1.00  0.00     0.035 A 
HETATM    5 CL   LIG     1      29.005  27.538  18.231  1.00  0.00    -0.084 Cl
HETATM    6  C   LIG     1      26.890  26.173  19.303  1.00  0.00     0.025 A 
HETATM    7  C   LIG     1      26.088  25.043  19.481  1.00  0.00     0.016 A 
HETATM    8  C   LIG     1      26.383  23.850  18.804  1.00  0.00    -0.002 A 
ENDROOT
BRANCH   8   9
HETATM    9  C   LIG     1      25.516  22.672  19.009  1.00  0.00    -0.002 A 
HETATM   10  C   LIG     1      24.413  22.477  18.163  1.00  0.00     0.016 A 
HETATM   11  C   LIG     1      23.577  21.373  18.339  1.00  0.00     0.025 A 
HETATM   12  C   LIG     1      23.837  20.450  19.356  1.00  0.00     0.035 A 
HETATM   13  C   LIG     1      24.940  20.629  20.197  1.00  0.00     0.048 A 
HETATM   14 CL   LIG     1      22.785  19.063  19.573  1.00  0.00    -0.084 Cl
HETATM   15  C   LIG     1      25.784  21.735  20.028  1.00  0.00     0.046 A 
HETATM   16 CL   LIG     1      27.183  21.898  21.085  1.00  0.00    -0.083 Cl
ENDBRANCH   8   9
TORSDOF 1
ENDMDL
MODEL 11
REMARK VINA RESULT:      -4.9     14.216     15.519
REMARK  1 active torsions:
REMARK  status: ('A' for Active; 'I' for Inactive)
REMARK    1  A    between atoms: C_8  and  C_9 
ROOT
HETATM    1 CL   LIG     1      27.249  21.757  20.955  1.00  0.00    -0.083 Cl
HETATM    2  C   LIG     1      25.810  21.642  19.947  1.00  0.00     0.046 A 
HETATM    3  C   LIG     1      24.956  20.545  20.118  1.00  0.00     0.048 A 
HETATM    4  C   LIG     1      23.820  20.403  19.314  1.00  0.00     0.035 A 
HETATM    5 CL   LIG     1      22.756  19.026  19.534  1.00  0.00    -0.084 Cl
HETATM    6  C   LIG     1      23.536  21.357  18.332  1.00  0.00     0.025 A 
HETATM    7  C   LIG     1      24.384  22.453  18.155  1.00  0.00     0.016 A 
HETATM    8  C   LIG     1      25.519  22.610  18.964  1.00  0.00    -0.002 A 
ENDROOT
BRANCH   8   9
HETATM    9  C   LIG     1      26.396  23.781  18.756  1.00  0.00    -0.002 A 
HETATM   10  C   LIG     1      26.102  24.982  19.419  1.00  0.00     0.016 A 
HETATM   11  C   LIG     1      26.913  26.104  19.237  1.00  0.00     0.025 A 
HETATM   12  C   LIG     1      28.028  26.034  18.396  1.00  0.00     0.035 A 
HETATM   13  C   LIG     1      28.336  24.838  17.741  1.00  0.00     0.048 A 
HETATM   14 CL   LIG     1      29.047  27.445  18.171  1.00  0.00    -0.084 Cl
HETATM   15  C   LIG     1      27.526  23.708  17.918  1.00  0.00     0.046 A 
HETATM   16 CL   LIG     1      27.975  22.213  17.103  1.00  0.00    -0.083 Cl
ENDBRANCH   8   9
TORSDOF 1
ENDMDL
MODEL 12
REMARK VINA RESULT:      -4.9     14.132     14.707
REMARK  1 active torsions:
REMARK  status: ('A' for Active; 'I' for Inactive)
REMARK    1  A    between atoms: C_8  and  C_9 
ROOT
HETATM    1 CL   LIG     1      26.450  21.345  22.209  1.00  0.00    -0.083 Cl
HETATM    2  C   LIG     1      26.791  22.921  21.504  1.00  0.00     0.046 A 
HETATM    3  C   LIG     1      27.707  23.761  22.148  1.00  0.00     0.048 A 
HETATM    4  C   LIG     1      27.980  25.034  21.635  1.00  0.00     0.035 A 
HETATM    5 CL   LIG     1      29.128  26.081  22.449  1.00  0.00    -0.084 Cl
HETATM    6  C   LIG     1      27.332  25.472  20.476  1.00  0.00     0.025 A 
HETATM    7  C   LIG     1      26.417  24.640  19.828  1.00  0.00     0.016 A 
HETATM    8  C   LIG     1      26.145  23.358  20.329  1.00  0.00    -0.002 A 
ENDROOT
BRANCH   8   9
HETATM    9  C   LIG     1      25.175  22.498  19.621  1.00  0.00    -0.002 A 
HETATM   10  C   LIG     1      25.589  21.795  18.480  1.00  0.00     0.016 A 
HETATM   11  C   LIG     1      24.689  20.977  17.791  1.00  0.00     0.025 A 
HETATM   12  C   LIG     1      23.371  20.852  18.239  1.00  0.00     0.035 A 
HETATM   13  C   LIG     1      22.953  21.540  19.382  1.00  0.00     0.048 A 
HETATM   14 CL   LIG     1      22.244  19.823  17.373  1.00  0.00    -0.084 Cl
HETATM   15  C   LIG     1      23.849  22.362  20.078  1.00  0.00     0.046 A 
HETATM   16 CL   LIG     1      23.288  23.178  21.535  1.00  0.00    -0.083 Cl
ENDBRANCH   8   9
TORSDOF 1
ENDMDL
MODEL 13
REMARK VINA RESULT:      -4.9     14.086     14.694
REMARK  1 active torsions:
REMARK  status: ('A' for Active; 'I' for Inactive)
REMARK    1  A    between atoms: C_8  and  C_9 
ROOT
HETATM    1 CL   LIG     1      25.465  21.212  21.234  1.00  0.00    -0.083 Cl
HETATM    2  C   LIG     1      25.800  22.589  20.190  1.00  0.00     0.046 A 
HETATM    3  C   LIG     1      26.523  23.668  20.712  1.00  0.00     0.048 A 
HETATM    4  C   LIG     1      26.781  24.793  19.923  1.00  0.00     0.035 A 
HETATM    5 CL   LIG     1      27.687  26.141  20.586  1.00  0.00    -0.084 Cl
HETATM    6  C   LIG     1      26.313  24.845  18.607  1.00  0.00     0.025 A 
HETATM    7  C   LIG     1      25.591  23.773  18.078  1.00  0.00     0.016 A 
HETATM    8  C   LIG     1      25.336  22.635  18.858  1.00  0.00    -0.002 A 
ENDROOT
BRANCH   8   9
HETATM    9  C   LIG     1      24.573  21.515  18.272  1.00  0.00    -0.002 A 
HETATM   10  C   LIG     1      23.177  21.488  18.417  1.00  0.00     0.016 A 
HETATM   11  C   LIG     1      22.432  20.438  17.874  1.00  0.00     0.025 A 
HETATM   12  C   LIG     1      23.074  19.409  17.178  1.00  0.00     0.035 A 
HETATM   13  C   LIG     1      24.463  19.433  17.020  1.00  0.00     0.048 A 
HETATM   14 CL   LIG     1      22.136  18.093  16.497  1.00  0.00    -0.084 Cl
HETATM   15  C   LIG     1      25.217  20.483  17.561  1.00  0.00     0.046 A 
HETATM   16 CL   LIG     1      26.959  20.491  17.302  1.00  0.00    -0.083 Cl
ENDBRANCH   8   9
TORSDOF 1
ENDMDL
MODEL 14
REMARK VINA RESULT:      -4.8     14.054     15.216
REMARK  1 active torsions:
REMARK  status: ('A' for Active; 'I' for Inactive)
REMARK    1  A    between atoms: C_8  and  C_9 
ROOT
HETATM    1 CL   LIG     1      26.992  20.712  20.692  1.00  0.00    -0.083 Cl
HETATM    2  C   LIG     1      25.422  21.252  21.277  1.00  0.00     0.046 A 
HETATM    3  C   LIG     1      24.609  20.339  21.959  1.00  0.00     0.048 A 
HETATM    4  C   LIG     1      23.342  20.722  22.411  1.00  0.00     0.035 A 
HETATM    5 CL   LIG     1      22.329  19.571  23.262  1.00  0.00    -0.084 Cl
HETATM    6  C   LIG     1      22.882  22.021  22.179  1.00  0.00     0.025 A 
HETATM    7  C   LIG     1      23.687  22.938  21.499  1.00  0.00     0.016 A 
HETATM    8  C   LIG     1      24.964  22.567  21.052  1.00  0.00    -0.002 A 
ENDROOT
BRANCH   8   9
HETATM    9  C   LIG     1      25.795  23.558  20.339  1.00  0.00    -0.002 A 
HETATM   10  C   LIG     1      26.706  24.338  21.067  1.00  0.00     0.016 A 
HETATM   11  C   LIG     1      27.501  25.285  20.417  1.00  0.00     0.025 A 
HETATM   12  C   LIG     1      27.397  25.456  19.033  1.00  0.00     0.035 A 
HETATM   13  C   LIG     1      26.500  24.675  18.298  1.00  0.00     0.048 A 
HETATM   14 CL   LIG     1      28.398  26.645  18.219  1.00  0.00    -0.084 Cl
HETATM   15  C   LIG     1      25.699  23.724  18.942  1.00  0.00     0.046 A 
HETATM   16 CL   LIG     1      24.613  22.736  17.970  1.00  0.00    -0.083 Cl
ENDBRANCH   8   9
TORSDOF 1
ENDMDL
MODEL 15
REMARK VINA RESULT:      -4.8     14.574     15.342
REMARK  1 active torsions:
REMARK  status: ('A' for Active; 'I' for Inactive)
REMARK    1  A    between atoms: C_8  and  C_9 
ROOT
HETATM    1 CL   LIG     1      22.491  19.796  24.366  1.00  0.00    -0.083 Cl
HETATM    2  C   LIG     1      23.663  21.060  24.723  1.00  0.00     0.046 A 
HETATM    3  C   LIG     1      24.013  21.294  26.058  1.00  0.00     0.048 A 
HETATM    4  C   LIG     1      24.917  22.311  26.383  1.00  0.00     0.035 A 
HETATM    5 CL   LIG     1      25.349  22.598  28.058  1.00  0.00    -0.084 Cl
HETATM    6  C   LIG     1      25.471  23.102  25.372  1.00  0.00     0.025 A 
HETATM    7  C   LIG     1      25.126  22.875  24.037  1.00  0.00     0.016 A 
HETATM    8  C   LIG     1      24.229  21.850  23.700  1.00  0.00    -0.002 A 
ENDROOT
BRANCH   8   9
HETATM    9  C   LIG     1      23.885  21.631  22.281  1.00  0.00    -0.002 A 
HETATM   10  C   LIG     1      22.891  22.424  21.687  1.00  0.00     0.016 A 
HETATM   11  C   LIG     1      22.545  22.235  20.347  1.00  0.00     0.025 A 
HETATM   12  C   LIG     1      23.193  21.256  19.587  1.00  0.00     0.035 A 
HETATM   13  C   LIG     1      24.193  20.469  20.167  1.00  0.00     0.048 A 
HETATM   14 CL   LIG     1      22.758  21.022  17.904  1.00  0.00    -0.084 Cl
HETATM   15  C   LIG     1      24.545  20.653  21.511  1.00  0.00     0.046 A 
HETATM   16 CL   LIG     1      25.837  19.665  22.187  1.00  0.00    -0.083 Cl
ENDBRANCH   8   9
TORSDOF 1
ENDMDL
MODEL 16
REMARK VINA RESULT:      -4.7     14.359     15.977
REMARK  1 active torsions:
REMARK  status: ('A' for Active; 'I' for Inactive)
REMARK    1  A    between atoms: C_8  and  C_9 
ROOT
HETATM    1 CL   LIG     1      22.438  23.589  21.646  1.00  0.00    -0.083 Cl
HETATM    2  C   LIG     1      22.990  22.037  21.026  1.00  0.00     0.046 A 
HETATM    3  C   LIG     1      22.714  21.709  19.693  1.00  0.00     0.048 A 
HETATM    4  C   LIG     1      23.109  20.471  19.174  1.00  0.00     0.035 A 
HETATM    5 CL   LIG     1      22.758  20.068  17.503  1.00  0.00    -0.084 Cl
HETATM    6  C   LIG     1      23.779  19.554  19.989  1.00  0.00     0.025 A 
HETATM    7  C   LIG     1      24.058  19.874  21.320  1.00  0.00     0.016 A 
HETATM    8  C   LIG     1      23.676  21.117  21.847  1.00  0.00    -0.002 A 
ENDROOT
BRANCH   8   9
HETATM    9  C   LIG     1      23.986  21.429  23.256  1.00  0.00    -0.002 A 
HETATM   10  C   LIG     1      23.237  20.818  24.274  1.00  0.00     0.016 A 
HETATM   11  C   LIG     1      23.508  21.099  25.615  1.00  0.00     0.025 A 
HETATM   12  C   LIG     1      24.535  21.987  25.951  1.00  0.00     0.035 A 
HETATM   13  C   LIG     1      25.294  22.591  24.945  1.00  0.00     0.048 A 
HETATM   14 CL   LIG     1      24.875  22.336  27.637  1.00  0.00    -0.084 Cl
HETATM   15  C   LIG     1      25.028  22.315  23.597  1.00  0.00     0.046 A 
HETATM   16 CL   LIG     1      26.036  23.069  22.366  1.00  0.00    -0.083 Cl
ENDBRANCH   8   9
TORSDOF 1
ENDMDL
MODEL 17
REMARK VINA RESULT:      -4.4     16.880     18.143
REMARK  1 active torsions:
REMARK  status: ('A' for Active; 'I' for Inactive)
REMARK    1  A    between atoms: C_8  and  C_9 
ROOT
HETATM    1 CL   LIG     1      29.646  25.148  26.625  1.00  0.00    -0.083 Cl
HETATM    2  C   LIG     1      28.874  26.190  27.816  1.00  0.00     0.046 A 
HETATM    3  C   LIG     1      29.534  27.357  28.216  1.00  0.00     0.048 A 
HETATM    4  C   LIG     1      28.966  28.193  29.183  1.00  0.00     0.035 A 
HETATM    5 CL   LIG     1      29.800  29.654  29.679  1.00  0.00    -0.084 Cl
HETATM    6  C   LIG     1      27.736  27.861  29.757  1.00  0.00     0.025 A 
HETATM    7  C   LIG     1      27.071  26.697  29.364  1.00  0.00     0.016 A 
HETATM    8  C   LIG     1      27.627  25.858  28.386  1.00  0.00    -0.002 A 
ENDROOT
BRANCH   8   9
HETATM    9  C   LIG     1      26.901  24.636  27.987  1.00  0.00    -0.002 A 
HETATM   10  C   LIG     1      26.177  24.631  26.785  1.00  0.00     0.016 A 
HETATM   11  C   LIG     1      25.479  23.488  26.387  1.00  0.00     0.025 A 
HETATM   12  C   LIG     1      25.503  22.339  27.183  1.00  0.00     0.035 A 
HETATM   13  C   LIG     1      26.230  22.331  28.377  1.00  0.00     0.048 A 
HETATM   14 CL   LIG     1      24.626  20.905  26.680  1.00  0.00    -0.084 Cl
HETATM   15  C   LIG     1      26.932  23.473  28.784  1.00  0.00     0.046 A 
HETATM   16 CL   LIG     1      27.866  23.404  30.275  1.00  0.00    -0.083 Cl
ENDBRANCH   8   9
TORSDOF 1
ENDMDL
MODEL 18
REMARK VINA RESULT:      -4.4     14.428     15.080
REMARK  1 active torsions:
REMARK  status: ('A' for Active; 'I' for Inactive)
REMARK    1  A    between atoms: C_8  and  C_9 
ROOT
HETATM    1 CL   LIG     1      22.764  20.923  23.082  1.00  0.00    -0.083 Cl
HETATM    2  C   LIG     1      24.279  21.751  22.742  1.00  0.00     0.046 A 
HETATM    3  C   LIG     1      24.956  22.374  23.797  1.00  0.00     0.048 A 
HETATM    4  C   LIG     1      26.147  23.069  23.560  1.00  0.00     0.035 A 
HETATM    5 CL   LIG     1      26.988  23.847  24.888  1.00  0.00    -0.084 Cl
HETATM    6  C   LIG     1      26.664  23.146  22.263  1.00  0.00     0.025 A 
HETATM    7  C   LIG     1      25.994  22.527  21.205  1.00  0.00     0.016 A 
HETATM    8  C   LIG     1      24.805  21.819  21.434  1.00  0.00    -0.002 A 
ENDROOT
BRANCH   8   9
HETATM    9  C   LIG     1      24.120  21.172  20.297  1.00  0.00    -0.002 A 
HETATM   10  C   LIG     1      23.364  21.960  19.415  1.00  0.00     0.016 A 
HETATM   11  C   LIG     1      22.704  21.372  18.334  1.00  0.00     0.025 A 
HETATM   12  C   LIG     1      22.798  19.993  18.120  1.00  0.00     0.035 A 
HETATM   13  C   LIG     1      23.558  19.202  18.987  1.00  0.00     0.048 A 
HETATM   14 CL   LIG     1      21.969  19.258  16.760  1.00  0.00    -0.084 Cl
HETATM   15  C   LIG     1      24.223  19.784  20.074  1.00  0.00     0.046 A 
HETATM   16 CL   LIG     1      25.201  18.754  21.115  1.00  0.00    -0.083 Cl
ENDBRANCH   8   9
TORSDOF 1
ENDMDL
MODEL 19
REMARK VINA RESULT:      -4.3     14.779     16.244
REMARK  1 active torsions:
REMARK  status: ('A' for Active; 'I' for Inactive)
REMARK    1  A    between atoms: C_8  and  C_9 
ROOT
HETATM    1 CL   LIG     1      22.078  22.722  21.603  1.00  0.00    -0.083 Cl
HETATM    2  C   LIG     1      23.269  21.578  20.994  1.00  0.00     0.046 A 
HETATM    3  C   LIG     1      23.652  21.658  19.650  1.00  0.00     0.048 A 
HETATM    4  C   LIG     1      24.573  20.746  19.123  1.00  0.00     0.035 A 
HETATM    5 CL   LIG     1      25.046  20.852  17.438  1.00  0.00    -0.084 Cl
HETATM    6  C   LIG     1      25.111  19.747  19.939  1.00  0.00     0.025 A 
HETATM    7  C   LIG     1      24.733  19.660  21.281  1.00  0.00     0.016 A 
HETATM    8  C   LIG     1      23.819  20.577  21.822  1.00  0.00    -0.002 A 
ENDROOT
BRANCH   8   9
HETATM    9  C   LIG     1      23.441  20.463  23.245  1.00  0.00    -0.002 A 
HETATM   10  C   LIG     1      22.513  19.483  23.630  1.00  0.00     0.016 A 
HETATM   11  C   LIG     1      22.136  19.357  24.970  1.00  0.00     0.025 A 
HETATM   12  C   LIG     1      22.687  20.205  25.936  1.00  0.00     0.035 A 
HETATM   13  C   LIG     1      23.620  21.177  25.563  1.00  0.00     0.048 A 
HETATM   14 CL   LIG     1      22.213  20.043  27.617  1.00  0.00    -0.084 Cl
HETATM   15  C   LIG     1      24.003  21.310  24.222  1.00  0.00     0.046 A 
HETATM   16 CL   LIG     1      25.211  22.521  23.805  1.00  0.00    -0.083 Cl
ENDBRANCH   8   9
TORSDOF 1
ENDMDL
MODEL 20
REMARK VINA RESULT:      -4.3     14.577     16.017
REMARK  1 active torsions:
REMARK  status: ('A' for Active; 'I' for Inactive)
REMARK    1  A    between atoms: C_8  and  C_9 
ROOT
HETATM    1 CL   LIG     1      22.475  23.027  21.527  1.00  0.00    -0.083 Cl
HETATM    2  C   LIG     1      24.173  22.654  21.249  1.00  0.00     0.046 A 
HETATM    3  C   LIG     1      24.734  22.967  20.006  1.00  0.00     0.048 A 
HETATM    4  C   LIG     1      26.072  22.657  19.737  1.00  0.00     0.035 A 
HETATM    5 CL   LIG     1      26.768  23.052  18.176  1.00  0.00    -0.084 Cl
HETATM    6  C   LIG     1      26.852  22.028  20.712  1.00  0.00     0.025 A 
HETATM    7  C   LIG     1      26.298  21.711  21.955  1.00  0.00     0.016 A 
HETATM    8  C   LIG     1      24.961  22.029  22.238  1.00  0.00    -0.002 A 
ENDROOT
BRANCH   8   9
HETATM    9  C   LIG     1      24.403  21.685  23.561  1.00  0.00    -0.002 A 
HETATM   10  C   LIG     1      24.730  22.482  24.670  1.00  0.00     0.016 A 
HETATM   11  C   LIG     1      24.218  22.176  25.933  1.00  0.00     0.025 A 
HETATM   12  C   LIG     1      23.370  21.077  26.099  1.00  0.00     0.035 A 
HETATM   13  C   LIG     1      23.030  20.285  24.998  1.00  0.00     0.048 A 
HETATM   14 CL   LIG     1      22.727  20.697  27.686  1.00  0.00    -0.084 Cl
HETATM   15  C   LIG     1      23.540  20.584  23.728  1.00  0.00     0.046 A 
HETATM   16 CL   LIG     1      23.051  19.582  22.365  1.00  0.00    -0.083 Cl
ENDBRANCH   8   9
TORSDOF 1
ENDMDL
