REMARK  2 active torsions:
REMARK  status: ('A' for Active; 'I' for Inactive)
REMARK    1  A    between atoms: O_2  and  C_3 
REMARK    2  A    between atoms: C_4  and  O_5 
ROOT
HETATM    1  C   LIG     1      -0.431   0.053  -0.090  1.00  0.00     0.102 A 
HETATM    2  C   LIG     1      -0.142   1.423   0.045  1.00  0.00     0.100 A 
HETATM    3  C   LIG     1       1.159   1.838   0.348  1.00  0.00     0.065 A 
HETATM    4  C   LIG     1       2.183   0.902   0.518  1.00  0.00     0.058 A 
HETATM    5 CL   LIG     1       3.803   1.470   0.898  1.00  0.00    -0.082 Cl
HETATM    6  C   LIG     1       1.904  -0.467   0.385  1.00  0.00     0.058 A 
HETATM    7 CL   LIG     1       3.164  -1.677   0.592  1.00  0.00    -0.082 Cl
HETATM    8  C   LIG     1       0.604  -0.888   0.083  1.00  0.00     0.065 A 
ENDROOT
BRANCH   1   9
HETATM    9  O   LIG     1      -1.746  -0.336  -0.394  1.00  0.00    -0.353 OA
HETATM   10  C   LIG     1      -2.171  -1.685  -0.558  1.00  0.00     0.210 C 
ENDBRANCH   1   9
BRANCH   2  11
HETATM   11  O   LIG     1      -1.135   2.388  -0.117  1.00  0.00    -0.358 OA
HETATM   12  H   LIG     1      -2.094   2.145  -0.337  1.00  0.00     0.217 HD
ENDBRANCH   2  11
TORSDOF 2
