MODEL 1
REMARK VINA RESULT:      -7.2      0.000      0.000
REMARK  2 active torsions:
REMARK  status: ('A' for Active; 'I' for Inactive)
REMARK    1  A    between atoms: C_3  and  C_4 
REMARK       I    between atoms: C_4  and  N_5 
REMARK    2  A    between atoms: N_5  and  C_6 
ROOT
HETATM    1  C   LIG     1      15.775  34.900  20.261  1.00  0.00     0.258 C 
HETATM    2  N   LIG     1      17.132  35.165  20.643  1.00  0.00    -0.323 N 
HETATM    3  O   LIG     1      14.882  35.763  20.479  1.00  0.00    -0.267 OA
HETATM    4  H   LIG     1      17.698  34.367  21.009  1.00  0.00     0.169 HD
ENDROOT
BRANCH   1   5
HETATM    5  C   LIG     1      15.388  33.602  19.670  1.00  0.00     0.063 A 
HETATM    6  C   LIG     1      15.116  33.293  18.343  1.00  0.00     0.064 A 
HETATM    7  C   LIG     1      15.176  34.209  17.163  1.00  0.00     0.077 C 
HETATM    8  O   LIG     1      14.743  32.036  18.253  1.00  0.00    -0.326 OA
HETATM    9  C   LIG     1      14.749  31.503  19.453  1.00  0.00     0.143 A 
HETATM   10  C   LIG     1      15.137  32.445  20.382  1.00  0.00     0.044 A 
ENDBRANCH   1   5
BRANCH   2  11
HETATM   11  C   LIG     1      17.697  36.485  20.714  1.00  0.00     0.035 A 
HETATM   12  C   LIG     1      17.314  37.394  21.719  1.00  0.00     0.029 A 
HETATM   13  C   LIG     1      17.862  38.680  21.752  1.00  0.00     0.002 A 
HETATM   14  C   LIG     1      18.783  39.075  20.780  1.00  0.00     0.000 A 
HETATM   15  C   LIG     1      19.155  38.187  19.768  1.00  0.00     0.002 A 
HETATM   16  C   LIG     1      18.609  36.900  19.730  1.00  0.00     0.029 A 
ENDBRANCH   2  11
TORSDOF 2
ENDMDL
MODEL 2
REMARK VINA RESULT:      -7.2      1.528      2.537
REMARK  2 active torsions:
REMARK  status: ('A' for Active; 'I' for Inactive)
REMARK    1  A    between atoms: C_3  and  C_4 
REMARK       I    between atoms: C_4  and  N_5 
REMARK    2  A    between atoms: N_5  and  C_6 
ROOT
HETATM    1  C   LIG     1      15.505  34.162  20.755  1.00  0.00     0.258 C 
HETATM    2  N   LIG     1      16.798  34.675  21.103  1.00  0.00    -0.323 N 
HETATM    3  O   LIG     1      14.580  34.160  21.612  1.00  0.00    -0.267 OA
HETATM    4  H   LIG     1      17.634  34.193  20.704  1.00  0.00     0.169 HD
ENDROOT
BRANCH   1   5
HETATM    5  C   LIG     1      15.249  33.575  19.423  1.00  0.00     0.063 A 
HETATM    6  C   LIG     1      15.002  32.251  19.085  1.00  0.00     0.064 A 
HETATM    7  C   LIG     1      14.907  31.077  20.007  1.00  0.00     0.077 C 
HETATM    8  O   LIG     1      14.894  32.144  17.780  1.00  0.00    -0.326 OA
HETATM    9  C   LIG     1      15.063  33.329  17.240  1.00  0.00     0.143 A 
HETATM   10  C   LIG     1      15.299  34.263  18.226  1.00  0.00     0.044 A 
ENDBRANCH   1   5
BRANCH   2  11
HETATM   11  C   LIG     1      17.011  35.693  22.096  1.00  0.00     0.035 A 
HETATM   12  C   LIG     1      17.058  35.381  23.468  1.00  0.00     0.029 A 
HETATM   13  C   LIG     1      17.244  36.393  24.415  1.00  0.00     0.002 A 
HETATM   14  C   LIG     1      17.373  37.722  24.005  1.00  0.00     0.000 A 
HETATM   15  C   LIG     1      17.309  38.043  22.647  1.00  0.00     0.002 A 
HETATM   16  C   LIG     1      17.122  37.035  21.697  1.00  0.00     0.029 A 
ENDBRANCH   2  11
TORSDOF 2
ENDMDL
MODEL 3
REMARK VINA RESULT:      -7.1      3.768      5.432
REMARK  2 active torsions:
REMARK  status: ('A' for Active; 'I' for Inactive)
REMARK    1  A    between atoms: C_3  and  C_4 
REMARK       I    between atoms: C_4  and  N_5 
REMARK    2  A    between atoms: N_5  and  C_6 
ROOT
HETATM    1  C   LIG     1      17.165  36.681  23.023  1.00  0.00     0.258 C 
HETATM    2  N   LIG     1      17.916  37.816  22.569  1.00  0.00    -0.323 N 
HETATM    3  O   LIG     1      16.349  36.117  22.244  1.00  0.00    -0.267 OA
HETATM    4  H   LIG     1      18.097  38.582  23.255  1.00  0.00     0.169 HD
ENDROOT
BRANCH   1   5
HETATM    5  C   LIG     1      17.284  36.192  24.412  1.00  0.00     0.063 A 
HETATM    6  C   LIG     1      17.414  36.923  25.587  1.00  0.00     0.064 A 
HETATM    7  C   LIG     1      17.440  38.410  25.736  1.00  0.00     0.077 C 
HETATM    8  O   LIG     1      17.558  36.100  26.601  1.00  0.00    -0.326 OA
HETATM    9  C   LIG     1      17.535  34.865  26.155  1.00  0.00     0.143 A 
HETATM   10  C   LIG     1      17.375  34.865  24.786  1.00  0.00     0.044 A 
ENDBRANCH   1   5
BRANCH   2  11
HETATM   11  C   LIG     1      18.276  38.036  21.195  1.00  0.00     0.035 A 
HETATM   12  C   LIG     1      18.502  39.333  20.694  1.00  0.00     0.029 A 
HETATM   13  C   LIG     1      18.830  39.521  19.348  1.00  0.00     0.002 A 
HETATM   14  C   LIG     1      18.924  38.424  18.489  1.00  0.00     0.000 A 
HETATM   15  C   LIG     1      18.684  37.136  18.973  1.00  0.00     0.002 A 
HETATM   16  C   LIG     1      18.355  36.942  20.318  1.00  0.00     0.029 A 
ENDBRANCH   2  11
TORSDOF 2
ENDMDL
MODEL 4
REMARK VINA RESULT:      -6.8      2.274      5.985
REMARK  2 active torsions:
REMARK  status: ('A' for Active; 'I' for Inactive)
REMARK    1  A    between atoms: C_3  and  C_4 
REMARK       I    between atoms: C_4  and  N_5 
REMARK    2  A    between atoms: N_5  and  C_6 
ROOT
HETATM    1  C   LIG     1      17.005  35.704  21.443  1.00  0.00     0.258 C 
HETATM    2  N   LIG     1      16.068  34.620  21.353  1.00  0.00    -0.323 N 
HETATM    3  O   LIG     1      17.895  35.837  20.560  1.00  0.00    -0.267 OA
HETATM    4  H   LIG     1      15.768  34.164  22.243  1.00  0.00     0.169 HD
ENDROOT
BRANCH   1   5
HETATM    5  C   LIG     1      16.986  36.636  22.589  1.00  0.00     0.063 A 
HETATM    6  C   LIG     1      17.087  36.354  23.946  1.00  0.00     0.064 A 
HETATM    7  C   LIG     1      17.268  35.016  24.588  1.00  0.00     0.077 C 
HETATM    8  O   LIG     1      16.958  37.465  24.635  1.00  0.00    -0.326 OA
HETATM    9  C   LIG     1      16.772  38.464  23.803  1.00  0.00     0.143 A 
HETATM   10  C   LIG     1      16.770  37.998  22.505  1.00  0.00     0.044 A 
ENDBRANCH   1   5
BRANCH   2  11
HETATM   11  C   LIG     1      15.660  34.021  20.112  1.00  0.00     0.035 A 
HETATM   12  C   LIG     1      15.437  32.634  20.005  1.00  0.00     0.029 A 
HETATM   13  C   LIG     1      15.062  32.073  18.780  1.00  0.00     0.002 A 
HETATM   14  C   LIG     1      14.917  32.884  17.653  1.00  0.00     0.000 A 
HETATM   15  C   LIG     1      15.154  34.257  17.745  1.00  0.00     0.002 A 
HETATM   16  C   LIG     1      15.530  34.823  18.967  1.00  0.00     0.029 A 
ENDBRANCH   2  11
TORSDOF 2
ENDMDL
MODEL 5
REMARK VINA RESULT:      -6.7      2.271      2.899
REMARK  2 active torsions:
REMARK  status: ('A' for Active; 'I' for Inactive)
REMARK    1  A    between atoms: C_3  and  C_4 
REMARK       I    between atoms: C_4  and  N_5 
REMARK    2  A    between atoms: N_5  and  C_6 
ROOT
HETATM    1  C   LIG     1      15.774  34.998  19.379  1.00  0.00     0.258 C 
HETATM    2  N   LIG     1      15.080  35.256  20.608  1.00  0.00    -0.323 N 
HETATM    3  O   LIG     1      16.778  35.695  19.068  1.00  0.00    -0.267 OA
HETATM    4  H   LIG     1      14.041  35.155  20.609  1.00  0.00     0.169 HD
ENDROOT
BRANCH   1   5
HETATM    5  C   LIG     1      15.296  33.967  18.434  1.00  0.00     0.063 A 
HETATM    6  C   LIG     1      15.080  32.613  18.655  1.00  0.00     0.064 A 
HETATM    7  C   LIG     1      15.257  31.858  19.934  1.00  0.00     0.077 C 
HETATM    8  O   LIG     1      14.718  32.038  17.531  1.00  0.00    -0.326 OA
HETATM    9  C   LIG     1      14.690  32.942  16.579  1.00  0.00     0.143 A 
HETATM   10  C   LIG     1      15.054  34.170  17.089  1.00  0.00     0.044 A 
ENDBRANCH   1   5
BRANCH   2  11
HETATM   11  C   LIG     1      15.708  35.807  21.778  1.00  0.00     0.035 A 
HETATM   12  C   LIG     1      15.492  37.144  22.165  1.00  0.00     0.029 A 
HETATM   13  C   LIG     1      16.134  37.663  23.294  1.00  0.00     0.002 A 
HETATM   14  C   LIG     1      17.002  36.861  24.038  1.00  0.00     0.000 A 
HETATM   15  C   LIG     1      17.237  35.540  23.650  1.00  0.00     0.002 A 
HETATM   16  C   LIG     1      16.599  35.017  22.522  1.00  0.00     0.029 A 
ENDBRANCH   2  11
TORSDOF 2
ENDMDL
MODEL 6
REMARK VINA RESULT:      -6.7      6.435      8.922
REMARK  2 active torsions:
REMARK  status: ('A' for Active; 'I' for Inactive)
REMARK    1  A    between atoms: C_3  and  C_4 
REMARK       I    between atoms: C_4  and  N_5 
REMARK    2  A    between atoms: N_5  and  C_6 
ROOT
HETATM    1  C   LIG     1      17.946  33.891  13.004  1.00  0.00     0.258 C 
HETATM    2  N   LIG     1      17.260  32.639  12.859  1.00  0.00    -0.323 N 
HETATM    3  O   LIG     1      17.397  34.837  13.633  1.00  0.00    -0.267 OA
HETATM    4  H   LIG     1      17.373  32.127  11.956  1.00  0.00     0.169 HD
ENDROOT
BRANCH   1   5
HETATM    5  C   LIG     1      19.263  34.118  12.376  1.00  0.00     0.063 A 
HETATM    6  C   LIG     1      19.554  34.551  11.088  1.00  0.00     0.064 A 
HETATM    7  C   LIG     1      18.585  34.925  10.012  1.00  0.00     0.077 C 
HETATM    8  O   LIG     1      20.856  34.555  10.910  1.00  0.00    -0.326 OA
HETATM    9  C   LIG     1      21.438  34.142  12.012  1.00  0.00     0.143 A 
HETATM   10  C   LIG     1      20.484  33.844  12.962  1.00  0.00     0.044 A 
ENDBRANCH   1   5
BRANCH   2  11
HETATM   11  C   LIG     1      16.300  32.142  13.806  1.00  0.00     0.035 A 
HETATM   12  C   LIG     1      16.176  32.705  15.090  1.00  0.00     0.029 A 
HETATM   13  C   LIG     1      15.249  32.187  16.001  1.00  0.00     0.002 A 
HETATM   14  C   LIG     1      14.448  31.100  15.644  1.00  0.00     0.000 A 
HETATM   15  C   LIG     1      14.577  30.523  14.379  1.00  0.00     0.002 A 
HETATM   16  C   LIG     1      15.503  31.036  13.466  1.00  0.00     0.029 A 
ENDBRANCH   2  11
TORSDOF 2
ENDMDL
MODEL 7
REMARK VINA RESULT:      -6.7      1.784      5.871
REMARK  2 active torsions:
REMARK  status: ('A' for Active; 'I' for Inactive)
REMARK    1  A    between atoms: C_3  and  C_4 
REMARK       I    between atoms: C_4  and  N_5 
REMARK    2  A    between atoms: N_5  and  C_6 
ROOT
HETATM    1  C   LIG     1      16.808  35.810  21.221  1.00  0.00     0.258 C 
HETATM    2  N   LIG     1      15.727  35.601  20.300  1.00  0.00    -0.323 N 
HETATM    3  O   LIG     1      17.187  34.867  21.967  1.00  0.00    -0.267 OA
HETATM    4  H   LIG     1      15.063  36.392  20.144  1.00  0.00     0.169 HD
ENDROOT
BRANCH   1   5
HETATM    5  C   LIG     1      17.449  37.134  21.358  1.00  0.00     0.063 A 
HETATM    6  C   LIG     1      18.462  37.698  20.592  1.00  0.00     0.064 A 
HETATM    7  C   LIG     1      19.146  37.101  19.404  1.00  0.00     0.077 C 
HETATM    8  O   LIG     1      18.789  38.868  21.091  1.00  0.00    -0.326 OA
HETATM    9  C   LIG     1      18.048  39.103  22.149  1.00  0.00     0.143 A 
HETATM   10  C   LIG     1      17.196  38.042  22.368  1.00  0.00     0.044 A 
ENDBRANCH   1   5
BRANCH   2  11
HETATM   11  C   LIG     1      15.410  34.324  19.721  1.00  0.00     0.035 A 
HETATM   12  C   LIG     1      15.207  33.185  20.523  1.00  0.00     0.029 A 
HETATM   13  C   LIG     1      14.921  31.949  19.933  1.00  0.00     0.002 A 
HETATM   14  C   LIG     1      14.847  31.837  18.543  1.00  0.00     0.000 A 
HETATM   15  C   LIG     1      15.064  32.958  17.739  1.00  0.00     0.002 A 
HETATM   16  C   LIG     1      15.351  34.195  18.324  1.00  0.00     0.029 A 
ENDBRANCH   2  11
TORSDOF 2
ENDMDL
MODEL 8
REMARK VINA RESULT:      -6.6      4.585      8.527
REMARK  2 active torsions:
REMARK  status: ('A' for Active; 'I' for Inactive)
REMARK    1  A    between atoms: C_3  and  C_4 
REMARK       I    between atoms: C_4  and  N_5 
REMARK    2  A    between atoms: N_5  and  C_6 
ROOT
HETATM    1  C   LIG     1      14.078  31.365  16.657  1.00  0.00     0.258 C 
HETATM    2  N   LIG     1      14.439  31.114  15.292  1.00  0.00    -0.323 N 
HETATM    3  O   LIG     1      13.186  30.665  17.209  1.00  0.00    -0.267 OA
HETATM    4  H   LIG     1      14.672  31.937  14.693  1.00  0.00     0.169 HD
ENDROOT
BRANCH   1   5
HETATM    5  C   LIG     1      14.690  32.474  17.418  1.00  0.00     0.063 A 
HETATM    6  C   LIG     1      15.069  32.513  18.754  1.00  0.00     0.064 A 
HETATM    7  C   LIG     1      14.971  31.412  19.761  1.00  0.00     0.077 C 
HETATM    8  O   LIG     1      15.513  33.714  19.049  1.00  0.00    -0.326 OA
HETATM    9  C   LIG     1      15.441  34.470  17.978  1.00  0.00     0.143 A 
HETATM   10  C   LIG     1      14.922  33.744  16.927  1.00  0.00     0.044 A 
ENDBRANCH   1   5
BRANCH   2  11
HETATM   11  C   LIG     1      14.330  29.826  14.663  1.00  0.00     0.035 A 
HETATM   12  C   LIG     1      15.470  29.127  14.219  1.00  0.00     0.029 A 
HETATM   13  C   LIG     1      15.334  27.885  13.590  1.00  0.00     0.002 A 
HETATM   14  C   LIG     1      14.066  27.337  13.387  1.00  0.00     0.000 A 
HETATM   15  C   LIG     1      12.930  28.031  13.806  1.00  0.00     0.002 A 
HETATM   16  C   LIG     1      13.060  29.273  14.435  1.00  0.00     0.029 A 
ENDBRANCH   2  11
TORSDOF 2
ENDMDL
MODEL 9
REMARK VINA RESULT:      -6.6      1.946      5.907
REMARK  2 active torsions:
REMARK  status: ('A' for Active; 'I' for Inactive)
REMARK    1  A    between atoms: C_3  and  C_4 
REMARK       I    between atoms: C_4  and  N_5 
REMARK    2  A    between atoms: N_5  and  C_6 
ROOT
HETATM    1  C   LIG     1      17.111  35.877  21.221  1.00  0.00     0.258 C 
HETATM    2  N   LIG     1      16.215  34.757  21.203  1.00  0.00    -0.323 N 
HETATM    3  O   LIG     1      17.949  36.024  20.290  1.00  0.00    -0.267 OA
HETATM    4  H   LIG     1      15.979  34.310  22.117  1.00  0.00     0.169 HD
ENDROOT
BRANCH   1   5
HETATM    5  C   LIG     1      17.114  36.834  22.347  1.00  0.00     0.063 A 
HETATM    6  C   LIG     1      17.520  38.163  22.363  1.00  0.00     0.064 A 
HETATM    7  C   LIG     1      18.039  38.971  21.217  1.00  0.00     0.077 C 
HETATM    8  O   LIG     1      17.423  38.636  23.584  1.00  0.00    -0.326 OA
HETATM    9  C   LIG     1      16.980  37.686  24.376  1.00  0.00     0.143 A 
HETATM   10  C   LIG     1      16.778  36.530  23.652  1.00  0.00     0.044 A 
ENDBRANCH   1   5
BRANCH   2  11
HETATM   11  C   LIG     1      15.767  34.114  19.997  1.00  0.00     0.035 A 
HETATM   12  C   LIG     1      15.554  34.843  18.812  1.00  0.00     0.029 A 
HETATM   13  C   LIG     1      15.097  34.197  17.659  1.00  0.00     0.002 A 
HETATM   14  C   LIG     1      14.838  32.825  17.680  1.00  0.00     0.000 A 
HETATM   15  C   LIG     1      15.028  32.097  18.857  1.00  0.00     0.002 A 
HETATM   16  C   LIG     1      15.484  32.738  20.012  1.00  0.00     0.029 A 
ENDBRANCH   2  11
TORSDOF 2
ENDMDL
MODEL 10
REMARK VINA RESULT:      -6.4      3.049      6.593
REMARK  2 active torsions:
REMARK  status: ('A' for Active; 'I' for Inactive)
REMARK    1  A    between atoms: C_3  and  C_4 
REMARK       I    between atoms: C_4  and  N_5 
REMARK    2  A    between atoms: N_5  and  C_6 
ROOT
HETATM    1  C   LIG     1      15.278  33.705  17.551  1.00  0.00     0.258 C 
HETATM    2  N   LIG     1      16.074  32.678  16.943  1.00  0.00    -0.323 N 
HETATM    3  O   LIG     1      14.536  34.430  16.833  1.00  0.00    -0.267 OA
HETATM    4  H   LIG     1      17.025  32.504  17.337  1.00  0.00     0.169 HD
ENDROOT
BRANCH   1   5
HETATM    5  C   LIG     1      15.357  33.974  19.001  1.00  0.00     0.063 A 
HETATM    6  C   LIG     1      15.164  33.099  20.064  1.00  0.00     0.064 A 
HETATM    7  C   LIG     1      14.850  31.639  19.996  1.00  0.00     0.077 C 
HETATM    8  O   LIG     1      15.260  33.757  21.196  1.00  0.00    -0.326 OA
HETATM    9  C   LIG     1      15.500  35.022  20.936  1.00  0.00     0.143 A 
HETATM   10  C   LIG     1      15.561  35.215  19.572  1.00  0.00     0.044 A 
ENDBRANCH   1   5
BRANCH   2  11
HETATM   11  C   LIG     1      15.710  32.002  15.727  1.00  0.00     0.035 A 
HETATM   12  C   LIG     1      14.753  30.969  15.720  1.00  0.00     0.029 A 
HETATM   13  C   LIG     1      14.433  30.313  14.527  1.00  0.00     0.002 A 
HETATM   14  C   LIG     1      15.070  30.671  13.337  1.00  0.00     0.000 A 
HETATM   15  C   LIG     1      16.033  31.682  13.338  1.00  0.00     0.002 A 
HETATM   16  C   LIG     1      16.357  32.340  14.528  1.00  0.00     0.029 A 
ENDBRANCH   2  11
TORSDOF 2
ENDMDL
MODEL 11
REMARK VINA RESULT:      -6.4      3.093      4.915
REMARK  2 active torsions:
REMARK  status: ('A' for Active; 'I' for Inactive)
REMARK    1  A    between atoms: C_3  and  C_4 
REMARK       I    between atoms: C_4  and  N_5 
REMARK    2  A    between atoms: N_5  and  C_6 
ROOT
HETATM    1  C   LIG     1      14.707  32.269  16.794  1.00  0.00     0.258 C 
HETATM    2  N   LIG     1      15.569  32.299  17.941  1.00  0.00    -0.323 N 
HETATM    3  O   LIG     1      13.505  32.634  16.904  1.00  0.00    -0.267 OA
HETATM    4  H   LIG     1      16.272  31.534  18.039  1.00  0.00     0.169 HD
ENDROOT
BRANCH   1   5
HETATM    5  C   LIG     1      15.184  31.756  15.494  1.00  0.00     0.063 A 
HETATM    6  C   LIG     1      16.214  32.232  14.691  1.00  0.00     0.064 A 
HETATM    7  C   LIG     1      17.123  33.387  14.966  1.00  0.00     0.077 C 
HETATM    8  O   LIG     1      16.268  31.529  13.583  1.00  0.00    -0.326 OA
HETATM    9  C   LIG     1      15.323  30.617  13.611  1.00  0.00     0.143 A 
HETATM   10  C   LIG     1      14.606  30.721  14.784  1.00  0.00     0.044 A 
ENDBRANCH   1   5
BRANCH   2  11
HETATM   11  C   LIG     1      15.405  33.215  19.037  1.00  0.00     0.035 A 
HETATM   12  C   LIG     1      15.742  34.576  18.913  1.00  0.00     0.029 A 
HETATM   13  C   LIG     1      15.594  35.442  20.001  1.00  0.00     0.002 A 
HETATM   14  C   LIG     1      15.121  34.957  21.223  1.00  0.00     0.000 A 
HETATM   15  C   LIG     1      14.801  33.605  21.361  1.00  0.00     0.002 A 
HETATM   16  C   LIG     1      14.949  32.736  20.276  1.00  0.00     0.029 A 
ENDBRANCH   2  11
TORSDOF 2
ENDMDL
MODEL 12
REMARK VINA RESULT:      -6.4      2.076      2.915
REMARK  2 active torsions:
REMARK  status: ('A' for Active; 'I' for Inactive)
REMARK    1  A    between atoms: C_3  and  C_4 
REMARK       I    between atoms: C_4  and  N_5 
REMARK    2  A    between atoms: N_5  and  C_6 
ROOT
HETATM    1  C   LIG     1      15.525  32.993  18.819  1.00  0.00     0.258 C 
HETATM    2  N   LIG     1      15.688  34.418  18.809  1.00  0.00    -0.323 N 
HETATM    3  O   LIG     1      16.003  32.314  19.768  1.00  0.00    -0.267 OA
HETATM    4  H   LIG     1      15.846  34.882  17.887  1.00  0.00     0.169 HD
ENDROOT
BRANCH   1   5
HETATM    5  C   LIG     1      14.858  32.293  17.702  1.00  0.00     0.063 A 
HETATM    6  C   LIG     1      15.165  32.319  16.347  1.00  0.00     0.064 A 
HETATM    7  C   LIG     1      16.281  33.057  15.680  1.00  0.00     0.077 C 
HETATM    8  O   LIG     1      14.281  31.609  15.683  1.00  0.00    -0.326 OA
HETATM    9  C   LIG     1      13.405  31.119  16.530  1.00  0.00     0.143 A 
HETATM   10  C   LIG     1      13.714  31.526  17.811  1.00  0.00     0.044 A 
ENDBRANCH   1   5
BRANCH   2  11
HETATM   11  C   LIG     1      15.818  35.214  19.999  1.00  0.00     0.035 A 
HETATM   12  C   LIG     1      14.709  35.489  20.823  1.00  0.00     0.029 A 
HETATM   13  C   LIG     1      14.859  36.285  21.964  1.00  0.00     0.002 A 
HETATM   14  C   LIG     1      16.107  36.821  22.286  1.00  0.00     0.000 A 
HETATM   15  C   LIG     1      17.208  36.568  21.465  1.00  0.00     0.002 A 
HETATM   16  C   LIG     1      17.064  35.775  20.323  1.00  0.00     0.029 A 
ENDBRANCH   2  11
TORSDOF 2
ENDMDL
MODEL 13
REMARK VINA RESULT:      -6.4      5.428      7.210
REMARK  2 active torsions:
REMARK  status: ('A' for Active; 'I' for Inactive)
REMARK    1  A    between atoms: C_3  and  C_4 
REMARK       I    between atoms: C_4  and  N_5 
REMARK    2  A    between atoms: N_5  and  C_6 
ROOT
HETATM    1  C   LIG     1      17.296  34.001  14.722  1.00  0.00     0.258 C 
HETATM    2  N   LIG     1      18.356  33.306  14.049  1.00  0.00    -0.323 N 
HETATM    3  O   LIG     1      17.290  35.262  14.746  1.00  0.00    -0.267 OA
HETATM    4  H   LIG     1      18.698  32.416  14.474  1.00  0.00     0.169 HD
ENDROOT
BRANCH   1   5
HETATM    5  C   LIG     1      16.239  33.264  15.444  1.00  0.00     0.063 A 
HETATM    6  C   LIG     1      15.558  32.114  15.063  1.00  0.00     0.064 A 
HETATM    7  C   LIG     1      15.753  31.312  13.817  1.00  0.00     0.077 C 
HETATM    8  O   LIG     1      14.647  31.825  15.964  1.00  0.00    -0.326 OA
HETATM    9  C   LIG     1      14.687  32.728  16.916  1.00  0.00     0.143 A 
HETATM   10  C   LIG     1      15.662  33.661  16.635  1.00  0.00     0.044 A 
ENDBRANCH   1   5
BRANCH   2  11
HETATM   11  C   LIG     1      19.082  33.849  12.933  1.00  0.00     0.035 A 
HETATM   12  C   LIG     1      18.420  34.283  11.768  1.00  0.00     0.029 A 
HETATM   13  C   LIG     1      19.152  34.786  10.688  1.00  0.00     0.002 A 
HETATM   14  C   LIG     1      20.545  34.849  10.753  1.00  0.00     0.000 A 
HETATM   15  C   LIG     1      21.211  34.404  11.898  1.00  0.00     0.002 A 
HETATM   16  C   LIG     1      20.485  33.899  12.980  1.00  0.00     0.029 A 
ENDBRANCH   2  11
TORSDOF 2
ENDMDL
MODEL 14
REMARK VINA RESULT:      -6.4      6.730      9.317
REMARK  2 active torsions:
REMARK  status: ('A' for Active; 'I' for Inactive)
REMARK    1  A    between atoms: C_3  and  C_4 
REMARK       I    between atoms: C_4  and  N_5 
REMARK    2  A    between atoms: N_5  and  C_6 
ROOT
HETATM    1  C   LIG     1      18.252  33.489  13.077  1.00  0.00     0.258 C 
HETATM    2  N   LIG     1      16.842  33.268  12.936  1.00  0.00    -0.323 N 
HETATM    3  O   LIG     1      18.823  33.223  14.170  1.00  0.00    -0.267 OA
HETATM    4  H   LIG     1      16.298  33.955  12.368  1.00  0.00     0.169 HD
ENDROOT
BRANCH   1   5
HETATM    5  C   LIG     1      19.045  34.084  11.981  1.00  0.00     0.063 A 
HETATM    6  C   LIG     1      20.425  34.203  11.866  1.00  0.00     0.064 A 
HETATM    7  C   LIG     1      21.464  33.726  12.829  1.00  0.00     0.077 C 
HETATM    8  O   LIG     1      20.718  34.857  10.764  1.00  0.00    -0.326 OA
HETATM    9  C   LIG     1      19.603  35.180  10.151  1.00  0.00     0.143 A 
HETATM   10  C   LIG     1      18.521  34.728  10.877  1.00  0.00     0.044 A 
ENDBRANCH   1   5
BRANCH   2  11
HETATM   11  C   LIG     1      16.115  32.267  13.668  1.00  0.00     0.035 A 
HETATM   12  C   LIG     1      15.710  31.063  13.059  1.00  0.00     0.029 A 
HETATM   13  C   LIG     1      14.984  30.115  13.787  1.00  0.00     0.002 A 
HETATM   14  C   LIG     1      14.648  30.361  15.120  1.00  0.00     0.000 A 
HETATM   15  C   LIG     1      15.029  31.560  15.726  1.00  0.00     0.002 A 
HETATM   16  C   LIG     1      15.754  32.512  15.003  1.00  0.00     0.029 A 
ENDBRANCH   2  11
TORSDOF 2
ENDMDL
MODEL 15
REMARK VINA RESULT:      -6.2      4.493      8.229
REMARK  2 active torsions:
REMARK  status: ('A' for Active; 'I' for Inactive)
REMARK    1  A    between atoms: C_3  and  C_4 
REMARK       I    between atoms: C_4  and  N_5 
REMARK    2  A    between atoms: N_5  and  C_6 
ROOT
HETATM    1  C   LIG     1      13.939  31.287  16.903  1.00  0.00     0.258 C 
HETATM    2  N   LIG     1      14.633  31.025  15.676  1.00  0.00    -0.323 N 
HETATM    3  O   LIG     1      12.767  30.851  17.067  1.00  0.00    -0.267 OA
HETATM    4  H   LIG     1      15.251  31.777  15.298  1.00  0.00     0.169 HD
ENDROOT
BRANCH   1   5
HETATM    5  C   LIG     1      14.550  32.115  17.964  1.00  0.00     0.063 A 
HETATM    6  C   LIG     1      15.098  33.389  17.870  1.00  0.00     0.064 A 
HETATM    7  C   LIG     1      15.182  34.258  16.656  1.00  0.00     0.077 C 
HETATM    8  O   LIG     1      15.595  33.739  19.035  1.00  0.00    -0.326 OA
HETATM    9  C   LIG     1      15.407  32.760  19.890  1.00  0.00     0.143 A 
HETATM   10  C   LIG     1      14.764  31.711  19.267  1.00  0.00     0.044 A 
ENDBRANCH   1   5
BRANCH   2  11
HETATM   11  C   LIG     1      14.393  29.868  14.856  1.00  0.00     0.035 A 
HETATM   12  C   LIG     1      13.088  29.400  14.612  1.00  0.00     0.029 A 
HETATM   13  C   LIG     1      12.883  28.259  13.829  1.00  0.00     0.002 A 
HETATM   14  C   LIG     1      13.974  27.571  13.294  1.00  0.00     0.000 A 
HETATM   15  C   LIG     1      15.273  28.017  13.546  1.00  0.00     0.002 A 
HETATM   16  C   LIG     1      15.483  29.156  14.329  1.00  0.00     0.029 A 
ENDBRANCH   2  11
TORSDOF 2
ENDMDL
MODEL 16
REMARK VINA RESULT:      -6.1      2.706      6.547
REMARK  2 active torsions:
REMARK  status: ('A' for Active; 'I' for Inactive)
REMARK    1  A    between atoms: C_3  and  C_4 
REMARK       I    between atoms: C_4  and  N_5 
REMARK    2  A    between atoms: N_5  and  C_6 
ROOT
HETATM    1  C   LIG     1      15.315  32.720  19.093  1.00  0.00     0.258 C 
HETATM    2  N   LIG     1      14.402  32.765  17.988  1.00  0.00    -0.323 N 
HETATM    3  O   LIG     1      16.067  31.719  19.245  1.00  0.00    -0.267 OA
HETATM    4  H   LIG     1      13.467  33.200  18.149  1.00  0.00     0.169 HD
ENDROOT
BRANCH   1   5
HETATM    5  C   LIG     1      15.349  33.802  20.099  1.00  0.00     0.063 A 
HETATM    6  C   LIG     1      14.694  33.879  21.322  1.00  0.00     0.064 A 
HETATM    7  C   LIG     1      13.798  32.855  21.942  1.00  0.00     0.077 C 
HETATM    8  O   LIG     1      14.943  35.042  21.880  1.00  0.00    -0.326 OA
HETATM    9  C   LIG     1      15.722  35.738  21.086  1.00  0.00     0.143 A 
HETATM   10  C   LIG     1      16.001  35.011  19.948  1.00  0.00     0.044 A 
ENDBRANCH   1   5
BRANCH   2  11
HETATM   11  C   LIG     1      14.633  32.097  16.736  1.00  0.00     0.035 A 
HETATM   12  C   LIG     1      15.641  32.526  15.850  1.00  0.00     0.029 A 
HETATM   13  C   LIG     1      15.831  31.873  14.628  1.00  0.00     0.002 A 
HETATM   14  C   LIG     1      15.013  30.797  14.274  1.00  0.00     0.000 A 
HETATM   15  C   LIG     1      13.999  30.377  15.138  1.00  0.00     0.002 A 
HETATM   16  C   LIG     1      13.805  31.027  16.360  1.00  0.00     0.029 A 
ENDBRANCH   2  11
TORSDOF 2
ENDMDL
MODEL 17
REMARK VINA RESULT:      -6.1      3.082      4.982
REMARK  2 active torsions:
REMARK  status: ('A' for Active; 'I' for Inactive)
REMARK    1  A    between atoms: C_3  and  C_4 
REMARK       I    between atoms: C_4  and  N_5 
REMARK    2  A    between atoms: N_5  and  C_6 
ROOT
HETATM    1  C   LIG     1      14.913  32.557  16.737  1.00  0.00     0.258 C 
HETATM    2  N   LIG     1      15.749  32.514  17.902  1.00  0.00    -0.323 N 
HETATM    3  O   LIG     1      13.683  32.810  16.857  1.00  0.00    -0.267 OA
HETATM    4  H   LIG     1      16.510  31.800  17.927  1.00  0.00     0.169 HD
ENDROOT
BRANCH   1   5
HETATM    5  C   LIG     1      15.454  32.248  15.398  1.00  0.00     0.063 A 
HETATM    6  C   LIG     1      15.159  31.178  14.562  1.00  0.00     0.064 A 
HETATM    7  C   LIG     1      14.185  30.071  14.809  1.00  0.00     0.077 C 
HETATM    8  O   LIG     1      15.911  31.241  13.487  1.00  0.00    -0.326 OA
HETATM    9  C   LIG     1      16.690  32.294  13.573  1.00  0.00     0.143 A 
HETATM   10  C   LIG     1      16.452  32.957  14.758  1.00  0.00     0.044 A 
ENDBRANCH   1   5
BRANCH   2  11
HETATM   11  C   LIG     1      15.491  33.272  19.097  1.00  0.00     0.035 A 
HETATM   12  C   LIG     1      14.936  32.670  20.242  1.00  0.00     0.029 A 
HETATM   13  C   LIG     1      14.674  33.435  21.384  1.00  0.00     0.002 A 
HETATM   14  C   LIG     1      14.951  34.803  21.389  1.00  0.00     0.000 A 
HETATM   15  C   LIG     1      15.484  35.413  20.251  1.00  0.00     0.002 A 
HETATM   16  C   LIG     1      15.747  34.653  19.108  1.00  0.00     0.029 A 
ENDBRANCH   2  11
TORSDOF 2
ENDMDL
MODEL 18
REMARK VINA RESULT:      -5.9      7.559     10.037
REMARK  2 active torsions:
REMARK  status: ('A' for Active; 'I' for Inactive)
REMARK    1  A    between atoms: C_3  and  C_4 
REMARK       I    between atoms: C_4  and  N_5 
REMARK    2  A    between atoms: N_5  and  C_6 
ROOT
HETATM    1  C   LIG     1      15.314  27.804  13.146  1.00  0.00     0.258 C 
HETATM    2  N   LIG     1      15.096  29.220  13.072  1.00  0.00    -0.323 N 
HETATM    3  O   LIG     1      15.753  27.292  14.212  1.00  0.00    -0.267 OA
HETATM    4  H   LIG     1      15.309  29.697  12.168  1.00  0.00     0.169 HD
ENDROOT
BRANCH   1   5
HETATM    5  C   LIG     1      15.092  26.935  11.972  1.00  0.00     0.063 A 
HETATM    6  C   LIG     1      13.938  26.261  11.589  1.00  0.00     0.064 A 
HETATM    7  C   LIG     1      12.608  26.272  12.272  1.00  0.00     0.077 C 
HETATM    8  O   LIG     1      14.185  25.544  10.516  1.00  0.00    -0.326 OA
HETATM    9  C   LIG     1      15.443  25.706  10.176  1.00  0.00     0.143 A 
HETATM   10  C   LIG     1      16.062  26.562  11.062  1.00  0.00     0.044 A 
ENDBRANCH   1   5
BRANCH   2  11
HETATM   11  C   LIG     1      14.772  30.037  14.210  1.00  0.00     0.035 A 
HETATM   12  C   LIG     1      13.565  29.866  14.916  1.00  0.00     0.029 A 
HETATM   13  C   LIG     1      13.264  30.689  16.006  1.00  0.00     0.002 A 
HETATM   14  C   LIG     1      14.153  31.693  16.394  1.00  0.00     0.000 A 
HETATM   15  C   LIG     1      15.343  31.882  15.688  1.00  0.00     0.002 A 
HETATM   16  C   LIG     1      15.649  31.063  14.597  1.00  0.00     0.029 A 
ENDBRANCH   2  11
TORSDOF 2
ENDMDL
MODEL 19
REMARK VINA RESULT:      -5.9      2.492      3.994
REMARK  2 active torsions:
REMARK  status: ('A' for Active; 'I' for Inactive)
REMARK    1  A    between atoms: C_3  and  C_4 
REMARK       I    between atoms: C_4  and  N_5 
REMARK    2  A    between atoms: N_5  and  C_6 
ROOT
HETATM    1  C   LIG     1      15.061  33.560  17.220  1.00  0.00     0.258 C 
HETATM    2  N   LIG     1      15.186  33.214  18.607  1.00  0.00    -0.323 N 
HETATM    3  O   LIG     1      14.806  34.750  16.891  1.00  0.00    -0.267 OA
HETATM    4  H   LIG     1      14.821  32.284  18.910  1.00  0.00     0.169 HD
ENDROOT
BRANCH   1   5
HETATM    5  C   LIG     1      15.164  32.531  16.165  1.00  0.00     0.063 A 
HETATM    6  C   LIG     1      14.315  31.462  15.901  1.00  0.00     0.064 A 
HETATM    7  C   LIG     1      13.053  31.102  16.617  1.00  0.00     0.077 C 
HETATM    8  O   LIG     1      14.805  30.747  14.914  1.00  0.00    -0.326 OA
HETATM    9  C   LIG     1      15.936  31.285  14.518  1.00  0.00     0.143 A 
HETATM   10  C   LIG     1      16.214  32.402  15.276  1.00  0.00     0.044 A 
ENDBRANCH   1   5
BRANCH   2  11
HETATM   11  C   LIG     1      15.621  34.136  19.621  1.00  0.00     0.035 A 
HETATM   12  C   LIG     1      16.465  35.220  19.315  1.00  0.00     0.029 A 
HETATM   13  C   LIG     1      16.892  36.089  20.324  1.00  0.00     0.002 A 
HETATM   14  C   LIG     1      16.492  35.878  21.645  1.00  0.00     0.000 A 
HETATM   15  C   LIG     1      15.670  34.794  21.962  1.00  0.00     0.002 A 
HETATM   16  C   LIG     1      15.242  33.923  20.957  1.00  0.00     0.029 A 
ENDBRANCH   2  11
TORSDOF 2
ENDMDL
MODEL 20
REMARK VINA RESULT:      -5.9      6.170      7.867
REMARK  2 active torsions:
REMARK  status: ('A' for Active; 'I' for Inactive)
REMARK    1  A    between atoms: C_3  and  C_4 
REMARK       I    between atoms: C_4  and  N_5 
REMARK    2  A    between atoms: N_5  and  C_6 
ROOT
HETATM    1  C   LIG     1      17.543  33.629  13.621  1.00  0.00     0.258 C 
HETATM    2  N   LIG     1      18.822  33.168  13.162  1.00  0.00    -0.323 N 
HETATM    3  O   LIG     1      17.314  34.867  13.698  1.00  0.00    -0.267 OA
HETATM    4  H   LIG     1      19.220  32.314  13.611  1.00  0.00     0.169 HD
ENDROOT
BRANCH   1   5
HETATM    5  C   LIG     1      16.504  32.678  14.067  1.00  0.00     0.063 A 
HETATM    6  C   LIG     1      15.815  32.640  15.273  1.00  0.00     0.064 A 
HETATM    7  C   LIG     1      15.940  33.585  16.424  1.00  0.00     0.077 C 
HETATM    8  O   LIG     1      15.024  31.591  15.292  1.00  0.00    -0.326 OA
HETATM    9  C   LIG     1      15.160  30.933  14.164  1.00  0.00     0.143 A 
HETATM   10  C   LIG     1      16.085  31.566  13.362  1.00  0.00     0.044 A 
ENDBRANCH   1   5
BRANCH   2  11
HETATM   11  C   LIG     1      19.655  33.906  12.252  1.00  0.00     0.035 A 
HETATM   12  C   LIG     1      20.954  34.313  12.612  1.00  0.00     0.029 A 
HETATM   13  C   LIG     1      21.736  35.050  11.716  1.00  0.00     0.002 A 
HETATM   14  C   LIG     1      21.228  35.397  10.463  1.00  0.00     0.000 A 
HETATM   15  C   LIG     1      19.933  35.014  10.104  1.00  0.00     0.002 A 
HETATM   16  C   LIG     1      19.148  34.279  10.996  1.00  0.00     0.029 A 
ENDBRANCH   2  11
TORSDOF 2
ENDMDL
