REMARK  2 active torsions:
REMARK  status: ('A' for Active; 'I' for Inactive)
REMARK    1  A    between atoms: C_3  and  C_4 
REMARK       I    between atoms: C_4  and  N_5 
REMARK    2  A    between atoms: N_5  and  C_6 
ROOT
HETATM    1  C   LIG     1      -0.656   0.968  -0.649  1.00  0.00     0.258 C 
HETATM    2  N   LIG     1       0.249   0.420   0.320  1.00  0.00    -0.323 N 
HETATM    3  O   LIG     1      -0.203   1.582  -1.653  1.00  0.00    -0.267 OA
HETATM    4  H   LIG     1      -0.035   0.457   1.324  1.00  0.00     0.169 HD
ENDROOT
BRANCH   1   5
HETATM    5  C   LIG     1      -2.119   0.881  -0.462  1.00  0.00     0.063 A 
HETATM    6  C   LIG     1      -2.852  -0.038   0.279  1.00  0.00     0.064 A 
HETATM    7  C   LIG     1      -2.327  -1.169   1.104  1.00  0.00     0.077 C 
HETATM    8  O   LIG     1      -4.135   0.199   0.126  1.00  0.00    -0.326 OA
HETATM    9  C   LIG     1      -4.286   1.223  -0.682  1.00  0.00     0.143 A 
HETATM   10  C   LIG     1      -3.052   1.684  -1.089  1.00  0.00     0.044 A 
ENDBRANCH   1   5
BRANCH   2  11
HETATM   11  C   LIG     1       1.584  -0.013   0.008  1.00  0.00     0.035 A 
HETATM   12  C   LIG     1       1.918  -0.498  -1.271  1.00  0.00     0.029 A 
HETATM   13  C   LIG     1       3.219  -0.934  -1.542  1.00  0.00     0.002 A 
HETATM   14  C   LIG     1       4.192  -0.902  -0.541  1.00  0.00     0.000 A 
HETATM   15  C   LIG     1       3.865  -0.440   0.736  1.00  0.00     0.002 A 
HETATM   16  C   LIG     1       2.566  -0.004   1.012  1.00  0.00     0.029 A 
ENDBRANCH   2  11
TORSDOF 2
