REMARK  2 active torsions:
REMARK  status: ('A' for Active; 'I' for Inactive)
REMARK    1  A    between atoms: C_3  and  C_4 
REMARK       I    between atoms: C_4  and  N_5 
REMARK    2  A    between atoms: N_5  and  C_6 
ROOT
HETATM    1  C   LIG     1       0.003   0.612   0.154  1.00  0.00     0.254 C 
HETATM    2  N   LIG     1       0.841   0.219  -0.942  1.00  0.00    -0.323 N 
HETATM    3  O   LIG     1       0.509   1.152   1.175  1.00  0.00    -0.268 OA
HETATM    4  H   LIG     1       0.420   0.221  -1.899  1.00  0.00     0.169 HD
ENDROOT
BRANCH   1   5
HETATM    5  C   LIG     1      -1.468   0.480   0.062  1.00  0.00     0.039 C 
HETATM    6  C   LIG     1      -2.070  -0.676  -0.312  1.00  0.00     0.054 C 
HETATM    7  C   LIG     1      -1.300  -1.938  -0.575  1.00  0.00     0.077 C 
HETATM    8  O   LIG     1      -3.469  -0.747  -0.416  1.00  0.00    -0.355 OA
HETATM    9  C   LIG     1      -4.328   0.379  -0.243  1.00  0.00     0.175 C 
HETATM   10  C   LIG     1      -3.730   1.348   0.772  1.00  0.00     0.031 C 
HETATM   11  C   LIG     1      -2.302   1.708   0.355  1.00  0.00     0.049 C 
ENDBRANCH   1   5
BRANCH   2  12
HETATM   12  C   LIG     1       2.245  -0.064  -0.817  1.00  0.00     0.035 A 
HETATM   13  C   LIG     1       2.785  -0.592   0.371  1.00  0.00     0.029 A 
HETATM   14  C   LIG     1       4.150  -0.881   0.458  1.00  0.00     0.002 A 
HETATM   15  C   LIG     1       4.985  -0.659  -0.640  1.00  0.00     0.000 A 
HETATM   16  C   LIG     1       4.455  -0.155  -1.830  1.00  0.00     0.002 A 
HETATM   17  C   LIG     1       3.090   0.135  -1.921  1.00  0.00     0.029 A 
ENDBRANCH   2  12
TORSDOF 2
