MODEL 1
REMARK VINA RESULT:      -7.5      0.000      0.000
REMARK  2 active torsions:
REMARK  status: ('A' for Active; 'I' for Inactive)
REMARK    1  A    between atoms: C_3  and  C_4 
REMARK       I    between atoms: C_4  and  N_5 
REMARK    2  A    between atoms: N_5  and  C_6 
ROOT
HETATM    1  C   LIG     1      16.814  35.568  21.814  1.00  0.00     0.254 C 
HETATM    2  N   LIG     1      15.603  34.902  21.432  1.00  0.00    -0.323 N 
HETATM    3  O   LIG     1      17.653  35.907  20.936  1.00  0.00    -0.268 OA
HETATM    4  H   LIG     1      14.761  35.042  22.035  1.00  0.00     0.169 HD
ENDROOT
BRANCH   1   5
HETATM    5  C   LIG     1      17.049  35.953  23.223  1.00  0.00     0.039 C 
HETATM    6  C   LIG     1      16.876  37.223  23.666  1.00  0.00     0.054 C 
HETATM    7  C   LIG     1      16.347  38.319  22.787  1.00  0.00     0.077 C 
HETATM    8  O   LIG     1      17.141  37.550  25.006  1.00  0.00    -0.355 OA
HETATM    9  C   LIG     1      17.691  36.629  25.946  1.00  0.00     0.175 C 
HETATM   10  C   LIG     1      17.226  35.211  25.630  1.00  0.00     0.031 C 
HETATM   11  C   LIG     1      17.545  34.882  24.169  1.00  0.00     0.049 C 
ENDBRANCH   1   5
BRANCH   2  12
HETATM   12  C   LIG     1      15.450  34.151  20.215  1.00  0.00     0.035 A 
HETATM   13  C   LIG     1      15.258  32.756  20.232  1.00  0.00     0.029 A 
HETATM   14  C   LIG     1      15.088  32.053  19.035  1.00  0.00     0.002 A 
HETATM   15  C   LIG     1      15.094  32.734  17.815  1.00  0.00     0.000 A 
HETATM   16  C   LIG     1      15.263  34.120  17.790  1.00  0.00     0.002 A 
HETATM   17  C   LIG     1      15.433  34.827  18.984  1.00  0.00     0.029 A 
ENDBRANCH   2  12
TORSDOF 2
ENDMDL
MODEL 2
REMARK VINA RESULT:      -7.1      1.096      2.038
REMARK  2 active torsions:
REMARK  status: ('A' for Active; 'I' for Inactive)
REMARK    1  A    between atoms: C_3  and  C_4 
REMARK       I    between atoms: C_4  and  N_5 
REMARK    2  A    between atoms: N_5  and  C_6 
ROOT
HETATM    1  C   LIG     1      16.960  36.097  20.890  1.00  0.00     0.254 C 
HETATM    2  N   LIG     1      15.684  35.507  20.605  1.00  0.00    -0.323 N 
HETATM    3  O   LIG     1      17.903  35.995  20.059  1.00  0.00    -0.268 OA
HETATM    4  H   LIG     1      14.837  35.959  21.020  1.00  0.00     0.169 HD
ENDROOT
BRANCH   1   5
HETATM    5  C   LIG     1      17.157  36.913  22.109  1.00  0.00     0.039 C 
HETATM    6  C   LIG     1      17.138  36.373  23.353  1.00  0.00     0.054 C 
HETATM    7  C   LIG     1      17.007  34.896  23.589  1.00  0.00     0.077 C 
HETATM    8  O   LIG     1      17.299  37.190  24.484  1.00  0.00    -0.355 OA
HETATM    9  C   LIG     1      17.387  38.613  24.420  1.00  0.00     0.175 C 
HETATM   10  C   LIG     1      18.062  39.041  23.121  1.00  0.00     0.031 C 
HETATM   11  C   LIG     1      17.336  38.405  21.933  1.00  0.00     0.049 C 
ENDBRANCH   1   5
BRANCH   2  12
HETATM   12  C   LIG     1      15.493  34.408  19.698  1.00  0.00     0.035 A 
HETATM   13  C   LIG     1      15.449  33.077  20.156  1.00  0.00     0.029 A 
HETATM   14  C   LIG     1      15.238  32.028  19.255  1.00  0.00     0.002 A 
HETATM   15  C   LIG     1      15.056  32.297  17.896  1.00  0.00     0.000 A 
HETATM   16  C   LIG     1      15.078  33.615  17.436  1.00  0.00     0.002 A 
HETATM   17  C   LIG     1      15.288  34.667  18.333  1.00  0.00     0.029 A 
ENDBRANCH   2  12
TORSDOF 2
ENDMDL
MODEL 3
REMARK VINA RESULT:      -6.9      3.953      8.153
REMARK  2 active torsions:
REMARK  status: ('A' for Active; 'I' for Inactive)
REMARK    1  A    between atoms: C_3  and  C_4 
REMARK       I    between atoms: C_4  and  N_5 
REMARK    2  A    between atoms: N_5  and  C_6 
ROOT
HETATM    1  C   LIG     1      15.082  32.965  16.735  1.00  0.00     0.254 C 
HETATM    2  N   LIG     1      15.735  32.709  17.986  1.00  0.00    -0.323 N 
HETATM    3  O   LIG     1      14.578  34.098  16.504  1.00  0.00    -0.268 OA
HETATM    4  H   LIG     1      16.507  32.004  17.994  1.00  0.00     0.169 HD
ENDROOT
BRANCH   1   5
HETATM    5  C   LIG     1      15.075  31.942  15.665  1.00  0.00     0.039 C 
HETATM    6  C   LIG     1      14.159  30.943  15.623  1.00  0.00     0.054 C 
HETATM    7  C   LIG     1      13.026  30.846  16.603  1.00  0.00     0.077 C 
HETATM    8  O   LIG     1      14.210  29.975  14.606  1.00  0.00    -0.355 OA
HETATM    9  C   LIG     1      15.253  29.910  13.635  1.00  0.00     0.175 C 
HETATM   10  C   LIG     1      15.771  31.311  13.322  1.00  0.00     0.031 C 
HETATM   11  C   LIG     1      16.170  32.010  14.623  1.00  0.00     0.049 C 
ENDBRANCH   1   5
BRANCH   2  12
HETATM   12  C   LIG     1      15.469  33.441  19.194  1.00  0.00     0.035 A 
HETATM   13  C   LIG     1      14.897  32.818  20.320  1.00  0.00     0.029 A 
HETATM   14  C   LIG     1      14.671  33.548  21.491  1.00  0.00     0.002 A 
HETATM   15  C   LIG     1      15.024  34.898  21.555  1.00  0.00     0.000 A 
HETATM   16  C   LIG     1      15.612  35.519  20.450  1.00  0.00     0.002 A 
HETATM   17  C   LIG     1      15.839  34.793  19.277  1.00  0.00     0.029 A 
ENDBRANCH   2  12
TORSDOF 2
ENDMDL
MODEL 4
REMARK VINA RESULT:      -6.7      3.900      7.986
REMARK  2 active torsions:
REMARK  status: ('A' for Active; 'I' for Inactive)
REMARK    1  A    between atoms: C_3  and  C_4 
REMARK       I    between atoms: C_4  and  N_5 
REMARK    2  A    between atoms: N_5  and  C_6 
ROOT
HETATM    1  C   LIG     1      15.322  33.143  16.735  1.00  0.00     0.254 C 
HETATM    2  N   LIG     1      15.798  32.767  18.036  1.00  0.00    -0.323 N 
HETATM    3  O   LIG     1      14.970  34.333  16.510  1.00  0.00    -0.268 OA
HETATM    4  H   LIG     1      16.486  31.982  18.092  1.00  0.00     0.169 HD
ENDROOT
BRANCH   1   5
HETATM    5  C   LIG     1      15.331  32.170  15.621  1.00  0.00     0.039 C 
HETATM    6  C   LIG     1      16.287  32.179  14.658  1.00  0.00     0.054 C 
HETATM    7  C   LIG     1      17.459  33.116  14.695  1.00  0.00     0.077 C 
HETATM    8  O   LIG     1      16.238  31.256  13.601  1.00  0.00    -0.355 OA
HETATM    9  C   LIG     1      15.163  30.339  13.407  1.00  0.00     0.175 C 
HETATM   10  C   LIG     1      14.575  29.924  14.752  1.00  0.00     0.031 C 
HETATM   11  C   LIG     1      14.196  31.173  15.551  1.00  0.00     0.049 C 
ENDBRANCH   1   5
BRANCH   2  12
HETATM   12  C   LIG     1      15.474  33.476  19.244  1.00  0.00     0.035 A 
HETATM   13  C   LIG     1      14.871  32.826  20.338  1.00  0.00     0.029 A 
HETATM   14  C   LIG     1      14.589  33.533  21.510  1.00  0.00     0.002 A 
HETATM   15  C   LIG     1      14.915  34.888  21.608  1.00  0.00     0.000 A 
HETATM   16  C   LIG     1      15.532  35.537  20.535  1.00  0.00     0.002 A 
HETATM   17  C   LIG     1      15.816  34.833  19.361  1.00  0.00     0.029 A 
ENDBRANCH   2  12
TORSDOF 2
ENDMDL
MODEL 5
REMARK VINA RESULT:      -6.5      3.529      5.833
REMARK  2 active torsions:
REMARK  status: ('A' for Active; 'I' for Inactive)
REMARK    1  A    between atoms: C_3  and  C_4 
REMARK       I    between atoms: C_4  and  N_5 
REMARK    2  A    between atoms: N_5  and  C_6 
ROOT
HETATM    1  C   LIG     1      15.268  32.703  17.473  1.00  0.00     0.254 C 
HETATM    2  N   LIG     1      14.073  32.136  16.917  1.00  0.00    -0.323 N 
HETATM    3  O   LIG     1      16.331  32.728  16.795  1.00  0.00    -0.268 OA
HETATM    4  H   LIG     1      13.157  32.516  17.248  1.00  0.00     0.169 HD
ENDROOT
BRANCH   1   5
HETATM    5  C   LIG     1      15.245  33.351  18.803  1.00  0.00     0.039 C 
HETATM    6  C   LIG     1      15.007  32.657  19.943  1.00  0.00     0.054 C 
HETATM    7  C   LIG     1      14.836  31.165  19.959  1.00  0.00     0.077 C 
HETATM    8  O   LIG     1      14.964  33.319  21.181  1.00  0.00    -0.355 OA
HETATM    9  C   LIG     1      15.061  34.735  21.319  1.00  0.00     0.175 C 
HETATM   10  C   LIG     1      15.956  35.311  20.226  1.00  0.00     0.031 C 
HETATM   11  C   LIG     1      15.452  34.849  18.857  1.00  0.00     0.049 C 
ENDBRANCH   1   5
BRANCH   2  12
HETATM   12  C   LIG     1      14.064  31.166  15.856  1.00  0.00     0.035 A 
HETATM   13  C   LIG     1      15.192  30.960  15.038  1.00  0.00     0.029 A 
HETATM   14  C   LIG     1      15.165  29.993  14.030  1.00  0.00     0.002 A 
HETATM   15  C   LIG     1      14.021  29.214  13.835  1.00  0.00     0.000 A 
HETATM   16  C   LIG     1      12.905  29.396  14.654  1.00  0.00     0.002 A 
HETATM   17  C   LIG     1      12.928  30.363  15.665  1.00  0.00     0.029 A 
ENDBRANCH   2  12
TORSDOF 2
ENDMDL
MODEL 6
REMARK VINA RESULT:      -6.5      6.682      9.158
REMARK  2 active torsions:
REMARK  status: ('A' for Active; 'I' for Inactive)
REMARK    1  A    between atoms: C_3  and  C_4 
REMARK       I    between atoms: C_4  and  N_5 
REMARK    2  A    between atoms: N_5  and  C_6 
ROOT
HETATM    1  C   LIG     1      17.193  32.767  14.621  1.00  0.00     0.254 C 
HETATM    2  N   LIG     1      17.151  33.611  13.462  1.00  0.00    -0.323 N 
HETATM    3  O   LIG     1      18.262  32.648  15.279  1.00  0.00    -0.268 OA
HETATM    4  H   LIG     1      16.238  34.059  13.221  1.00  0.00     0.169 HD
ENDROOT
BRANCH   1   5
HETATM    5  C   LIG     1      15.965  32.106  15.116  1.00  0.00     0.039 C 
HETATM    6  C   LIG     1      15.181  32.657  16.075  1.00  0.00     0.054 C 
HETATM    7  C   LIG     1      15.444  34.020  16.647  1.00  0.00     0.077 C 
HETATM    8  O   LIG     1      14.040  31.979  16.536  1.00  0.00    -0.355 OA
HETATM    9  C   LIG     1      13.689  30.660  16.122  1.00  0.00     0.175 C 
HETATM   10  C   LIG     1      14.133  30.423  14.682  1.00  0.00     0.031 C 
HETATM   11  C   LIG     1      15.623  30.746  14.547  1.00  0.00     0.049 C 
ENDBRANCH   1   5
BRANCH   2  12
HETATM   12  C   LIG     1      18.308  33.967  12.687  1.00  0.00     0.035 A 
HETATM   13  C   LIG     1      19.610  33.650  13.121  1.00  0.00     0.029 A 
HETATM   14  C   LIG     1      20.717  33.985  12.336  1.00  0.00     0.002 A 
HETATM   15  C   LIG     1      20.537  34.627  11.108  1.00  0.00     0.000 A 
HETATM   16  C   LIG     1      19.248  34.927  10.659  1.00  0.00     0.002 A 
HETATM   17  C   LIG     1      18.139  34.593  11.441  1.00  0.00     0.029 A 
ENDBRANCH   2  12
TORSDOF 2
ENDMDL
MODEL 7
REMARK VINA RESULT:      -6.4      6.976      9.661
REMARK  2 active torsions:
REMARK  status: ('A' for Active; 'I' for Inactive)
REMARK    1  A    between atoms: C_3  and  C_4 
REMARK       I    between atoms: C_4  and  N_5 
REMARK    2  A    between atoms: N_5  and  C_6 
ROOT
HETATM    1  C   LIG     1      17.834  33.919  13.799  1.00  0.00     0.254 C 
HETATM    2  N   LIG     1      17.519  32.580  14.205  1.00  0.00    -0.323 N 
HETATM    3  O   LIG     1      17.320  34.900  14.402  1.00  0.00    -0.268 OA
HETATM    4  H   LIG     1      18.244  31.843  14.050  1.00  0.00     0.169 HD
ENDROOT
BRANCH   1   5
HETATM    5  C   LIG     1      18.836  34.169  12.739  1.00  0.00     0.039 C 
HETATM    6  C   LIG     1      18.517  34.772  11.567  1.00  0.00     0.054 C 
HETATM    7  C   LIG     1      17.145  35.315  11.287  1.00  0.00     0.077 C 
HETATM    8  O   LIG     1      19.494  34.960  10.576  1.00  0.00    -0.355 OA
HETATM    9  C   LIG     1      20.825  34.457  10.679  1.00  0.00     0.175 C 
HETATM   10  C   LIG     1      21.273  34.444  12.138  1.00  0.00     0.031 C 
HETATM   11  C   LIG     1      20.248  33.680  12.980  1.00  0.00     0.049 C 
ENDBRANCH   1   5
BRANCH   2  12
HETATM   12  C   LIG     1      16.320  32.217  14.910  1.00  0.00     0.035 A 
HETATM   13  C   LIG     1      15.514  31.144  14.485  1.00  0.00     0.029 A 
HETATM   14  C   LIG     1      14.366  30.796  15.203  1.00  0.00     0.002 A 
HETATM   15  C   LIG     1      14.018  31.505  16.356  1.00  0.00     0.000 A 
HETATM   16  C   LIG     1      14.823  32.557  16.798  1.00  0.00     0.002 A 
HETATM   17  C   LIG     1      15.972  32.908  16.082  1.00  0.00     0.029 A 
ENDBRANCH   2  12
TORSDOF 2
ENDMDL
MODEL 8
REMARK VINA RESULT:      -6.3      2.890      6.854
REMARK  2 active torsions:
REMARK  status: ('A' for Active; 'I' for Inactive)
REMARK    1  A    between atoms: C_3  and  C_4 
REMARK       I    between atoms: C_4  and  N_5 
REMARK    2  A    between atoms: N_5  and  C_6 
ROOT
HETATM    1  C   LIG     1      15.427  34.049  18.676  1.00  0.00     0.254 C 
HETATM    2  N   LIG     1      15.674  34.074  20.089  1.00  0.00    -0.323 N 
HETATM    3  O   LIG     1      15.901  34.953  17.936  1.00  0.00    -0.268 OA
HETATM    4  H   LIG     1      15.698  33.158  20.593  1.00  0.00     0.169 HD
ENDROOT
BRANCH   1   5
HETATM    5  C   LIG     1      14.701  32.917  18.058  1.00  0.00     0.039 C 
HETATM    6  C   LIG     1      14.582  31.712  18.669  1.00  0.00     0.054 C 
HETATM    7  C   LIG     1      15.098  31.457  20.056  1.00  0.00     0.077 C 
HETATM    8  O   LIG     1      13.910  30.656  18.032  1.00  0.00    -0.355 OA
HETATM    9  C   LIG     1      13.409  30.735  16.698  1.00  0.00     0.175 C 
HETATM   10  C   LIG     1      12.971  32.161  16.382  1.00  0.00     0.031 C 
HETATM   11  C   LIG     1      14.122  33.126  16.676  1.00  0.00     0.049 C 
ENDBRANCH   1   5
BRANCH   2  12
HETATM   12  C   LIG     1      16.000  35.264  20.826  1.00  0.00     0.035 A 
HETATM   13  C   LIG     1      17.293  35.819  20.791  1.00  0.00     0.029 A 
HETATM   14  C   LIG     1      17.578  36.991  21.498  1.00  0.00     0.002 A 
HETATM   15  C   LIG     1      16.574  37.628  22.233  1.00  0.00     0.000 A 
HETATM   16  C   LIG     1      15.282  37.097  22.256  1.00  0.00     0.002 A 
HETATM   17  C   LIG     1      14.994  35.925  21.551  1.00  0.00     0.029 A 
ENDBRANCH   2  12
TORSDOF 2
ENDMDL
MODEL 9
REMARK VINA RESULT:      -6.2      8.568     12.914
REMARK  2 active torsions:
REMARK  status: ('A' for Active; 'I' for Inactive)
REMARK    1  A    between atoms: C_3  and  C_4 
REMARK       I    between atoms: C_4  and  N_5 
REMARK    2  A    between atoms: N_5  and  C_6 
ROOT
HETATM    1  C   LIG     1      14.249  27.585  13.320  1.00  0.00     0.254 C 
HETATM    2  N   LIG     1      13.542  28.774  13.701  1.00  0.00    -0.323 N 
HETATM    3  O   LIG     1      15.285  27.237  13.948  1.00  0.00    -0.268 OA
HETATM    4  H   LIG     1      12.512  28.804  13.525  1.00  0.00     0.169 HD
ENDROOT
BRANCH   1   5
HETATM    5  C   LIG     1      13.719  26.703  12.256  1.00  0.00     0.039 C 
HETATM    6  C   LIG     1      14.480  26.288  11.214  1.00  0.00     0.054 C 
HETATM    7  C   LIG     1      15.942  26.614  11.102  1.00  0.00     0.077 C 
HETATM    8  O   LIG     1      13.927  25.477  10.209  1.00  0.00    -0.355 OA
HETATM    9  C   LIG     1      12.546  25.125  10.156  1.00  0.00     0.175 C 
HETATM   10  C   LIG     1      11.974  25.015  11.565  1.00  0.00     0.031 C 
HETATM   11  C   LIG     1      12.261  26.306  12.335  1.00  0.00     0.049 C 
ENDBRANCH   1   5
BRANCH   2  12
HETATM   12  C   LIG     1      14.143  29.871  14.410  1.00  0.00     0.035 A 
HETATM   13  C   LIG     1      15.282  30.531  13.913  1.00  0.00     0.029 A 
HETATM   14  C   LIG     1      15.832  31.611  14.610  1.00  0.00     0.002 A 
HETATM   15  C   LIG     1      15.245  32.051  15.799  1.00  0.00     0.000 A 
HETATM   16  C   LIG     1      14.101  31.416  16.290  1.00  0.00     0.002 A 
HETATM   17  C   LIG     1      13.548  30.335  15.595  1.00  0.00     0.029 A 
ENDBRANCH   2  12
TORSDOF 2
ENDMDL
MODEL 10
REMARK VINA RESULT:      -6.0      1.835      6.128
REMARK  2 active torsions:
REMARK  status: ('A' for Active; 'I' for Inactive)
REMARK    1  A    between atoms: C_3  and  C_4 
REMARK       I    between atoms: C_4  and  N_5 
REMARK    2  A    between atoms: N_5  and  C_6 
ROOT
HETATM    1  C   LIG     1      15.407  34.967  20.992  1.00  0.00     0.254 C 
HETATM    2  N   LIG     1      16.738  35.254  21.445  1.00  0.00    -0.323 N 
HETATM    3  O   LIG     1      14.475  35.789  21.205  1.00  0.00    -0.268 OA
HETATM    4  H   LIG     1      17.533  34.850  20.899  1.00  0.00     0.169 HD
ENDROOT
BRANCH   1   5
HETATM    5  C   LIG     1      15.130  33.755  20.189  1.00  0.00     0.039 C 
HETATM    6  C   LIG     1      15.274  33.731  18.841  1.00  0.00     0.054 C 
HETATM    7  C   LIG     1      15.811  34.899  18.066  1.00  0.00     0.077 C 
HETATM    8  O   LIG     1      14.969  32.568  18.115  1.00  0.00    -0.355 OA
HETATM    9  C   LIG     1      14.407  31.397  18.706  1.00  0.00     0.175 C 
HETATM   10  C   LIG     1      14.900  31.241  20.141  1.00  0.00     0.031 C 
HETATM   11  C   LIG     1      14.624  32.530  20.919  1.00  0.00     0.049 C 
ENDBRANCH   1   5
BRANCH   2  12
HETATM   12  C   LIG     1      17.041  36.150  22.527  1.00  0.00     0.035 A 
HETATM   13  C   LIG     1      17.071  35.706  23.863  1.00  0.00     0.029 A 
HETATM   14  C   LIG     1      17.393  36.593  24.894  1.00  0.00     0.002 A 
HETATM   15  C   LIG     1      17.700  37.924  24.604  1.00  0.00     0.000 A 
HETATM   16  C   LIG     1      17.693  38.370  23.280  1.00  0.00     0.002 A 
HETATM   17  C   LIG     1      17.372  37.485  22.245  1.00  0.00     0.029 A 
ENDBRANCH   2  12
TORSDOF 2
ENDMDL
MODEL 11
REMARK VINA RESULT:      -6.0      8.187     12.552
REMARK  2 active torsions:
REMARK  status: ('A' for Active; 'I' for Inactive)
REMARK    1  A    between atoms: C_3  and  C_4 
REMARK       I    between atoms: C_4  and  N_5 
REMARK    2  A    between atoms: N_5  and  C_6 
ROOT
HETATM    1  C   LIG     1      14.948  27.860  13.491  1.00  0.00     0.254 C 
HETATM    2  N   LIG     1      14.076  28.970  13.741  1.00  0.00    -0.323 N 
HETATM    3  O   LIG     1      15.865  27.578  14.310  1.00  0.00    -0.268 OA
HETATM    4  H   LIG     1      13.104  28.919  13.359  1.00  0.00     0.169 HD
ENDROOT
BRANCH   1   5
HETATM    5  C   LIG     1      14.725  26.975  12.326  1.00  0.00     0.039 C 
HETATM    6  C   LIG     1      13.524  26.397  12.074  1.00  0.00     0.054 C 
HETATM    7  C   LIG     1      12.304  26.680  12.902  1.00  0.00     0.077 C 
HETATM    8  O   LIG     1      13.366  25.539  10.973  1.00  0.00    -0.355 OA
HETATM    9  C   LIG     1      14.442  25.140  10.126  1.00  0.00     0.175 C 
HETATM   10  C   LIG     1      15.475  26.258  10.024  1.00  0.00     0.031 C 
HETATM   11  C   LIG     1      15.908  26.684  11.429  1.00  0.00     0.049 C 
ENDBRANCH   1   5
BRANCH   2  12
HETATM   12  C   LIG     1      14.420  30.089  14.576  1.00  0.00     0.035 A 
HETATM   13  C   LIG     1      15.532  30.904  14.291  1.00  0.00     0.029 A 
HETATM   14  C   LIG     1      15.831  32.000  15.105  1.00  0.00     0.002 A 
HETATM   15  C   LIG     1      15.019  32.300  16.202  1.00  0.00     0.000 A 
HETATM   16  C   LIG     1      13.902  31.510  16.481  1.00  0.00     0.002 A 
HETATM   17  C   LIG     1      13.599  30.413  15.668  1.00  0.00     0.029 A 
ENDBRANCH   2  12
TORSDOF 2
ENDMDL
MODEL 12
REMARK VINA RESULT:      -5.8      2.448      4.290
REMARK  2 active torsions:
REMARK  status: ('A' for Active; 'I' for Inactive)
REMARK    1  A    between atoms: C_3  and  C_4 
REMARK       I    between atoms: C_4  and  N_5 
REMARK    2  A    between atoms: N_5  and  C_6 
ROOT
HETATM    1  C   LIG     1      15.374  34.060  18.430  1.00  0.00     0.254 C 
HETATM    2  N   LIG     1      14.729  32.787  18.282  1.00  0.00    -0.323 N 
HETATM    3  O   LIG     1      15.546  34.802  17.425  1.00  0.00    -0.268 OA
HETATM    4  H   LIG     1      14.194  32.417  19.100  1.00  0.00     0.169 HD
ENDROOT
BRANCH   1   5
HETATM    5  C   LIG     1      15.756  34.559  19.769  1.00  0.00     0.039 C 
HETATM    6  C   LIG     1      15.336  33.963  20.912  1.00  0.00     0.054 C 
HETATM    7  C   LIG     1      14.526  32.698  20.911  1.00  0.00     0.077 C 
HETATM    8  O   LIG     1      15.698  34.490  22.163  1.00  0.00    -0.355 OA
HETATM    9  C   LIG     1      16.423  35.708  22.322  1.00  0.00     0.175 C 
HETATM   10  C   LIG     1      17.380  35.910  21.152  1.00  0.00     0.031 C 
HETATM   11  C   LIG     1      16.607  35.809  19.835  1.00  0.00     0.049 C 
ENDBRANCH   1   5
BRANCH   2  12
HETATM   12  C   LIG     1      14.679  32.051  17.048  1.00  0.00     0.035 A 
HETATM   13  C   LIG     1      13.596  31.207  16.739  1.00  0.00     0.029 A 
HETATM   14  C   LIG     1      13.561  30.521  15.521  1.00  0.00     0.002 A 
HETATM   15  C   LIG     1      14.597  30.680  14.597  1.00  0.00     0.000 A 
HETATM   16  C   LIG     1      15.666  31.532  14.885  1.00  0.00     0.002 A 
HETATM   17  C   LIG     1      15.704  32.220  16.102  1.00  0.00     0.029 A 
ENDBRANCH   2  12
TORSDOF 2
ENDMDL
MODEL 13
REMARK VINA RESULT:      -5.5      7.715     10.963
REMARK  2 active torsions:
REMARK  status: ('A' for Active; 'I' for Inactive)
REMARK    1  A    between atoms: C_3  and  C_4 
REMARK       I    between atoms: C_4  and  N_5 
REMARK    2  A    between atoms: N_5  and  C_6 
ROOT
HETATM    1  C   LIG     1      12.789  29.015  14.101  1.00  0.00     0.254 C 
HETATM    2  N   LIG     1      13.402  27.731  13.921  1.00  0.00    -0.323 N 
HETATM    3  O   LIG     1      11.649  29.246  13.612  1.00  0.00    -0.268 OA
HETATM    4  H   LIG     1      14.060  27.400  14.663  1.00  0.00     0.169 HD
ENDROOT
BRANCH   1   5
HETATM    5  C   LIG     1      13.437  30.048  14.939  1.00  0.00     0.039 C 
HETATM    6  C   LIG     1      14.639  30.590  14.621  1.00  0.00     0.054 C 
HETATM    7  C   LIG     1      15.365  30.253  13.350  1.00  0.00     0.077 C 
HETATM    8  O   LIG     1      15.232  31.546  15.462  1.00  0.00    -0.355 OA
HETATM    9  C   LIG     1      14.686  31.930  16.723  1.00  0.00     0.175 C 
HETATM   10  C   LIG     1      13.163  31.852  16.683  1.00  0.00     0.031 C 
HETATM   11  C   LIG     1      12.734  30.460  16.214  1.00  0.00     0.049 C 
ENDBRANCH   1   5
BRANCH   2  12
HETATM   12  C   LIG     1      13.078  26.830  12.849  1.00  0.00     0.035 A 
HETATM   13  C   LIG     1      11.785  26.291  12.707  1.00  0.00     0.029 A 
HETATM   14  C   LIG     1      11.489  25.436  11.641  1.00  0.00     0.002 A 
HETATM   15  C   LIG     1      12.474  25.122  10.701  1.00  0.00     0.000 A 
HETATM   16  C   LIG     1      13.754  25.669  10.821  1.00  0.00     0.002 A 
HETATM   17  C   LIG     1      14.053  26.524  11.886  1.00  0.00     0.029 A 
ENDBRANCH   2  12
TORSDOF 2
ENDMDL
MODEL 14
REMARK VINA RESULT:      -5.4      6.968     10.154
REMARK  2 active torsions:
REMARK  status: ('A' for Active; 'I' for Inactive)
REMARK    1  A    between atoms: C_3  and  C_4 
REMARK       I    between atoms: C_4  and  N_5 
REMARK    2  A    between atoms: N_5  and  C_6 
ROOT
HETATM    1  C   LIG     1      14.107  29.483  14.343  1.00  0.00     0.254 C 
HETATM    2  N   LIG     1      15.144  28.558  13.986  1.00  0.00    -0.323 N 
HETATM    3  O   LIG     1      12.909  29.239  14.035  1.00  0.00    -0.268 OA
HETATM    4  H   LIG     1      15.987  28.513  14.603  1.00  0.00     0.169 HD
ENDROOT
BRANCH   1   5
HETATM    5  C   LIG     1      14.414  30.679  15.158  1.00  0.00     0.039 C 
HETATM    6  C   LIG     1      15.268  31.644  14.736  1.00  0.00     0.054 C 
HETATM    7  C   LIG     1      15.901  31.622  13.375  1.00  0.00     0.077 C 
HETATM    8  O   LIG     1      15.553  32.748  15.557  1.00  0.00    -0.355 OA
HETATM    9  C   LIG     1      15.065  32.883  16.891  1.00  0.00     0.175 C 
HETATM   10  C   LIG     1      13.695  32.225  17.020  1.00  0.00     0.031 C 
HETATM   11  C   LIG     1      13.774  30.779  16.525  1.00  0.00     0.049 C 
ENDBRANCH   1   5
BRANCH   2  12
HETATM   12  C   LIG     1      15.042  27.616  12.904  1.00  0.00     0.035 A 
HETATM   13  C   LIG     1      13.850  26.909  12.656  1.00  0.00     0.029 A 
HETATM   14  C   LIG     1      13.770  26.017  11.583  1.00  0.00     0.002 A 
HETATM   15  C   LIG     1      14.869  25.832  10.741  1.00  0.00     0.000 A 
HETATM   16  C   LIG     1      16.049  26.545  10.966  1.00  0.00     0.002 A 
HETATM   17  C   LIG     1      16.133  27.439  12.038  1.00  0.00     0.029 A 
ENDBRANCH   2  12
TORSDOF 2
ENDMDL
MODEL 15
REMARK VINA RESULT:      -5.2     16.546     18.759
REMARK  2 active torsions:
REMARK  status: ('A' for Active; 'I' for Inactive)
REMARK    1  A    between atoms: C_3  and  C_4 
REMARK       I    between atoms: C_4  and  N_5 
REMARK    2  A    between atoms: N_5  and  C_6 
ROOT
HETATM    1  C   LIG     1      27.454  28.697  34.268  1.00  0.00     0.254 C 
HETATM    2  N   LIG     1      26.901  29.993  34.535  1.00  0.00    -0.323 N 
HETATM    3  O   LIG     1      27.779  27.939  35.222  1.00  0.00    -0.268 OA
HETATM    4  H   LIG     1      26.239  30.392  33.831  1.00  0.00     0.169 HD
ENDROOT
BRANCH   1   5
HETATM    5  C   LIG     1      27.561  28.195  32.880  1.00  0.00     0.039 C 
HETATM    6  C   LIG     1      28.573  28.558  32.053  1.00  0.00     0.054 C 
HETATM    7  C   LIG     1      29.713  29.424  32.506  1.00  0.00     0.077 C 
HETATM    8  O   LIG     1      28.617  28.082  30.733  1.00  0.00    -0.355 OA
HETATM    9  C   LIG     1      27.583  27.292  30.147  1.00  0.00     0.175 C 
HETATM   10  C   LIG     1      26.926  26.413  31.208  1.00  0.00     0.031 C 
HETATM   11  C   LIG     1      26.462  27.285  32.377  1.00  0.00     0.049 C 
ENDBRANCH   1   5
BRANCH   2  12
HETATM   12  C   LIG     1      27.112  30.719  35.758  1.00  0.00     0.035 A 
HETATM   13  C   LIG     1      28.378  31.228  36.101  1.00  0.00     0.029 A 
HETATM   14  C   LIG     1      28.551  31.951  37.285  1.00  0.00     0.002 A 
HETATM   15  C   LIG     1      27.462  32.184  38.129  1.00  0.00     0.000 A 
HETATM   16  C   LIG     1      26.197  31.701  37.788  1.00  0.00     0.002 A 
HETATM   17  C   LIG     1      26.021  30.977  36.604  1.00  0.00     0.029 A 
ENDBRANCH   2  12
TORSDOF 2
ENDMDL
MODEL 16
REMARK VINA RESULT:      -5.1      2.116      3.599
REMARK  2 active torsions:
REMARK  status: ('A' for Active; 'I' for Inactive)
REMARK    1  A    between atoms: C_3  and  C_4 
REMARK       I    between atoms: C_4  and  N_5 
REMARK    2  A    between atoms: N_5  and  C_6 
ROOT
HETATM    1  C   LIG     1      15.733  34.657  18.792  1.00  0.00     0.254 C 
HETATM    2  N   LIG     1      14.923  33.475  18.730  1.00  0.00    -0.323 N 
HETATM    3  O   LIG     1      16.031  35.277  17.735  1.00  0.00    -0.268 OA
HETATM    4  H   LIG     1      14.322  33.254  19.556  1.00  0.00     0.169 HD
ENDROOT
BRANCH   1   5
HETATM    5  C   LIG     1      16.147  35.217  20.098  1.00  0.00     0.039 C 
HETATM    6  C   LIG     1      17.246  36.000  20.235  1.00  0.00     0.054 C 
HETATM    7  C   LIG     1      18.078  36.435  19.063  1.00  0.00     0.077 C 
HETATM    8  O   LIG     1      17.619  36.485  21.499  1.00  0.00    -0.355 OA
HETATM    9  C   LIG     1      16.955  36.121  22.708  1.00  0.00     0.175 C 
HETATM   10  C   LIG     1      15.474  35.870  22.442  1.00  0.00     0.031 C 
HETATM   11  C   LIG     1      15.324  34.848  21.312  1.00  0.00     0.049 C 
ENDBRANCH   1   5
BRANCH   2  12
HETATM   12  C   LIG     1      14.804  32.645  17.562  1.00  0.00     0.035 A 
HETATM   13  C   LIG     1      15.776  32.666  16.543  1.00  0.00     0.029 A 
HETATM   14  C   LIG     1      15.648  31.831  15.429  1.00  0.00     0.002 A 
HETATM   15  C   LIG     1      14.560  30.961  15.326  1.00  0.00     0.000 A 
HETATM   16  C   LIG     1      13.601  30.918  16.341  1.00  0.00     0.002 A 
HETATM   17  C   LIG     1      13.726  31.751  17.457  1.00  0.00     0.029 A 
ENDBRANCH   2  12
TORSDOF 2
ENDMDL
MODEL 17
REMARK VINA RESULT:      -5.0     16.609     17.939
REMARK  2 active torsions:
REMARK  status: ('A' for Active; 'I' for Inactive)
REMARK    1  A    between atoms: C_3  and  C_4 
REMARK       I    between atoms: C_4  and  N_5 
REMARK    2  A    between atoms: N_5  and  C_6 
ROOT
HETATM    1  C   LIG     1      27.189  28.764  34.092  1.00  0.00     0.254 C 
HETATM    2  N   LIG     1      26.385  27.799  33.400  1.00  0.00    -0.323 N 
HETATM    3  O   LIG     1      28.246  29.202  33.563  1.00  0.00    -0.268 OA
HETATM    4  H   LIG     1      25.357  27.797  33.591  1.00  0.00     0.169 HD
ENDROOT
BRANCH   1   5
HETATM    5  C   LIG     1      26.741  29.330  35.384  1.00  0.00     0.039 C 
HETATM    6  C   LIG     1      26.906  28.673  36.559  1.00  0.00     0.054 C 
HETATM    7  C   LIG     1      27.635  27.364  36.655  1.00  0.00     0.077 C 
HETATM    8  O   LIG     1      26.437  29.234  37.758  1.00  0.00    -0.355 OA
HETATM    9  C   LIG     1      25.686  30.445  37.818  1.00  0.00     0.175 C 
HETATM   10  C   LIG     1      26.120  31.391  36.703  1.00  0.00     0.031 C 
HETATM   11  C   LIG     1      26.034  30.667  35.357  1.00  0.00     0.049 C 
ENDBRANCH   1   5
BRANCH   2  12
HETATM   12  C   LIG     1      26.888  26.917  32.382  1.00  0.00     0.035 A 
HETATM   13  C   LIG     1      26.870  27.280  31.021  1.00  0.00     0.029 A 
HETATM   14  C   LIG     1      27.388  26.415  30.054  1.00  0.00     0.002 A 
HETATM   15  C   LIG     1      27.940  25.188  30.433  1.00  0.00     0.000 A 
HETATM   16  C   LIG     1      27.982  24.829  31.782  1.00  0.00     0.002 A 
HETATM   17  C   LIG     1      27.465  25.692  32.753  1.00  0.00     0.029 A 
ENDBRANCH   2  12
TORSDOF 2
ENDMDL
MODEL 18
REMARK VINA RESULT:      -5.0      7.934     10.831
REMARK  2 active torsions:
REMARK  status: ('A' for Active; 'I' for Inactive)
REMARK    1  A    between atoms: C_3  and  C_4 
REMARK       I    between atoms: C_4  and  N_5 
REMARK    2  A    between atoms: N_5  and  C_6 
ROOT
HETATM    1  C   LIG     1      13.324  29.183  14.067  1.00  0.00     0.254 C 
HETATM    2  N   LIG     1      13.879  27.904  13.727  1.00  0.00    -0.323 N 
HETATM    3  O   LIG     1      12.078  29.366  14.012  1.00  0.00    -0.268 OA
HETATM    4  H   LIG     1      14.770  27.623  14.195  1.00  0.00     0.169 HD
ENDROOT
BRANCH   1   5
HETATM    5  C   LIG     1      14.191  30.268  14.578  1.00  0.00     0.039 C 
HETATM    6  C   LIG     1      13.970  30.870  15.772  1.00  0.00     0.054 C 
HETATM    7  C   LIG     1      12.886  30.426  16.711  1.00  0.00     0.077 C 
HETATM    8  O   LIG     1      14.800  31.918  16.204  1.00  0.00    -0.355 OA
HETATM    9  C   LIG     1      15.839  32.478  15.402  1.00  0.00     0.175 C 
HETATM   10  C   LIG     1      16.441  31.409  14.496  1.00  0.00     0.031 C 
HETATM   11  C   LIG     1      15.327  30.733  13.694  1.00  0.00     0.049 C 
ENDBRANCH   1   5
BRANCH   2  12
HETATM   12  C   LIG     1      13.226  26.947  12.876  1.00  0.00     0.035 A 
HETATM   13  C   LIG     1      11.877  26.593  13.068  1.00  0.00     0.029 A 
HETATM   14  C   LIG     1      11.259  25.678  12.211  1.00  0.00     0.002 A 
HETATM   15  C   LIG     1      11.974  25.117  11.150  1.00  0.00     0.000 A 
HETATM   16  C   LIG     1      13.307  25.477  10.939  1.00  0.00     0.002 A 
HETATM   17  C   LIG     1      13.929  26.393  11.794  1.00  0.00     0.029 A 
ENDBRANCH   2  12
TORSDOF 2
ENDMDL
MODEL 19
REMARK VINA RESULT:      -4.8     14.836     15.685
REMARK  2 active torsions:
REMARK  status: ('A' for Active; 'I' for Inactive)
REMARK    1  A    between atoms: C_3  and  C_4 
REMARK       I    between atoms: C_4  and  N_5 
REMARK    2  A    between atoms: N_5  and  C_6 
ROOT
HETATM    1  C   LIG     1      26.224  23.687  20.165  1.00  0.00     0.254 C 
HETATM    2  N   LIG     1      26.176  24.931  19.451  1.00  0.00    -0.323 N 
HETATM    3  O   LIG     1      27.334  23.191  20.497  1.00  0.00    -0.268 OA
HETATM    4  H   LIG     1      25.334  25.536  19.588  1.00  0.00     0.169 HD
ENDROOT
BRANCH   1   5
HETATM    5  C   LIG     1      24.977  23.023  20.604  1.00  0.00     0.039 C 
HETATM    6  C   LIG     1      24.154  22.381  19.738  1.00  0.00     0.054 C 
HETATM    7  C   LIG     1      24.485  22.215  18.283  1.00  0.00     0.077 C 
HETATM    8  O   LIG     1      22.964  21.790  20.194  1.00  0.00    -0.355 OA
HETATM    9  C   LIG     1      22.494  21.905  21.537  1.00  0.00     0.175 C 
HETATM   10  C   LIG     1      23.672  21.990  22.502  1.00  0.00     0.031 C 
HETATM   11  C   LIG     1      24.608  23.120  22.068  1.00  0.00     0.049 C 
ENDBRANCH   1   5
BRANCH   2  12
HETATM   12  C   LIG     1      27.259  25.441  18.655  1.00  0.00     0.035 A 
HETATM   13  C   LIG     1      27.722  24.754  17.517  1.00  0.00     0.029 A 
HETATM   14  C   LIG     1      28.761  25.284  16.747  1.00  0.00     0.002 A 
HETATM   15  C   LIG     1      29.337  26.508  17.095  1.00  0.00     0.000 A 
HETATM   16  C   LIG     1      28.871  27.208  18.210  1.00  0.00     0.002 A 
HETATM   17  C   LIG     1      27.832  26.681  18.983  1.00  0.00     0.029 A 
ENDBRANCH   2  12
TORSDOF 2
ENDMDL
MODEL 20
REMARK VINA RESULT:      -4.7     15.033     17.152
REMARK  2 active torsions:
REMARK  status: ('A' for Active; 'I' for Inactive)
REMARK    1  A    between atoms: C_3  and  C_4 
REMARK       I    between atoms: C_4  and  N_5 
REMARK    2  A    between atoms: N_5  and  C_6 
ROOT
HETATM    1  C   LIG     1      25.430  22.187  18.640  1.00  0.00     0.254 C 
HETATM    2  N   LIG     1      25.425  23.481  18.021  1.00  0.00    -0.323 N 
HETATM    3  O   LIG     1      26.091  21.995  19.697  1.00  0.00    -0.268 OA
HETATM    4  H   LIG     1      24.575  23.755  17.477  1.00  0.00     0.169 HD
ENDROOT
BRANCH   1   5
HETATM    5  C   LIG     1      24.588  21.094  18.107  1.00  0.00     0.039 C 
HETATM    6  C   LIG     1      25.052  20.195  17.204  1.00  0.00     0.054 C 
HETATM    7  C   LIG     1      26.481  20.182  16.741  1.00  0.00     0.077 C 
HETATM    8  O   LIG     1      24.208  19.192  16.701  1.00  0.00    -0.355 OA
HETATM    9  C   LIG     1      22.818  19.107  17.011  1.00  0.00     0.175 C 
HETATM   10  C   LIG     1      22.559  19.625  18.422  1.00  0.00     0.031 C 
HETATM   11  C   LIG     1      23.148  21.030  18.567  1.00  0.00     0.049 C 
ENDBRANCH   1   5
BRANCH   2  12
HETATM   12  C   LIG     1      26.463  24.460  18.198  1.00  0.00     0.035 A 
HETATM   13  C   LIG     1      26.358  25.475  19.168  1.00  0.00     0.029 A 
HETATM   14  C   LIG     1      27.393  26.399  19.337  1.00  0.00     0.002 A 
HETATM   15  C   LIG     1      28.545  26.313  18.552  1.00  0.00     0.000 A 
HETATM   16  C   LIG     1      28.668  25.297  17.601  1.00  0.00     0.002 A 
HETATM   17  C   LIG     1      27.635  24.370  17.430  1.00  0.00     0.029 A 
ENDBRANCH   2  12
TORSDOF 2
ENDMDL
