REMARK  3 active torsions:
REMARK  status: ('A' for Active; 'I' for Inactive)
REMARK    1  A    between atoms: O_1  and  C_2 
REMARK    2  A    between atoms: C_2  and  C_3 
REMARK    3  A    between atoms: C_3  and  O_4 
ROOT
HETATM    1  C   LIG     1       0.504  -0.004   0.750  1.00  0.00     0.202 A 
HETATM    2  C   LIG     1      -0.434   1.089   0.307  1.00  0.00     0.003 A 
HETATM    3  C   LIG     1      -1.536   0.576  -0.354  1.00  0.00    -0.015 A 
HETATM    4  C   LIG     1      -2.543   1.402  -0.853  1.00  0.00     0.014 A 
HETATM    5  C   LIG     1      -2.419   2.788  -0.668  1.00  0.00     0.024 A 
HETATM    6  C   LIG     1      -1.301   3.320   0.008  1.00  0.00     0.034 A 
HETATM    7 CL   LIG     1      -1.160   5.053   0.234  1.00  0.00    -0.084 Cl
HETATM    8  C   LIG     1      -0.299   2.466   0.502  1.00  0.00     0.035 A 
HETATM    9  C   LIG     1      -1.413  -0.866  -0.396  1.00  0.00    -0.015 A 
HETATM   10  C   LIG     1      -0.237  -1.221   0.242  1.00  0.00     0.002 A 
HETATM   11  C   LIG     1       0.137  -2.564   0.346  1.00  0.00     0.012 A 
HETATM   12  C   LIG     1      -0.706  -3.543  -0.206  1.00  0.00     0.001 A 
HETATM   13  C   LIG     1      -1.902  -3.173  -0.852  1.00  0.00     0.001 A 
HETATM   14  C   LIG     1      -2.265  -1.820  -0.951  1.00  0.00     0.013 A 
ENDROOT
BRANCH   1  15
HETATM   15  O   LIG     1       0.595  -0.009   2.152  1.00  0.00    -0.371 OA
HETATM   16  H   LIG     1       1.125  -0.808   2.414  1.00  0.00     0.212 HD
ENDBRANCH   1  15
BRANCH   1  17
HETATM   17  C   LIG     1       1.856   0.150   0.096  1.00  0.00     0.303 C 
HETATM   18  O   LIG     1       1.957   0.094  -1.161  1.00  0.00    -0.261 OA
BRANCH  17  19
HETATM   19  O   LIG     1       2.988   0.375   0.886  1.00  0.00    -0.324 OA
HETATM   20  C   LIG     1       4.287   0.539   0.333  1.00  0.00     0.213 C 
ENDBRANCH  17  19
ENDBRANCH   1  17
TORSDOF 3
