MODEL 1
REMARK VINA RESULT:      -4.8      0.000      0.000
REMARK  2 active torsions:
REMARK  status: ('A' for Active; 'I' for Inactive)
REMARK    1  A    between atoms: O_1  and  C_2 
REMARK    2  A    between atoms: C_11  and  O_12 
ROOT
HETATM    1  C   LIG     1      18.269  38.731  22.153  1.00  0.00     0.124 A 
HETATM    2  C   LIG     1      17.690  37.913  23.147  1.00  0.00     0.093 A 
HETATM    3 CL   LIG     1      17.555  38.488  24.811  1.00  0.00    -0.079 Cl
HETATM    4  C   LIG     1      17.216  36.631  22.819  1.00  0.00     0.082 A 
HETATM    5 CL   LIG     1      16.492  35.610  24.065  1.00  0.00    -0.081 Cl
HETATM    6  C   LIG     1      17.317  36.161  21.502  1.00  0.00     0.082 A 
HETATM    7 CL   LIG     1      16.722  34.551  21.088  1.00  0.00    -0.081 Cl
HETATM    8  C   LIG     1      17.892  36.971  20.511  1.00  0.00     0.093 A 
HETATM    9 CL   LIG     1      18.022  36.386  18.851  1.00  0.00    -0.079 Cl
HETATM   10  C   LIG     1      18.371  38.255  20.822  1.00  0.00     0.126 A 
ENDROOT
BRANCH   1  11
HETATM   11  O   LIG     1      18.741  40.004  22.478  1.00  0.00    -0.356 OA
HETATM   12  H   LIG     1      19.569  40.169  23.037  1.00  0.00     0.218 HD
ENDBRANCH   1  11
BRANCH  10  13
HETATM   13  O   LIG     1      18.934  39.001  19.767  1.00  0.00    -0.351 OA
HETATM   14  C   LIG     1      20.293  38.988  19.347  1.00  0.00     0.210 C 
ENDBRANCH  10  13
TORSDOF 2
ENDMDL
MODEL 2
REMARK VINA RESULT:      -4.8      2.223      4.368
REMARK  2 active torsions:
REMARK  status: ('A' for Active; 'I' for Inactive)
REMARK    1  A    between atoms: O_1  and  C_2 
REMARK    2  A    between atoms: C_11  and  O_12 
ROOT
HETATM    1  C   LIG     1      17.799  36.719  20.075  1.00  0.00     0.124 A 
HETATM    2  C   LIG     1      18.206  38.017  20.451  1.00  0.00     0.093 A 
HETATM    3 CL   LIG     1      18.835  39.141  19.244  1.00  0.00    -0.079 Cl
HETATM    4  C   LIG     1      18.116  38.426  21.793  1.00  0.00     0.082 A 
HETATM    5 CL   LIG     1      18.626  40.050  22.260  1.00  0.00    -0.081 Cl
HETATM    6  C   LIG     1      17.618  37.543  22.763  1.00  0.00     0.082 A 
HETATM    7 CL   LIG     1      17.503  38.055  24.449  1.00  0.00    -0.081 Cl
HETATM    8  C   LIG     1      17.212  36.252  22.394  1.00  0.00     0.093 A 
HETATM    9 CL   LIG     1      16.585  35.137  23.609  1.00  0.00    -0.079 Cl
HETATM   10  C   LIG     1      17.297  35.828  21.057  1.00  0.00     0.126 A 
ENDROOT
BRANCH   1  11
HETATM   11  O   LIG     1      17.890  36.312  18.743  1.00  0.00    -0.356 OA
HETATM   12  H   LIG     1      18.763  36.085  18.285  1.00  0.00     0.218 HD
ENDBRANCH   1  11
BRANCH  10  13
HETATM   13  O   LIG     1      16.868  34.516  20.773  1.00  0.00    -0.351 OA
HETATM   14  C   LIG     1      15.577  34.123  20.321  1.00  0.00     0.210 C 
ENDBRANCH  10  13
TORSDOF 2
ENDMDL
MODEL 3
REMARK VINA RESULT:      -4.7      1.597      3.753
REMARK  2 active torsions:
REMARK  status: ('A' for Active; 'I' for Inactive)
REMARK    1  A    between atoms: O_1  and  C_2 
REMARK    2  A    between atoms: C_11  and  O_12 
ROOT
HETATM    1  C   LIG     1      18.368  38.824  21.932  1.00  0.00     0.124 A 
HETATM    2  C   LIG     1      18.765  38.317  20.676  1.00  0.00     0.093 A 
HETATM    3 CL   LIG     1      20.072  39.088  19.773  1.00  0.00    -0.079 Cl
HETATM    4  C   LIG     1      18.123  37.191  20.133  1.00  0.00     0.082 A 
HETATM    5 CL   LIG     1      18.623  36.558  18.562  1.00  0.00    -0.081 Cl
HETATM    6  C   LIG     1      17.083  36.568  20.839  1.00  0.00     0.082 A 
HETATM    7 CL   LIG     1      16.274  35.154  20.158  1.00  0.00    -0.081 Cl
HETATM    8  C   LIG     1      16.684  37.069  22.087  1.00  0.00     0.093 A 
HETATM    9 CL   LIG     1      15.377  36.291  22.981  1.00  0.00    -0.079 Cl
HETATM   10  C   LIG     1      17.317  38.194  22.643  1.00  0.00     0.126 A 
ENDROOT
BRANCH   1  11
HETATM   11  O   LIG     1      19.006  39.943  22.471  1.00  0.00    -0.356 OA
HETATM   12  H   LIG     1      19.728  39.890  23.178  1.00  0.00     0.218 HD
ENDBRANCH   1  11
BRANCH  10  13
HETATM   13  O   LIG     1      16.854  38.632  23.901  1.00  0.00    -0.351 OA
HETATM   14  C   LIG     1      17.337  38.220  25.174  1.00  0.00     0.210 C 
ENDBRANCH  10  13
TORSDOF 2
ENDMDL
MODEL 4
REMARK VINA RESULT:      -4.7      7.042      8.919
REMARK  2 active torsions:
REMARK  status: ('A' for Active; 'I' for Inactive)
REMARK    1  A    between atoms: O_1  and  C_2 
REMARK    2  A    between atoms: C_11  and  O_12 
ROOT
HETATM    1  C   LIG     1      14.384  32.344  16.711  1.00  0.00     0.124 A 
HETATM    2  C   LIG     1      14.401  31.326  15.734  1.00  0.00     0.093 A 
HETATM    3 CL   LIG     1      13.301  29.950  15.857  1.00  0.00    -0.079 Cl
HETATM    4  C   LIG     1      15.297  31.398  14.653  1.00  0.00     0.082 A 
HETATM    5 CL   LIG     1      15.315  30.122  13.432  1.00  0.00    -0.081 Cl
HETATM    6  C   LIG     1      16.177  32.484  14.543  1.00  0.00     0.082 A 
HETATM    7 CL   LIG     1      17.302  32.577  13.186  1.00  0.00    -0.081 Cl
HETATM    8  C   LIG     1      16.163  33.499  15.512  1.00  0.00     0.093 A 
HETATM    9 CL   LIG     1      17.268  34.869  15.380  1.00  0.00    -0.079 Cl
HETATM   10  C   LIG     1      15.275  33.441  16.599  1.00  0.00     0.126 A 
ENDROOT
BRANCH   1  11
HETATM   11  O   LIG     1      13.495  32.272  17.786  1.00  0.00    -0.356 OA
HETATM   12  H   LIG     1      12.821  32.994  18.005  1.00  0.00     0.218 HD
ENDBRANCH   1  11
BRANCH  10  13
HETATM   13  O   LIG     1      15.327  34.501  17.526  1.00  0.00    -0.351 OA
HETATM   14  C   LIG     1      15.635  34.404  18.912  1.00  0.00     0.210 C 
ENDBRANCH  10  13
TORSDOF 2
ENDMDL
MODEL 5
REMARK VINA RESULT:      -4.6      7.321      9.009
REMARK  2 active torsions:
REMARK  status: ('A' for Active; 'I' for Inactive)
REMARK    1  A    between atoms: O_1  and  C_2 
REMARK    2  A    between atoms: C_11  and  O_12 
ROOT
HETATM    1  C   LIG     1      15.713  33.521  16.465  1.00  0.00     0.124 A 
HETATM    2  C   LIG     1      16.447  33.584  15.261  1.00  0.00     0.093 A 
HETATM    3 CL   LIG     1      17.531  34.942  14.945  1.00  0.00    -0.079 Cl
HETATM    4  C   LIG     1      16.321  32.564  14.302  1.00  0.00     0.082 A 
HETATM    5 CL   LIG     1      17.242  32.646  12.797  1.00  0.00    -0.081 Cl
HETATM    6  C   LIG     1      15.464  31.480  14.539  1.00  0.00     0.082 A 
HETATM    7 CL   LIG     1      15.305  30.198  13.336  1.00  0.00    -0.081 Cl
HETATM    8  C   LIG     1      14.732  31.413  15.735  1.00  0.00     0.093 A 
HETATM    9 CL   LIG     1      13.652  30.052  16.040  1.00  0.00    -0.079 Cl
HETATM   10  C   LIG     1      14.847  32.425  16.703  1.00  0.00     0.126 A 
ENDROOT
BRANCH   1  11
HETATM   11  O   LIG     1      15.837  34.534  17.418  1.00  0.00    -0.356 OA
HETATM   12  H   LIG     1      15.483  35.472  17.287  1.00  0.00     0.218 HD
ENDBRANCH   1  11
BRANCH  10  13
HETATM   13  O   LIG     1      14.076  32.279  17.874  1.00  0.00    -0.351 OA
HETATM   14  C   LIG     1      14.526  31.791  19.133  1.00  0.00     0.210 C 
ENDBRANCH  10  13
TORSDOF 2
ENDMDL
MODEL 6
REMARK VINA RESULT:      -4.6      8.191      9.795
REMARK  2 active torsions:
REMARK  status: ('A' for Active; 'I' for Inactive)
REMARK    1  A    between atoms: O_1  and  C_2 
REMARK    2  A    between atoms: C_11  and  O_12 
ROOT
HETATM    1  C   LIG     1      16.312  32.048  13.972  1.00  0.00     0.124 A 
HETATM    2  C   LIG     1      16.341  33.047  14.968  1.00  0.00     0.093 A 
HETATM    3 CL   LIG     1      17.500  34.376  14.868  1.00  0.00    -0.079 Cl
HETATM    4  C   LIG     1      15.447  32.992  16.051  1.00  0.00     0.082 A 
HETATM    5 CL   LIG     1      15.486  34.244  17.296  1.00  0.00    -0.081 Cl
HETATM    6  C   LIG     1      14.521  31.943  16.144  1.00  0.00     0.082 A 
HETATM    7 CL   LIG     1      13.397  31.871  17.503  1.00  0.00    -0.081 Cl
HETATM    8  C   LIG     1      14.489  30.947  15.155  1.00  0.00     0.093 A 
HETATM    9 CL   LIG     1      13.327  29.624  15.265  1.00  0.00    -0.079 Cl
HETATM   10  C   LIG     1      15.377  30.987  14.067  1.00  0.00     0.126 A 
ENDROOT
BRANCH   1  11
HETATM   11  O   LIG     1      17.201  32.102  12.897  1.00  0.00    -0.356 OA
HETATM   12  H   LIG     1      16.941  32.414  11.970  1.00  0.00     0.218 HD
ENDBRANCH   1  11
BRANCH  10  13
HETATM   13  O   LIG     1      15.276  29.949  13.120  1.00  0.00    -0.351 OA
HETATM   14  C   LIG     1      15.588  28.576  13.328  1.00  0.00     0.210 C 
ENDBRANCH  10  13
TORSDOF 2
ENDMDL
MODEL 7
REMARK VINA RESULT:      -4.6      7.511      8.704
REMARK  2 active torsions:
REMARK  status: ('A' for Active; 'I' for Inactive)
REMARK    1  A    between atoms: O_1  and  C_2 
REMARK    2  A    between atoms: C_11  and  O_12 
ROOT
HETATM    1  C   LIG     1      16.403  33.318  15.480  1.00  0.00     0.124 A 
HETATM    2  C   LIG     1      15.352  33.136  16.403  1.00  0.00     0.093 A 
HETATM    3 CL   LIG     1      15.164  34.236  17.772  1.00  0.00    -0.079 Cl
HETATM    4  C   LIG     1      14.443  32.076  16.241  1.00  0.00     0.082 A 
HETATM    5 CL   LIG     1      13.128  31.852  17.399  1.00  0.00    -0.081 Cl
HETATM    6  C   LIG     1      14.580  31.194  15.159  1.00  0.00     0.082 A 
HETATM    7 CL   LIG     1      13.440  29.862  14.954  1.00  0.00    -0.081 Cl
HETATM    8  C   LIG     1      15.624  31.371  14.238  1.00  0.00     0.093 A 
HETATM    9 CL   LIG     1      15.802  30.266  12.875  1.00  0.00    -0.079 Cl
HETATM   10  C   LIG     1      16.541  32.425  14.387  1.00  0.00     0.126 A 
ENDROOT
BRANCH   1  11
HETATM   11  O   LIG     1      17.306  34.370  15.641  1.00  0.00    -0.356 OA
HETATM   12  H   LIG     1      17.388  34.913  16.491  1.00  0.00     0.218 HD
ENDBRANCH   1  11
BRANCH  10  13
HETATM   13  O   LIG     1      17.559  32.530  13.418  1.00  0.00    -0.351 OA
HETATM   14  C   LIG     1      17.884  33.681  12.647  1.00  0.00     0.210 C 
ENDBRANCH  10  13
TORSDOF 2
ENDMDL
MODEL 8
REMARK VINA RESULT:      -4.5      8.118      9.957
REMARK  2 active torsions:
REMARK  status: ('A' for Active; 'I' for Inactive)
REMARK    1  A    between atoms: O_1  and  C_2 
REMARK    2  A    between atoms: C_11  and  O_12 
ROOT
HETATM    1  C   LIG     1      15.823  31.360  14.080  1.00  0.00     0.124 A 
HETATM    2  C   LIG     1      16.561  32.563  14.110  1.00  0.00     0.093 A 
HETATM    3 CL   LIG     1      17.691  32.951  12.809  1.00  0.00    -0.079 Cl
HETATM    4  C   LIG     1      16.402  33.464  15.177  1.00  0.00     0.082 A 
HETATM    5 CL   LIG     1      17.327  34.968  15.210  1.00  0.00    -0.081 Cl
HETATM    6  C   LIG     1      15.509  33.169  16.217  1.00  0.00     0.082 A 
HETATM    7 CL   LIG     1      15.308  34.300  17.558  1.00  0.00    -0.081 Cl
HETATM    8  C   LIG     1      14.773  31.974  16.192  1.00  0.00     0.093 A 
HETATM    9 CL   LIG     1      13.647  31.597  17.497  1.00  0.00    -0.079 Cl
HETATM   10  C   LIG     1      14.921  31.063  15.132  1.00  0.00     0.126 A 
ENDROOT
BRANCH   1  11
HETATM   11  O   LIG     1      15.981  30.465  13.021  1.00  0.00    -0.356 OA
HETATM   12  H   LIG     1      16.559  30.651  12.211  1.00  0.00     0.218 HD
ENDBRANCH   1  11
BRANCH  10  13
HETATM   13  O   LIG     1      14.145  29.888  15.186  1.00  0.00    -0.351 OA
HETATM   14  C   LIG     1      12.953  29.623  14.456  1.00  0.00     0.210 C 
ENDBRANCH  10  13
TORSDOF 2
ENDMDL
MODEL 9
REMARK VINA RESULT:      -4.5      7.870      9.426
REMARK  2 active torsions:
REMARK  status: ('A' for Active; 'I' for Inactive)
REMARK    1  A    between atoms: O_1  and  C_2 
REMARK    2  A    between atoms: C_11  and  O_12 
ROOT
HETATM    1  C   LIG     1      15.676  31.219  14.042  1.00  0.00     0.124 A 
HETATM    2  C   LIG     1      14.629  31.022  14.967  1.00  0.00     0.093 A 
HETATM    3 CL   LIG     1      13.542  29.639  14.807  1.00  0.00    -0.079 Cl
HETATM    4  C   LIG     1      14.441  31.927  16.026  1.00  0.00     0.082 A 
HETATM    5 CL   LIG     1      13.130  31.678  17.182  1.00  0.00    -0.081 Cl
HETATM    6  C   LIG     1      15.296  33.030  16.166  1.00  0.00     0.082 A 
HETATM    7 CL   LIG     1      15.062  34.168  17.495  1.00  0.00    -0.081 Cl
HETATM    8  C   LIG     1      16.339  33.230  15.248  1.00  0.00     0.093 A 
HETATM    9 CL   LIG     1      17.418  34.615  15.418  1.00  0.00    -0.079 Cl
HETATM   10  C   LIG     1      16.539  32.334  14.184  1.00  0.00     0.126 A 
ENDROOT
BRANCH   1  11
HETATM   11  O   LIG     1      15.862  30.320  12.990  1.00  0.00    -0.356 OA
HETATM   12  H   LIG     1      15.106  29.958  12.422  1.00  0.00     0.218 HD
ENDBRANCH   1  11
BRANCH  10  13
HETATM   13  O   LIG     1      17.609  32.609  13.309  1.00  0.00    -0.351 OA
HETATM   14  C   LIG     1      17.749  33.749  12.468  1.00  0.00     0.210 C 
ENDBRANCH  10  13
TORSDOF 2
ENDMDL
MODEL 10
REMARK VINA RESULT:      -4.5      1.319      3.274
REMARK  2 active torsions:
REMARK  status: ('A' for Active; 'I' for Inactive)
REMARK    1  A    between atoms: O_1  and  C_2 
REMARK    2  A    between atoms: C_11  and  O_12 
ROOT
HETATM    1  C   LIG     1      17.623  36.638  20.333  1.00  0.00     0.124 A 
HETATM    2  C   LIG     1      17.131  35.783  21.342  1.00  0.00     0.093 A 
HETATM    3 CL   LIG     1      16.491  34.189  20.931  1.00  0.00    -0.079 Cl
HETATM    4  C   LIG     1      17.146  36.194  22.687  1.00  0.00     0.082 A 
HETATM    5 CL   LIG     1      16.530  35.122  23.947  1.00  0.00    -0.081 Cl
HETATM    6  C   LIG     1      17.652  37.457  23.028  1.00  0.00     0.082 A 
HETATM    7 CL   LIG     1      17.672  37.975  24.716  1.00  0.00    -0.081 Cl
HETATM    8  C   LIG     1      18.142  38.310  22.027  1.00  0.00     0.093 A 
HETATM    9 CL   LIG     1      18.778  39.900  22.450  1.00  0.00    -0.079 Cl
HETATM   10  C   LIG     1      18.132  37.914  20.679  1.00  0.00     0.126 A 
ENDROOT
BRANCH   1  11
HETATM   11  O   LIG     1      17.606  36.230  18.998  1.00  0.00    -0.356 OA
HETATM   12  H   LIG     1      17.543  36.870  18.217  1.00  0.00     0.218 HD
ENDBRANCH   1  11
BRANCH  10  13
HETATM   13  O   LIG     1      18.643  38.832  19.739  1.00  0.00    -0.351 OA
HETATM   14  C   LIG     1      19.983  38.910  19.269  1.00  0.00     0.210 C 
ENDBRANCH  10  13
TORSDOF 2
ENDMDL
MODEL 11
REMARK VINA RESULT:      -4.4      7.559      9.633
REMARK  2 active torsions:
REMARK  status: ('A' for Active; 'I' for Inactive)
REMARK    1  A    between atoms: O_1  and  C_2 
REMARK    2  A    between atoms: C_11  and  O_12 
ROOT
HETATM    1  C   LIG     1      13.851  30.780  16.609  1.00  0.00     0.124 A 
HETATM    2  C   LIG     1      14.332  30.743  15.283  1.00  0.00     0.093 A 
HETATM    3 CL   LIG     1      13.776  29.494  14.165  1.00  0.00    -0.079 Cl
HETATM    4  C   LIG     1      15.259  31.702  14.840  1.00  0.00     0.082 A 
HETATM    5 CL   LIG     1      15.859  31.652  13.180  1.00  0.00    -0.081 Cl
HETATM    6  C   LIG     1      15.710  32.699  15.717  1.00  0.00     0.082 A 
HETATM    7 CL   LIG     1      16.875  33.904  15.162  1.00  0.00    -0.081 Cl
HETATM    8  C   LIG     1      15.234  32.740  17.036  1.00  0.00     0.093 A 
HETATM    9 CL   LIG     1      15.797  33.992  18.145  1.00  0.00    -0.079 Cl
HETATM   10  C   LIG     1      14.307  31.788  17.495  1.00  0.00     0.126 A 
ENDROOT
BRANCH   1  11
HETATM   11  O   LIG     1      12.930  29.827  17.049  1.00  0.00    -0.356 OA
HETATM   12  H   LIG     1      12.884  29.490  18.002  1.00  0.00     0.218 HD
ENDBRANCH   1  11
BRANCH  10  13
HETATM   13  O   LIG     1      13.882  31.902  18.833  1.00  0.00    -0.351 OA
HETATM   14  C   LIG     1      14.608  31.510  19.992  1.00  0.00     0.210 C 
ENDBRANCH  10  13
TORSDOF 2
ENDMDL
MODEL 12
REMARK VINA RESULT:      -4.4      2.573      3.644
REMARK  2 active torsions:
REMARK  status: ('A' for Active; 'I' for Inactive)
REMARK    1  A    between atoms: O_1  and  C_2 
REMARK    2  A    between atoms: C_11  and  O_12 
ROOT
HETATM    1  C   LIG     1      16.746  36.020  22.204  1.00  0.00     0.124 A 
HETATM    2  C   LIG     1      17.211  37.094  22.993  1.00  0.00     0.093 A 
HETATM    3 CL   LIG     1      16.772  37.205  24.700  1.00  0.00    -0.079 Cl
HETATM    4  C   LIG     1      18.028  38.087  22.425  1.00  0.00     0.082 A 
HETATM    5 CL   LIG     1      18.607  39.430  23.415  1.00  0.00    -0.081 Cl
HETATM    6  C   LIG     1      18.384  38.013  21.070  1.00  0.00     0.082 A 
HETATM    7 CL   LIG     1      19.410  39.259  20.355  1.00  0.00    -0.081 Cl
HETATM    8  C   LIG     1      17.924  36.946  20.282  1.00  0.00     0.093 A 
HETATM    9 CL   LIG     1      18.367  36.846  18.578  1.00  0.00    -0.079 Cl
HETATM   10  C   LIG     1      17.106  35.946  20.835  1.00  0.00     0.126 A 
ENDROOT
BRANCH   1  11
HETATM   11  O   LIG     1      15.934  35.035  22.768  1.00  0.00    -0.356 OA
HETATM   12  H   LIG     1      15.592  34.230  22.257  1.00  0.00     0.218 HD
ENDBRANCH   1  11
BRANCH  10  13
HETATM   13  O   LIG     1      16.689  34.912  19.973  1.00  0.00    -0.351 OA
HETATM   14  C   LIG     1      15.445  34.826  19.288  1.00  0.00     0.210 C 
ENDBRANCH  10  13
TORSDOF 2
ENDMDL
MODEL 13
REMARK VINA RESULT:      -4.4      2.511      4.826
REMARK  2 active torsions:
REMARK  status: ('A' for Active; 'I' for Inactive)
REMARK    1  A    between atoms: O_1  and  C_2 
REMARK    2  A    between atoms: C_11  and  O_12 
ROOT
HETATM    1  C   LIG     1      16.501  35.908  22.118  1.00  0.00     0.124 A 
HETATM    2  C   LIG     1      16.876  35.975  20.759  1.00  0.00     0.093 A 
HETATM    3 CL   LIG     1      16.199  34.840  19.587  1.00  0.00    -0.079 Cl
HETATM    4  C   LIG     1      17.793  36.948  20.325  1.00  0.00     0.082 A 
HETATM    5 CL   LIG     1      18.260  37.030  18.624  1.00  0.00    -0.081 Cl
HETATM    6  C   LIG     1      18.338  37.856  21.244  1.00  0.00     0.082 A 
HETATM    7 CL   LIG     1      19.491  39.079  20.702  1.00  0.00    -0.081 Cl
HETATM    8  C   LIG     1      17.969  37.793  22.597  1.00  0.00     0.093 A 
HETATM    9 CL   LIG     1      18.651  38.932  23.758  1.00  0.00    -0.079 Cl
HETATM   10  C   LIG     1      17.054  36.826  23.045  1.00  0.00     0.126 A 
ENDROOT
BRANCH   1  11
HETATM   11  O   LIG     1      15.590  34.941  22.548  1.00  0.00    -0.356 OA
HETATM   12  H   LIG     1      15.828  33.966  22.678  1.00  0.00     0.218 HD
ENDBRANCH   1  11
BRANCH  10  13
HETATM   13  O   LIG     1      16.738  36.832  24.419  1.00  0.00    -0.351 OA
HETATM   14  C   LIG     1      17.392  36.097  25.446  1.00  0.00     0.210 C 
ENDBRANCH  10  13
TORSDOF 2
ENDMDL
MODEL 14
REMARK VINA RESULT:      -4.4      7.776      9.363
REMARK  2 active torsions:
REMARK  status: ('A' for Active; 'I' for Inactive)
REMARK    1  A    between atoms: O_1  and  C_2 
REMARK    2  A    between atoms: C_11  and  O_12 
ROOT
HETATM    1  C   LIG     1      14.446  32.160  16.704  1.00  0.00     0.124 A 
HETATM    2  C   LIG     1      15.287  33.291  16.627  1.00  0.00     0.093 A 
HETATM    3 CL   LIG     1      15.245  34.524  17.890  1.00  0.00    -0.079 Cl
HETATM    4  C   LIG     1      16.167  33.445  15.541  1.00  0.00     0.082 A 
HETATM    5 CL   LIG     1      17.218  34.861  15.448  1.00  0.00    -0.081 Cl
HETATM    6  C   LIG     1      16.211  32.474  14.531  1.00  0.00     0.082 A 
HETATM    7 CL   LIG     1      17.315  32.665  13.166  1.00  0.00    -0.081 Cl
HETATM    8  C   LIG     1      15.377  31.348  14.604  1.00  0.00     0.093 A 
HETATM    9 CL   LIG     1      15.427  30.122  13.336  1.00  0.00    -0.079 Cl
HETATM   10  C   LIG     1      14.491  31.179  15.682  1.00  0.00     0.126 A 
ENDROOT
BRANCH   1  11
HETATM   11  O   LIG     1      13.572  32.007  17.782  1.00  0.00    -0.356 OA
HETATM   12  H   LIG     1      12.592  32.258  17.749  1.00  0.00     0.218 HD
ENDBRANCH   1  11
BRANCH  10  13
HETATM   13  O   LIG     1      13.690  30.020  15.677  1.00  0.00    -0.351 OA
HETATM   14  C   LIG     1      12.633  29.722  14.772  1.00  0.00     0.210 C 
ENDBRANCH  10  13
TORSDOF 2
ENDMDL
MODEL 15
REMARK VINA RESULT:      -4.0      7.515      9.287
REMARK  2 active torsions:
REMARK  status: ('A' for Active; 'I' for Inactive)
REMARK    1  A    between atoms: O_1  and  C_2 
REMARK    2  A    between atoms: C_11  and  O_12 
ROOT
HETATM    1  C   LIG     1      16.385  32.170  14.281  1.00  0.00     0.124 A 
HETATM    2  C   LIG     1      15.473  31.094  14.234  1.00  0.00     0.093 A 
HETATM    3 CL   LIG     1      15.578  29.889  12.948  1.00  0.00    -0.079 Cl
HETATM    4  C   LIG     1      14.472  30.972  15.213  1.00  0.00     0.082 A 
HETATM    5 CL   LIG     1      13.333  29.624  15.152  1.00  0.00    -0.081 Cl
HETATM    6  C   LIG     1      14.377  31.921  16.241  1.00  0.00     0.082 A 
HETATM    7 CL   LIG     1      13.120  31.770  17.472  1.00  0.00    -0.081 Cl
HETATM    8  C   LIG     1      15.281  32.993  16.291  1.00  0.00     0.093 A 
HETATM    9 CL   LIG     1      15.167  34.192  17.581  1.00  0.00    -0.079 Cl
HETATM   10  C   LIG     1      16.287  33.129  15.320  1.00  0.00     0.126 A 
ENDROOT
BRANCH   1  11
HETATM   11  O   LIG     1      17.379  32.292  13.308  1.00  0.00    -0.356 OA
HETATM   12  H   LIG     1      17.474  31.661  12.523  1.00  0.00     0.218 HD
ENDBRANCH   1  11
BRANCH  10  13
HETATM   13  O   LIG     1      17.152  34.235  15.445  1.00  0.00    -0.351 OA
HETATM   14  C   LIG     1      17.505  35.159  14.423  1.00  0.00     0.210 C 
ENDBRANCH  10  13
TORSDOF 2
ENDMDL
MODEL 16
REMARK VINA RESULT:      -3.8      8.199      9.656
REMARK  2 active torsions:
REMARK  status: ('A' for Active; 'I' for Inactive)
REMARK    1  A    between atoms: O_1  and  C_2 
REMARK    2  A    between atoms: C_11  and  O_12 
ROOT
HETATM    1  C   LIG     1      14.586  30.989  15.254  1.00  0.00     0.124 A 
HETATM    2  C   LIG     1      14.534  31.955  16.282  1.00  0.00     0.093 A 
HETATM    3 CL   LIG     1      13.406  31.768  17.627  1.00  0.00    -0.079 Cl
HETATM    4  C   LIG     1      15.381  33.076  16.243  1.00  0.00     0.082 A 
HETATM    5 CL   LIG     1      15.313  34.282  17.531  1.00  0.00    -0.081 Cl
HETATM    6  C   LIG     1      16.282  33.238  15.181  1.00  0.00     0.082 A 
HETATM    7 CL   LIG     1      17.347  34.645  15.130  1.00  0.00    -0.081 Cl
HETATM    8  C   LIG     1      16.337  32.280  14.156  1.00  0.00     0.093 A 
HETATM    9 CL   LIG     1      17.468  32.478  12.816  1.00  0.00    -0.079 Cl
HETATM   10  C   LIG     1      15.496  31.155  14.180  1.00  0.00     0.126 A 
ENDROOT
BRANCH   1  11
HETATM   11  O   LIG     1      13.744  29.876  15.292  1.00  0.00    -0.356 OA
HETATM   12  H   LIG     1      13.616  29.298  16.112  1.00  0.00     0.218 HD
ENDBRANCH   1  11
BRANCH  10  13
HETATM   13  O   LIG     1      15.617  30.243  13.112  1.00  0.00    -0.351 OA
HETATM   14  C   LIG     1      15.609  28.823  13.201  1.00  0.00     0.210 C 
ENDBRANCH  10  13
TORSDOF 2
ENDMDL
MODEL 17
REMARK VINA RESULT:      -3.8      2.256      3.932
REMARK  2 active torsions:
REMARK  status: ('A' for Active; 'I' for Inactive)
REMARK    1  A    between atoms: O_1  and  C_2 
REMARK    2  A    between atoms: C_11  and  O_12 
ROOT
HETATM    1  C   LIG     1      17.802  37.875  23.606  1.00  0.00     0.124 A 
HETATM    2  C   LIG     1      18.221  38.496  22.410  1.00  0.00     0.093 A 
HETATM    3 CL   LIG     1      19.051  40.054  22.456  1.00  0.00    -0.079 Cl
HETATM    4  C   LIG     1      17.981  37.878  21.170  1.00  0.00     0.082 A 
HETATM    5 CL   LIG     1      18.507  38.658  19.676  1.00  0.00    -0.081 Cl
HETATM    6  C   LIG     1      17.322  36.641  21.119  1.00  0.00     0.082 A 
HETATM    7 CL   LIG     1      17.019  35.864  19.563  1.00  0.00    -0.081 Cl
HETATM    8  C   LIG     1      16.903  36.020  22.306  1.00  0.00     0.093 A 
HETATM    9 CL   LIG     1      16.074  34.463  22.248  1.00  0.00    -0.079 Cl
HETATM   10  C   LIG     1      17.135  36.625  23.552  1.00  0.00     0.126 A 
ENDROOT
BRANCH   1  11
HETATM   11  O   LIG     1      18.039  38.488  24.837  1.00  0.00    -0.356 OA
HETATM   12  H   LIG     1      17.330  38.982  25.364  1.00  0.00     0.218 HD
ENDBRANCH   1  11
BRANCH  10  13
HETATM   13  O   LIG     1      16.682  35.933  24.693  1.00  0.00    -0.351 OA
HETATM   14  C   LIG     1      17.437  35.036  25.500  1.00  0.00     0.210 C 
ENDBRANCH  10  13
TORSDOF 2
ENDMDL
MODEL 18
REMARK VINA RESULT:      -3.3     15.930     16.315
REMARK  2 active torsions:
REMARK  status: ('A' for Active; 'I' for Inactive)
REMARK    1  A    between atoms: O_1  and  C_2 
REMARK    2  A    between atoms: C_11  and  O_12 
ROOT
HETATM    1  C   LIG     1      26.071  23.183  22.259  1.00  0.00     0.124 A 
HETATM    2  C   LIG     1      24.904  22.528  22.708  1.00  0.00     0.093 A 
HETATM    3 CL   LIG     1      24.685  22.169  24.423  1.00  0.00    -0.079 Cl
HETATM    4  C   LIG     1      23.906  22.154  21.792  1.00  0.00     0.082 A 
HETATM    5 CL   LIG     1      22.447  21.335  22.358  1.00  0.00    -0.081 Cl
HETATM    6  C   LIG     1      24.067  22.432  20.427  1.00  0.00     0.082 A 
HETATM    7 CL   LIG     1      22.814  21.964  19.275  1.00  0.00    -0.081 Cl
HETATM    8  C   LIG     1      25.225  23.083  19.976  1.00  0.00     0.093 A 
HETATM    9 CL   LIG     1      25.434  23.436  18.260  1.00  0.00    -0.079 Cl
HETATM   10  C   LIG     1      26.233  23.462  20.879  1.00  0.00     0.126 A 
ENDROOT
BRANCH   1  11
HETATM   11  O   LIG     1      27.063  23.553  23.168  1.00  0.00    -0.356 OA
HETATM   12  H   LIG     1      26.878  23.787  24.135  1.00  0.00     0.218 HD
ENDBRANCH   1  11
BRANCH  10  13
HETATM   13  O   LIG     1      27.363  24.111  20.341  1.00  0.00    -0.351 OA
HETATM   14  C   LIG     1      27.601  25.513  20.305  1.00  0.00     0.210 C 
ENDBRANCH  10  13
TORSDOF 2
ENDMDL
MODEL 19
REMARK VINA RESULT:      -3.2     16.557     17.599
REMARK  2 active torsions:
REMARK  status: ('A' for Active; 'I' for Inactive)
REMARK    1  A    between atoms: O_1  and  C_2 
REMARK    2  A    between atoms: C_11  and  O_12 
ROOT
HETATM    1  C   LIG     1      23.736  21.943  19.305  1.00  0.00     0.124 A 
HETATM    2  C   LIG     1      23.567  22.335  20.650  1.00  0.00     0.093 A 
HETATM    3 CL   LIG     1      22.008  22.944  21.215  1.00  0.00    -0.079 Cl
HETATM    4  C   LIG     1      24.640  22.244  21.553  1.00  0.00     0.082 A 
HETATM    5 CL   LIG     1      24.425  22.735  23.236  1.00  0.00    -0.081 Cl
HETATM    6  C   LIG     1      25.883  21.762  21.119  1.00  0.00     0.082 A 
HETATM    7 CL   LIG     1      27.233  21.647  22.252  1.00  0.00    -0.081 Cl
HETATM    8  C   LIG     1      26.056  21.372  19.782  1.00  0.00     0.093 A 
HETATM    9 CL   LIG     1      27.618  20.765  19.228  1.00  0.00    -0.079 Cl
HETATM   10  C   LIG     1      24.993  21.458  18.867  1.00  0.00     0.126 A 
ENDROOT
BRANCH   1  11
HETATM   11  O   LIG     1      22.670  22.034  18.407  1.00  0.00    -0.356 OA
HETATM   12  H   LIG     1      22.670  22.641  17.597  1.00  0.00     0.218 HD
ENDBRANCH   1  11
BRANCH  10  13
HETATM   13  O   LIG     1      25.253  21.045  17.544  1.00  0.00    -0.351 OA
HETATM   14  C   LIG     1      25.014  19.754  16.994  1.00  0.00     0.210 C 
ENDBRANCH  10  13
TORSDOF 2
ENDMDL
MODEL 20
REMARK VINA RESULT:      -3.2     15.880     16.571
REMARK  2 active torsions:
REMARK  status: ('A' for Active; 'I' for Inactive)
REMARK    1  A    between atoms: O_1  and  C_2 
REMARK    2  A    between atoms: C_11  and  O_12 
ROOT
HETATM    1  C   LIG     1      25.235  23.088  19.916  1.00  0.00     0.124 A 
HETATM    2  C   LIG     1      24.105  22.382  20.383  1.00  0.00     0.093 A 
HETATM    3 CL   LIG     1      22.850  21.858  19.257  1.00  0.00    -0.079 Cl
HETATM    4  C   LIG     1      23.970  22.091  21.751  1.00  0.00     0.082 A 
HETATM    5 CL   LIG     1      22.556  21.207  22.333  1.00  0.00    -0.081 Cl
HETATM    6  C   LIG     1      24.960  22.501  22.657  1.00  0.00     0.082 A 
HETATM    7 CL   LIG     1      24.792  22.135  24.376  1.00  0.00    -0.081 Cl
HETATM    8  C   LIG     1      26.084  23.203  22.197  1.00  0.00     0.093 A 
HETATM    9 CL   LIG     1      27.332  23.722  23.330  1.00  0.00    -0.079 Cl
HETATM   10  C   LIG     1      26.233  23.503  20.832  1.00  0.00     0.126 A 
ENDROOT
BRANCH   1  11
HETATM   11  O   LIG     1      25.368  23.379  18.557  1.00  0.00    -0.356 OA
HETATM   12  H   LIG     1      25.010  22.786  17.819  1.00  0.00     0.218 HD
ENDBRANCH   1  11
BRANCH  10  13
HETATM   13  O   LIG     1      27.392  24.211  20.455  1.00  0.00    -0.351 OA
HETATM   14  C   LIG     1      27.506  25.617  20.268  1.00  0.00     0.210 C 
ENDBRANCH  10  13
TORSDOF 2
ENDMDL
