REMARK  2 active torsions:
REMARK  status: ('A' for Active; 'I' for Inactive)
REMARK    1  A    between atoms: O_1  and  C_2 
REMARK    2  A    between atoms: C_11  and  O_12 
ROOT
HETATM    1  C   LIG     1      -0.006  -0.775   0.224  1.00  0.00     0.124 A 
HETATM    2  C   LIG     1      -1.356  -1.180   0.299  1.00  0.00     0.093 A 
HETATM    3 CL   LIG     1      -1.769  -2.833   0.763  1.00  0.00    -0.079 Cl
HETATM    4  C   LIG     1      -2.385  -0.269   0.004  1.00  0.00     0.082 A 
HETATM    5 CL   LIG     1      -4.073  -0.779   0.099  1.00  0.00    -0.081 Cl
HETATM    6  C   LIG     1      -2.072   1.047  -0.366  1.00  0.00     0.082 A 
HETATM    7 CL   LIG     1      -3.363   2.193  -0.737  1.00  0.00    -0.081 Cl
HETATM    8  C   LIG     1      -0.731   1.454  -0.442  1.00  0.00     0.093 A 
HETATM    9 CL   LIG     1      -0.330   3.108  -0.907  1.00  0.00    -0.079 Cl
HETATM   10  C   LIG     1       0.309   0.555  -0.151  1.00  0.00     0.126 A 
ENDROOT
BRANCH   1  11
HETATM   11  O   LIG     1       1.016  -1.680   0.516  1.00  0.00    -0.356 OA
HETATM   12  H   LIG     1       0.853  -2.641   0.788  1.00  0.00     0.218 HD
ENDBRANCH   1  11
BRANCH  10  13
HETATM   13  O   LIG     1       1.626   1.046  -0.252  1.00  0.00    -0.351 OA
HETATM   14  C   LIG     1       2.825   0.321  -0.005  1.00  0.00     0.210 C 
ENDBRANCH  10  13
TORSDOF 2
