REMARK  0 active torsions:
REMARK  status: ('A' for Active; 'I' for Inactive)
ROOT
HETATM    1  C   LIG     1       1.240  -0.499   0.267  1.00  0.00    -0.006 A 
HETATM    2  C   LIG     1       2.500  -1.042   0.559  1.00  0.00     0.014 A 
HETATM    3  C   LIG     1       3.660  -0.382   0.140  1.00  0.00     0.001 A 
HETATM    4  C   LIG     1       3.568   0.819  -0.572  1.00  0.00     0.002 A 
HETATM    5  C   LIG     1       2.317   1.367  -0.868  1.00  0.00     0.032 A 
HETATM    6  C   LIG     1       1.150   0.715  -0.452  1.00  0.00     0.067 A 
HETATM    7  N   LIG     1      -0.068   1.248  -0.740  1.00  0.00    -0.248 NA
HETATM    8  C   LIG     1      -1.224   0.644  -0.354  1.00  0.00     0.067 A 
HETATM    9  C   LIG     1      -1.181  -0.571   0.367  1.00  0.00    -0.006 A 
HETATM   10  C   LIG     1      -2.379  -1.187   0.762  1.00  0.00     0.014 A 
HETATM   11  C   LIG     1      -3.607  -0.598   0.441  1.00  0.00     0.001 A 
HETATM   12  C   LIG     1      -3.646   0.604  -0.272  1.00  0.00     0.002 A 
HETATM   13  C   LIG     1      -2.458   1.225  -0.669  1.00  0.00     0.032 A 
HETATM   14  C   LIG     1       0.062  -1.139   0.675  1.00  0.00     0.027 A 
ENDROOT
TORSDOF 0
