MODEL 1
REMARK VINA RESULT:      -7.2      0.000      0.000
REMARK  0 active torsions:
REMARK  status: ('A' for Active; 'I' for Inactive)
ROOT
HETATM    1  C   LIG     1      17.537  36.293  22.786  1.00  0.00    -0.006 A 
HETATM    2  C   LIG     1      17.104  35.240  23.605  1.00  0.00     0.014 A 
HETATM    3  C   LIG     1      16.950  35.442  24.981  1.00  0.00     0.001 A 
HETATM    4  C   LIG     1      17.227  36.692  25.544  1.00  0.00     0.002 A 
HETATM    5  C   LIG     1      17.659  37.747  24.736  1.00  0.00     0.032 A 
HETATM    6  C   LIG     1      17.816  37.556  23.358  1.00  0.00     0.067 A 
HETATM    7  N   LIG     1      18.237  38.583  22.571  1.00  0.00    -0.248 NA
HETATM    8  C   LIG     1      18.401  38.436  21.229  1.00  0.00     0.067 A 
HETATM    9  C   LIG     1      18.134  37.191  20.615  1.00  0.00    -0.006 A 
HETATM   10  C   LIG     1      18.306  37.048  19.229  1.00  0.00     0.014 A 
HETATM   11  C   LIG     1      18.741  38.136  18.463  1.00  0.00     0.001 A 
HETATM   12  C   LIG     1      19.005  39.366  19.073  1.00  0.00     0.002 A 
HETATM   13  C   LIG     1      18.835  39.517  20.453  1.00  0.00     0.032 A 
HETATM   14  C   LIG     1      17.700  36.119  21.405  1.00  0.00     0.027 A 
ENDROOT
TORSDOF 0
ENDMDL
MODEL 2
REMARK VINA RESULT:      -7.2      0.011      4.831
REMARK  0 active torsions:
REMARK  status: ('A' for Active; 'I' for Inactive)
ROOT
HETATM    1  C   LIG     1      18.142  37.193  20.612  1.00  0.00    -0.006 A 
HETATM    2  C   LIG     1      18.313  37.049  19.227  1.00  0.00     0.014 A 
HETATM    3  C   LIG     1      18.743  38.137  18.460  1.00  0.00     0.001 A 
HETATM    4  C   LIG     1      19.003  39.369  19.069  1.00  0.00     0.002 A 
HETATM    5  C   LIG     1      18.834  39.522  20.448  1.00  0.00     0.032 A 
HETATM    6  C   LIG     1      18.405  38.439  21.225  1.00  0.00     0.067 A 
HETATM    7  N   LIG     1      18.241  38.587  22.567  1.00  0.00    -0.248 NA
HETATM    8  C   LIG     1      17.824  37.559  23.356  1.00  0.00     0.067 A 
HETATM    9  C   LIG     1      17.550  36.296  22.785  1.00  0.00    -0.006 A 
HETATM   10  C   LIG     1      17.121  35.241  23.606  1.00  0.00     0.014 A 
HETATM   11  C   LIG     1      16.968  35.444  24.982  1.00  0.00     0.001 A 
HETATM   12  C   LIG     1      17.241  36.695  25.544  1.00  0.00     0.002 A 
HETATM   13  C   LIG     1      17.668  37.751  24.734  1.00  0.00     0.032 A 
HETATM   14  C   LIG     1      17.712  36.120  21.405  1.00  0.00     0.027 A 
ENDROOT
TORSDOF 0
ENDMDL
MODEL 3
REMARK VINA RESULT:      -7.2      0.809      2.118
REMARK  0 active torsions:
REMARK  status: ('A' for Active; 'I' for Inactive)
ROOT
HETATM    1  C   LIG     1      17.817  37.628  23.404  1.00  0.00    -0.006 A 
HETATM    2  C   LIG     1      17.636  37.794  24.785  1.00  0.00     0.014 A 
HETATM    3  C   LIG     1      17.217  36.715  25.570  1.00  0.00     0.001 A 
HETATM    4  C   LIG     1      16.976  35.469  24.982  1.00  0.00     0.002 A 
HETATM    5  C   LIG     1      17.153  35.294  23.607  1.00  0.00     0.032 A 
HETATM    6  C   LIG     1      17.574  36.367  22.812  1.00  0.00     0.067 A 
HETATM    7  N   LIG     1      17.747  36.197  21.473  1.00  0.00    -0.248 NA
HETATM    8  C   LIG     1      18.153  37.216  20.668  1.00  0.00     0.067 A 
HETATM    9  C   LIG     1      18.408  38.493  21.217  1.00  0.00    -0.006 A 
HETATM   10  C   LIG     1      18.827  39.538  20.379  1.00  0.00     0.014 A 
HETATM   11  C   LIG     1      18.990  39.312  19.008  1.00  0.00     0.001 A 
HETATM   12  C   LIG     1      18.737  38.047  18.468  1.00  0.00     0.002 A 
HETATM   13  C   LIG     1      18.320  37.001  19.295  1.00  0.00     0.032 A 
HETATM   14  C   LIG     1      18.237  38.692  22.594  1.00  0.00     0.027 A 
ENDROOT
TORSDOF 0
ENDMDL
MODEL 4
REMARK VINA RESULT:      -7.2      0.807      5.275
REMARK  0 active torsions:
REMARK  status: ('A' for Active; 'I' for Inactive)
ROOT
HETATM    1  C   LIG     1      18.413  38.498  21.252  1.00  0.00    -0.006 A 
HETATM    2  C   LIG     1      18.833  39.546  20.420  1.00  0.00     0.014 A 
HETATM    3  C   LIG     1      18.993  39.328  19.047  1.00  0.00     0.001 A 
HETATM    4  C   LIG     1      18.735  38.066  18.501  1.00  0.00     0.002 A 
HETATM    5  C   LIG     1      18.316  37.016  19.322  1.00  0.00     0.032 A 
HETATM    6  C   LIG     1      18.152  37.224  20.697  1.00  0.00     0.067 A 
HETATM    7  N   LIG     1      17.745  36.202  21.497  1.00  0.00    -0.248 NA
HETATM    8  C   LIG     1      17.575  36.365  22.837  1.00  0.00     0.067 A 
HETATM    9  C   LIG     1      17.824  37.622  23.434  1.00  0.00    -0.006 A 
HETATM   10  C   LIG     1      17.646  37.781  24.817  1.00  0.00     0.014 A 
HETATM   11  C   LIG     1      17.225  36.698  25.597  1.00  0.00     0.001 A 
HETATM   12  C   LIG     1      16.979  35.457  25.003  1.00  0.00     0.002 A 
HETATM   13  C   LIG     1      17.153  35.289  23.626  1.00  0.00     0.032 A 
HETATM   14  C   LIG     1      18.245  38.689  22.630  1.00  0.00     0.027 A 
ENDROOT
TORSDOF 0
ENDMDL
MODEL 5
REMARK VINA RESULT:      -6.2      4.236      5.464
REMARK  0 active torsions:
REMARK  status: ('A' for Active; 'I' for Inactive)
ROOT
HETATM    1  C   LIG     1      16.070  34.401  20.996  1.00  0.00    -0.006 A 
HETATM    2  C   LIG     1      16.424  34.633  22.334  1.00  0.00     0.014 A 
HETATM    3  C   LIG     1      17.021  35.844  22.699  1.00  0.00     0.001 A 
HETATM    4  C   LIG     1      17.270  36.825  21.733  1.00  0.00     0.002 A 
HETATM    5  C   LIG     1      16.921  36.602  20.398  1.00  0.00     0.032 A 
HETATM    6  C   LIG     1      16.321  35.394  20.022  1.00  0.00     0.067 A 
HETATM    7  N   LIG     1      15.982  35.177  18.723  1.00  0.00    -0.248 NA
HETATM    8  C   LIG     1      15.398  34.016  18.319  1.00  0.00     0.067 A 
HETATM    9  C   LIG     1      15.128  32.996  19.259  1.00  0.00    -0.006 A 
HETATM   10  C   LIG     1      14.525  31.802  18.834  1.00  0.00     0.014 A 
HETATM   11  C   LIG     1      14.195  31.627  17.485  1.00  0.00     0.001 A 
HETATM   12  C   LIG     1      14.463  32.638  16.558  1.00  0.00     0.002 A 
HETATM   13  C   LIG     1      15.063  33.831  16.973  1.00  0.00     0.032 A 
HETATM   14  C   LIG     1      15.469  33.197  20.603  1.00  0.00     0.027 A 
ENDROOT
TORSDOF 0
ENDMDL
MODEL 6
REMARK VINA RESULT:      -6.2      2.279      3.595
REMARK  0 active torsions:
REMARK  status: ('A' for Active; 'I' for Inactive)
ROOT
HETATM    1  C   LIG     1      16.116  35.714  21.475  1.00  0.00    -0.006 A 
HETATM    2  C   LIG     1      15.129  34.936  22.097  1.00  0.00     0.014 A 
HETATM    3  C   LIG     1      14.616  33.808  21.448  1.00  0.00     0.001 A 
HETATM    4  C   LIG     1      15.084  33.453  20.178  1.00  0.00     0.002 A 
HETATM    5  C   LIG     1      16.067  34.223  19.550  1.00  0.00     0.032 A 
HETATM    6  C   LIG     1      16.587  35.353  20.192  1.00  0.00     0.067 A 
HETATM    7  N   LIG     1      17.544  36.103  19.581  1.00  0.00    -0.248 NA
HETATM    8  C   LIG     1      18.073  37.208  20.171  1.00  0.00     0.067 A 
HETATM    9  C   LIG     1      17.632  37.606  21.453  1.00  0.00    -0.006 A 
HETATM   10  C   LIG     1      18.184  38.747  22.055  1.00  0.00     0.014 A 
HETATM   11  C   LIG     1      19.167  39.485  21.385  1.00  0.00     0.001 A 
HETATM   12  C   LIG     1      19.601  39.089  20.117  1.00  0.00     0.002 A 
HETATM   13  C   LIG     1      19.057  37.953  19.510  1.00  0.00     0.032 A 
HETATM   14  C   LIG     1      16.647  36.849  22.102  1.00  0.00     0.027 A 
ENDROOT
TORSDOF 0
ENDMDL
MODEL 7
REMARK VINA RESULT:      -6.2      4.217      6.126
REMARK  0 active torsions:
REMARK  status: ('A' for Active; 'I' for Inactive)
ROOT
HETATM    1  C   LIG     1      15.132  33.038  19.221  1.00  0.00    -0.006 A 
HETATM    2  C   LIG     1      14.521  31.853  18.783  1.00  0.00     0.014 A 
HETATM    3  C   LIG     1      14.201  31.691  17.432  1.00  0.00     0.001 A 
HETATM    4  C   LIG     1      14.486  32.707  16.513  1.00  0.00     0.002 A 
HETATM    5  C   LIG     1      15.093  33.891  16.941  1.00  0.00     0.032 A 
HETATM    6  C   LIG     1      15.420  34.063  18.291  1.00  0.00     0.067 A 
HETATM    7  N   LIG     1      16.011  35.215  18.708  1.00  0.00    -0.248 NA
HETATM    8  C   LIG     1      16.342  35.420  20.011  1.00  0.00     0.067 A 
HETATM    9  C   LIG     1      16.073  34.422  20.975  1.00  0.00    -0.006 A 
HETATM   10  C   LIG     1      16.419  34.642  22.318  1.00  0.00     0.014 A 
HETATM   11  C   LIG     1      17.026  35.845  22.696  1.00  0.00     0.001 A 
HETATM   12  C   LIG     1      17.291  36.830  21.740  1.00  0.00     0.002 A 
HETATM   13  C   LIG     1      16.951  36.619  20.400  1.00  0.00     0.032 A 
HETATM   14  C   LIG     1      15.464  33.227  20.570  1.00  0.00     0.027 A 
ENDROOT
TORSDOF 0
ENDMDL
MODEL 8
REMARK VINA RESULT:      -6.2      2.219      4.878
REMARK  0 active torsions:
REMARK  status: ('A' for Active; 'I' for Inactive)
ROOT
HETATM    1  C   LIG     1      17.791  37.753  21.305  1.00  0.00    -0.006 A 
HETATM    2  C   LIG     1      18.387  38.907  21.834  1.00  0.00     0.014 A 
HETATM    3  C   LIG     1      19.404  39.556  21.126  1.00  0.00     0.001 A 
HETATM    4  C   LIG     1      19.830  39.057  19.890  1.00  0.00     0.002 A 
HETATM    5  C   LIG     1      19.242  37.907  19.356  1.00  0.00     0.032 A 
HETATM    6  C   LIG     1      18.223  37.250  20.056  1.00  0.00     0.067 A 
HETATM    7  N   LIG     1      17.651  36.131  19.536  1.00  0.00    -0.248 NA
HETATM    8  C   LIG     1      16.659  35.465  20.187  1.00  0.00     0.067 A 
HETATM    9  C   LIG     1      16.196  35.932  21.438  1.00  0.00    -0.006 A 
HETATM   10  C   LIG     1      15.171  35.239  22.102  1.00  0.00     0.014 A 
HETATM   11  C   LIG     1      14.615  34.092  21.525  1.00  0.00     0.001 A 
HETATM   12  C   LIG     1      15.075  33.633  20.287  1.00  0.00     0.002 A 
HETATM   13  C   LIG     1      16.095  34.317  19.618  1.00  0.00     0.032 A 
HETATM   14  C   LIG     1      16.770  37.083  21.993  1.00  0.00     0.027 A 
ENDROOT
TORSDOF 0
ENDMDL
MODEL 9
REMARK VINA RESULT:      -6.2      9.258     11.058
REMARK  0 active torsions:
REMARK  status: ('A' for Active; 'I' for Inactive)
ROOT
HETATM    1  C   LIG     1      13.836  29.438  14.652  1.00  0.00    -0.006 A 
HETATM    2  C   LIG     1      13.018  28.341  14.344  1.00  0.00     0.014 A 
HETATM    3  C   LIG     1      13.493  27.329  13.503  1.00  0.00     0.001 A 
HETATM    4  C   LIG     1      14.782  27.408  12.966  1.00  0.00     0.002 A 
HETATM    5  C   LIG     1      15.604  28.498  13.266  1.00  0.00     0.032 A 
HETATM    6  C   LIG     1      15.139  29.515  14.108  1.00  0.00     0.067 A 
HETATM    7  N   LIG     1      15.938  30.576  14.401  1.00  0.00    -0.248 NA
HETATM    8  C   LIG     1      15.522  31.584  15.214  1.00  0.00     0.067 A 
HETATM    9  C   LIG     1      14.227  31.548  15.780  1.00  0.00    -0.006 A 
HETATM   10  C   LIG     1      13.806  32.593  16.618  1.00  0.00     0.014 A 
HETATM   11  C   LIG     1      14.667  33.662  16.889  1.00  0.00     0.001 A 
HETATM   12  C   LIG     1      15.947  33.695  16.328  1.00  0.00     0.002 A 
HETATM   13  C   LIG     1      16.375  32.659  15.492  1.00  0.00     0.032 A 
HETATM   14  C   LIG     1      13.386  30.466  15.493  1.00  0.00     0.027 A 
ENDROOT
TORSDOF 0
ENDMDL
MODEL 10
REMARK VINA RESULT:      -6.1      2.363      3.555
REMARK  0 active torsions:
REMARK  status: ('A' for Active; 'I' for Inactive)
ROOT
HETATM    1  C   LIG     1      17.662  36.770  24.151  1.00  0.00    -0.006 A 
HETATM    2  C   LIG     1      18.240  37.662  25.067  1.00  0.00     0.014 A 
HETATM    3  C   LIG     1      18.434  37.271  26.396  1.00  0.00     0.001 A 
HETATM    4  C   LIG     1      18.052  35.993  26.817  1.00  0.00     0.002 A 
HETATM    5  C   LIG     1      17.475  35.098  25.912  1.00  0.00     0.032 A 
HETATM    6  C   LIG     1      17.277  35.478  24.579  1.00  0.00     0.067 A 
HETATM    7  N   LIG     1      16.715  34.607  23.698  1.00  0.00    -0.248 NA
HETATM    8  C   LIG     1      16.506  34.940  22.396  1.00  0.00     0.067 A 
HETATM    9  C   LIG     1      16.876  36.221  21.925  1.00  0.00    -0.006 A 
HETATM   10  C   LIG     1      16.657  36.556  20.579  1.00  0.00     0.014 A 
HETATM   11  C   LIG     1      16.075  35.624  19.713  1.00  0.00     0.001 A 
HETATM   12  C   LIG     1      15.711  34.358  20.182  1.00  0.00     0.002 A 
HETATM   13  C   LIG     1      15.926  34.015  21.520  1.00  0.00     0.032 A 
HETATM   14  C   LIG     1      17.456  37.135  22.814  1.00  0.00     0.027 A 
ENDROOT
TORSDOF 0
ENDMDL
MODEL 11
REMARK VINA RESULT:      -6.1      9.344     11.065
REMARK  0 active torsions:
REMARK  status: ('A' for Active; 'I' for Inactive)
ROOT
HETATM    1  C   LIG     1      14.173  31.437  15.769  1.00  0.00    -0.006 A 
HETATM    2  C   LIG     1      13.726  32.459  16.619  1.00  0.00     0.014 A 
HETATM    3  C   LIG     1      14.564  33.539  16.915  1.00  0.00     0.001 A 
HETATM    4  C   LIG     1      15.850  33.603  16.368  1.00  0.00     0.002 A 
HETATM    5  C   LIG     1      16.304  32.588  15.520  1.00  0.00     0.032 A 
HETATM    6  C   LIG     1      15.473  31.504  15.216  1.00  0.00     0.067 A 
HETATM    7  N   LIG     1      15.914  30.516  14.392  1.00  0.00    -0.248 NA
HETATM    8  C   LIG     1      15.136  29.447  14.074  1.00  0.00     0.067 A 
HETATM    9  C   LIG     1      13.830  29.339  14.604  1.00  0.00    -0.006 A 
HETATM   10  C   LIG     1      13.034  28.233  14.269  1.00  0.00     0.014 A 
HETATM   11  C   LIG     1      13.535  27.243  13.416  1.00  0.00     0.001 A 
HETATM   12  C   LIG     1      14.827  27.352  12.894  1.00  0.00     0.002 A 
HETATM   13  C   LIG     1      15.627  28.452  13.220  1.00  0.00     0.032 A 
HETATM   14  C   LIG     1      13.354  30.344  15.455  1.00  0.00     0.027 A 
ENDROOT
TORSDOF 0
ENDMDL
MODEL 12
REMARK VINA RESULT:      -6.1      2.370      5.283
REMARK  0 active torsions:
REMARK  status: ('A' for Active; 'I' for Inactive)
ROOT
HETATM    1  C   LIG     1      16.884  36.210  21.943  1.00  0.00    -0.006 A 
HETATM    2  C   LIG     1      16.657  36.530  20.596  1.00  0.00     0.014 A 
HETATM    3  C   LIG     1      16.071  35.589  19.743  1.00  0.00     0.001 A 
HETATM    4  C   LIG     1      15.713  34.326  20.228  1.00  0.00     0.002 A 
HETATM    5  C   LIG     1      15.936  33.998  21.568  1.00  0.00     0.032 A 
HETATM    6  C   LIG     1      16.520  34.934  22.431  1.00  0.00     0.067 A 
HETATM    7  N   LIG     1      16.738  34.615  23.735  1.00  0.00    -0.248 NA
HETATM    8  C   LIG     1      17.303  35.496  24.603  1.00  0.00     0.067 A 
HETATM    9  C   LIG     1      17.682  36.783  24.159  1.00  0.00    -0.006 A 
HETATM   10  C   LIG     1      18.265  37.687  25.062  1.00  0.00     0.014 A 
HETATM   11  C   LIG     1      18.468  37.310  26.394  1.00  0.00     0.001 A 
HETATM   12  C   LIG     1      18.091  36.037  26.831  1.00  0.00     0.002 A 
HETATM   13  C   LIG     1      17.510  35.131  25.939  1.00  0.00     0.032 A 
HETATM   14  C   LIG     1      17.468  37.134  22.820  1.00  0.00     0.027 A 
ENDROOT
TORSDOF 0
ENDMDL
MODEL 13
REMARK VINA RESULT:      -6.0      2.034      4.967
REMARK  0 active torsions:
REMARK  status: ('A' for Active; 'I' for Inactive)
ROOT
HETATM    1  C   LIG     1      16.657  35.024  22.459  1.00  0.00    -0.006 A 
HETATM    2  C   LIG     1      16.098  34.150  21.515  1.00  0.00     0.014 A 
HETATM    3  C   LIG     1      15.911  34.573  20.195  1.00  0.00     0.001 A 
HETATM    4  C   LIG     1      16.279  35.868  19.812  1.00  0.00     0.002 A 
HETATM    5  C   LIG     1      16.836  36.746  20.746  1.00  0.00     0.032 A 
HETATM    6  C   LIG     1      17.028  36.331  22.069  1.00  0.00     0.067 A 
HETATM    7  N   LIG     1      17.570  37.186  22.979  1.00  0.00    -0.248 NA
HETATM    8  C   LIG     1      17.772  36.821  24.274  1.00  0.00     0.067 A 
HETATM    9  C   LIG     1      17.415  35.523  24.707  1.00  0.00    -0.006 A 
HETATM   10  C   LIG     1      17.628  35.155  26.045  1.00  0.00     0.014 A 
HETATM   11  C   LIG     1      18.188  36.071  26.941  1.00  0.00     0.001 A 
HETATM   12  C   LIG     1      18.540  37.353  26.510  1.00  0.00     0.002 A 
HETATM   13  C   LIG     1      18.333  37.729  25.179  1.00  0.00     0.032 A 
HETATM   14  C   LIG     1      16.855  34.626  23.788  1.00  0.00     0.027 A 
ENDROOT
TORSDOF 0
ENDMDL
MODEL 14
REMARK VINA RESULT:      -5.9      2.047      2.990
REMARK  0 active torsions:
REMARK  status: ('A' for Active; 'I' for Inactive)
ROOT
HETATM    1  C   LIG     1      17.391  35.546  24.667  1.00  0.00    -0.006 A 
HETATM    2  C   LIG     1      17.603  35.201  26.010  1.00  0.00     0.014 A 
HETATM    3  C   LIG     1      18.181  36.125  26.886  1.00  0.00     0.001 A 
HETATM    4  C   LIG     1      18.550  37.394  26.427  1.00  0.00     0.002 A 
HETATM    5  C   LIG     1      18.343  37.746  25.091  1.00  0.00     0.032 A 
HETATM    6  C   LIG     1      17.764  36.829  24.206  1.00  0.00     0.067 A 
HETATM    7  N   LIG     1      17.563  37.171  22.905  1.00  0.00    -0.248 NA
HETATM    8  C   LIG     1      17.004  36.308  22.015  1.00  0.00     0.067 A 
HETATM    9  C   LIG     1      16.615  35.014  22.432  1.00  0.00    -0.006 A 
HETATM   10  C   LIG     1      16.039  34.130  21.507  1.00  0.00     0.014 A 
HETATM   11  C   LIG     1      15.853  34.530  20.179  1.00  0.00     0.001 A 
HETATM   12  C   LIG     1      16.238  35.810  19.770  1.00  0.00     0.002 A 
HETATM   13  C   LIG     1      16.813  36.698  20.684  1.00  0.00     0.032 A 
HETATM   14  C   LIG     1      16.813  34.639  23.767  1.00  0.00     0.027 A 
ENDROOT
TORSDOF 0
ENDMDL
MODEL 15
REMARK VINA RESULT:      -5.7      8.455      9.824
REMARK  0 active torsions:
REMARK  status: ('A' for Active; 'I' for Inactive)
ROOT
HETATM    1  C   LIG     1      14.953  31.825  15.533  1.00  0.00    -0.006 A 
HETATM    2  C   LIG     1      14.013  31.547  16.537  1.00  0.00     0.014 A 
HETATM    3  C   LIG     1      13.118  30.484  16.383  1.00  0.00     0.001 A 
HETATM    4  C   LIG     1      13.156  29.695  15.228  1.00  0.00     0.002 A 
HETATM    5  C   LIG     1      14.088  29.964  14.222  1.00  0.00     0.032 A 
HETATM    6  C   LIG     1      14.989  31.026  14.368  1.00  0.00     0.067 A 
HETATM    7  N   LIG     1      15.896  31.288  13.389  1.00  0.00    -0.248 NA
HETATM    8  C   LIG     1      16.787  32.311  13.493  1.00  0.00     0.067 A 
HETATM    9  C   LIG     1      16.787  33.135  14.642  1.00  0.00    -0.006 A 
HETATM   10  C   LIG     1      17.710  34.188  14.741  1.00  0.00     0.014 A 
HETATM   11  C   LIG     1      18.624  34.416  13.706  1.00  0.00     0.001 A 
HETATM   12  C   LIG     1      18.622  33.599  12.572  1.00  0.00     0.002 A 
HETATM   13  C   LIG     1      17.706  32.548  12.464  1.00  0.00     0.032 A 
HETATM   14  C   LIG     1      15.861  32.884  15.663  1.00  0.00     0.027 A 
ENDROOT
TORSDOF 0
ENDMDL
MODEL 16
REMARK VINA RESULT:      -5.7      8.444     10.625
REMARK  0 active torsions:
REMARK  status: ('A' for Active; 'I' for Inactive)
ROOT
HETATM    1  C   LIG     1      16.819  33.187  14.615  1.00  0.00    -0.006 A 
HETATM    2  C   LIG     1      17.729  34.251  14.698  1.00  0.00     0.014 A 
HETATM    3  C   LIG     1      18.635  34.478  13.657  1.00  0.00     0.001 A 
HETATM    4  C   LIG     1      18.639  33.646  12.533  1.00  0.00     0.002 A 
HETATM    5  C   LIG     1      17.736  32.583  12.442  1.00  0.00     0.032 A 
HETATM    6  C   LIG     1      16.824  32.348  13.477  1.00  0.00     0.067 A 
HETATM    7  N   LIG     1      15.945  31.313  13.389  1.00  0.00    -0.248 NA
HETATM    8  C   LIG     1      15.045  31.051  14.374  1.00  0.00     0.067 A 
HETATM    9  C   LIG     1      15.004  31.865  15.530  1.00  0.00    -0.006 A 
HETATM   10  C   LIG     1      14.071  31.588  16.541  1.00  0.00     0.014 A 
HETATM   11  C   LIG     1      13.188  30.512  16.403  1.00  0.00     0.001 A 
HETATM   12  C   LIG     1      13.231  29.709  15.259  1.00  0.00     0.002 A 
HETATM   13  C   LIG     1      14.156  29.977  14.246  1.00  0.00     0.032 A 
HETATM   14  C   LIG     1      15.900  32.936  15.643  1.00  0.00     0.027 A 
ENDROOT
TORSDOF 0
ENDMDL
MODEL 17
REMARK VINA RESULT:      -5.6      2.613      4.528
REMARK  0 active torsions:
REMARK  status: ('A' for Active; 'I' for Inactive)
ROOT
HETATM    1  C   LIG     1      15.893  34.506  21.237  1.00  0.00    -0.006 A 
HETATM    2  C   LIG     1      15.254  33.267  21.076  1.00  0.00     0.014 A 
HETATM    3  C   LIG     1      14.977  32.785  19.793  1.00  0.00     0.001 A 
HETATM    4  C   LIG     1      15.334  33.535  18.667  1.00  0.00     0.002 A 
HETATM    5  C   LIG     1      15.970  34.771  18.818  1.00  0.00     0.032 A 
HETATM    6  C   LIG     1      16.253  35.262  20.098  1.00  0.00     0.067 A 
HETATM    7  N   LIG     1      16.872  36.464  20.245  1.00  0.00    -0.248 NA
HETATM    8  C   LIG     1      17.162  36.975  21.472  1.00  0.00     0.067 A 
HETATM    9  C   LIG     1      16.820  36.253  22.638  1.00  0.00    -0.006 A 
HETATM   10  C   LIG     1      17.125  36.788  23.900  1.00  0.00     0.014 A 
HETATM   11  C   LIG     1      17.763  38.030  23.998  1.00  0.00     0.001 A 
HETATM   12  C   LIG     1      18.100  38.741  22.842  1.00  0.00     0.002 A 
HETATM   13  C   LIG     1      17.801  38.216  21.581  1.00  0.00     0.032 A 
HETATM   14  C   LIG     1      16.182  35.013  22.511  1.00  0.00     0.027 A 
ENDROOT
TORSDOF 0
ENDMDL
MODEL 18
REMARK VINA RESULT:      -5.6      3.311      4.625
REMARK  0 active torsions:
REMARK  status: ('A' for Active; 'I' for Inactive)
ROOT
HETATM    1  C   LIG     1      16.691  36.179  21.233  1.00  0.00    -0.006 A 
HETATM    2  C   LIG     1      17.206  37.406  21.677  1.00  0.00     0.014 A 
HETATM    3  C   LIG     1      17.502  37.591  23.031  1.00  0.00     0.001 A 
HETATM    4  C   LIG     1      17.284  36.556  23.947  1.00  0.00     0.002 A 
HETATM    5  C   LIG     1      16.771  35.330  23.513  1.00  0.00     0.032 A 
HETATM    6  C   LIG     1      16.473  35.134  22.160  1.00  0.00     0.067 A 
HETATM    7  N   LIG     1      15.973  33.942  21.737  1.00  0.00    -0.248 NA
HETATM    8  C   LIG     1      15.671  33.714  20.431  1.00  0.00     0.067 A 
HETATM    9  C   LIG     1      15.873  34.730  19.470  1.00  0.00    -0.006 A 
HETATM   10  C   LIG     1      15.558  34.486  18.124  1.00  0.00     0.014 A 
HETATM   11  C   LIG     1      15.047  33.241  17.740  1.00  0.00     0.001 A 
HETATM   12  C   LIG     1      14.848  32.238  18.693  1.00  0.00     0.002 A 
HETATM   13  C   LIG     1      15.159  32.472  20.036  1.00  0.00     0.032 A 
HETATM   14  C   LIG     1      16.386  35.967  19.881  1.00  0.00     0.027 A 
ENDROOT
TORSDOF 0
ENDMDL
MODEL 19
REMARK VINA RESULT:      -5.6     20.393     21.875
REMARK  0 active torsions:
REMARK  status: ('A' for Active; 'I' for Inactive)
ROOT
HETATM    1  C   LIG     1      12.139  18.118  13.241  1.00  0.00    -0.006 A 
HETATM    2  C   LIG     1      10.760  18.011  13.006  1.00  0.00     0.014 A 
HETATM    3  C   LIG     1      10.279  17.933  11.695  1.00  0.00     0.001 A 
HETATM    4  C   LIG     1      11.169  17.964  10.616  1.00  0.00     0.002 A 
HETATM    5  C   LIG     1      12.544  18.071  10.841  1.00  0.00     0.032 A 
HETATM    6  C   LIG     1      13.036  18.148  12.149  1.00  0.00     0.067 A 
HETATM    7  N   LIG     1      14.374  18.253  12.369  1.00  0.00    -0.248 NA
HETATM    8  C   LIG     1      14.891  18.332  13.625  1.00  0.00     0.067 A 
HETATM    9  C   LIG     1      14.031  18.305  14.746  1.00  0.00    -0.006 A 
HETATM   10  C   LIG     1      14.572  18.386  16.039  1.00  0.00     0.014 A 
HETATM   11  C   LIG     1      15.957  18.492  16.211  1.00  0.00     0.001 A 
HETATM   12  C   LIG     1      16.805  18.518  15.100  1.00  0.00     0.002 A 
HETATM   13  C   LIG     1      16.274  18.437  13.809  1.00  0.00     0.032 A 
HETATM   14  C   LIG     1      12.648  18.198  14.544  1.00  0.00     0.027 A 
ENDROOT
TORSDOF 0
ENDMDL
