REMARK  7 active torsions:
REMARK  status: ('A' for Active; 'I' for Inactive)
REMARK    1  A    between atoms: C_2  and  C_18 
REMARK    2  A    between atoms: C_2  and  O_3 
REMARK    3  A    between atoms: O_3  and  C_4 
REMARK    4  A    between atoms: C_4  and  C_5 
REMARK    5  A    between atoms: C_9  and  O_10 
REMARK    6  A    between atoms: O_10  and  C_11 
REMARK    7  A    between atoms: C_19  and  C_20 
ROOT
HETATM    1  C   LIG     1       1.705   0.265  -2.055  1.00  0.00    -0.031 A 
HETATM    2  C   LIG     1       1.257  -0.748  -2.917  1.00  0.00     0.009 A 
HETATM    3  C   LIG     1       1.673  -2.067  -2.727  1.00  0.00     0.003 A 
HETATM    4  C   LIG     1       2.547  -2.384  -1.684  1.00  0.00     0.037 A 
HETATM    5  C   LIG     1       3.022  -1.383  -0.829  1.00  0.00     0.076 A 
HETATM    6  C   LIG     1       2.585  -0.058  -1.010  1.00  0.00     0.046 A 
ENDROOT
BRANCH   1   7
HETATM    7  C   LIG     1       1.217   1.676  -2.241  1.00  0.00     0.217 C 
BRANCH   7   8
HETATM    8  O   LIG     1      -0.181   1.751  -1.973  1.00  0.00    -0.317 OA
BRANCH   8   9
HETATM    9  C   LIG     1      -0.718   1.653  -0.684  1.00  0.00     0.264 C 
HETATM   10  O   LIG     1       0.035   1.627   0.328  1.00  0.00    -0.265 OA
BRANCH   9  11
HETATM   11  C   LIG     1      -2.207   1.636  -0.508  1.00  0.00     0.102 A 
HETATM   12  C   LIG     1      -2.729   0.551   0.445  1.00  0.00     0.031 A 
HETATM   13  C   LIG     1      -2.956   0.417  -1.067  1.00  0.00    -0.027 A 
HETATM   14  C   LIG     1      -4.355   0.707  -1.631  1.00  0.00     0.016 C 
HETATM   15  C   LIG     1      -2.162  -0.714  -1.738  1.00  0.00     0.016 C 
BRANCH  12  16
HETATM   16  C   LIG     1      -3.913   0.972   1.280  1.00  0.00    -0.018 C 
HETATM   17  C   LIG     1      -4.740   0.077   1.861  1.00  0.00    -0.091 C 
HETATM   18  C   LIG     1      -5.914   0.551   2.677  1.00  0.00     0.042 C 
HETATM   19  C   LIG     1      -4.535  -1.407   1.690  1.00  0.00     0.042 C 
ENDBRANCH  12  16
ENDBRANCH   9  11
ENDBRANCH   8   9
ENDBRANCH   7   8
ENDBRANCH   1   7
BRANCH   5  20
HETATM   20  O   LIG     1       3.883  -1.745   0.217  1.00  0.00    -0.311 OA
BRANCH  20  21
HETATM   21  C   LIG     1       4.875  -0.925   0.774  1.00  0.00     0.076 A 
HETATM   22  C   LIG     1       5.567   0.032   0.008  1.00  0.00     0.037 A 
HETATM   23  C   LIG     1       6.563   0.818   0.596  1.00  0.00     0.003 A 
HETATM   24  C   LIG     1       6.884   0.647   1.945  1.00  0.00     0.000 A 
HETATM   25  C   LIG     1       6.213  -0.314   2.707  1.00  0.00     0.003 A 
HETATM   26  C   LIG     1       5.216  -1.101   2.121  1.00  0.00     0.037 A 
ENDBRANCH  20  21
ENDBRANCH   5  20
TORSDOF 7
