REMARK  0 active torsions:
REMARK  status: ('A' for Active; 'I' for Inactive)
ROOT
HETATM    1  C   LIG     1      -1.198   0.673   0.285  1.00  0.00     0.110 A 
HETATM    2  C   LIG     1      -2.388   1.342   0.587  1.00  0.00     0.040 A 
HETATM    3  C   LIG     1      -3.612   0.674   0.471  1.00  0.00     0.003 A 
HETATM    4  C   LIG     1      -3.646  -0.662   0.053  1.00  0.00     0.003 A 
HETATM    5  C   LIG     1      -2.457  -1.334  -0.250  1.00  0.00     0.040 A 
HETATM    6  C   LIG     1      -1.232  -0.669  -0.136  1.00  0.00     0.110 A 
HETATM    7  O   LIG     1      -0.034  -1.329  -0.436  1.00  0.00    -0.305 OA
HETATM    8  C   LIG     1       1.198  -0.673  -0.324  1.00  0.00     0.110 A 
HETATM    9  C   LIG     1       2.388  -1.342  -0.626  1.00  0.00     0.040 A 
HETATM   10  C   LIG     1       3.612  -0.674  -0.510  1.00  0.00     0.003 A 
HETATM   11  C   LIG     1       3.646   0.662  -0.092  1.00  0.00     0.003 A 
HETATM   12  C   LIG     1       2.457   1.334   0.211  1.00  0.00     0.040 A 
HETATM   13  C   LIG     1       1.232   0.669   0.096  1.00  0.00     0.110 A 
HETATM   14  O   LIG     1       0.034   1.329   0.396  1.00  0.00    -0.305 OA
ENDROOT
TORSDOF 0
