MODEL 1
REMARK VINA RESULT:      -6.6      0.000      0.000
REMARK  0 active torsions:
REMARK  status: ('A' for Active; 'I' for Inactive)
ROOT
HETATM    1  C   LIG     1      17.853  37.151  21.892  1.00  0.00     0.110 A 
HETATM    2  C   LIG     1      17.805  37.136  20.495  1.00  0.00     0.040 A 
HETATM    3  C   LIG     1      18.167  38.278  19.773  1.00  0.00     0.003 A 
HETATM    4  C   LIG     1      18.575  39.435  20.448  1.00  0.00     0.003 A 
HETATM    5  C   LIG     1      18.624  39.453  21.846  1.00  0.00     0.040 A 
HETATM    6  C   LIG     1      18.262  38.313  22.571  1.00  0.00     0.110 A 
HETATM    7  O   LIG     1      18.305  38.317  23.970  1.00  0.00    -0.305 OA
HETATM    8  C   LIG     1      17.946  37.181  24.705  1.00  0.00     0.110 A 
HETATM    9  C   LIG     1      17.993  37.196  26.103  1.00  0.00     0.040 A 
HETATM   10  C   LIG     1      17.632  36.053  26.825  1.00  0.00     0.003 A 
HETATM   11  C   LIG     1      17.223  34.896  26.150  1.00  0.00     0.003 A 
HETATM   12  C   LIG     1      17.175  34.878  24.752  1.00  0.00     0.040 A 
HETATM   13  C   LIG     1      17.536  36.018  24.027  1.00  0.00     0.110 A 
HETATM   14  O   LIG     1      17.493  36.015  22.628  1.00  0.00    -0.305 OA
ENDROOT
TORSDOF 0
ENDMDL
MODEL 2
REMARK VINA RESULT:      -6.6      0.036      4.857
REMARK  0 active torsions:
REMARK  status: ('A' for Active; 'I' for Inactive)
ROOT
HETATM    1  C   LIG     1      17.538  35.998  24.035  1.00  0.00     0.110 A 
HETATM    2  C   LIG     1      17.186  34.862  24.769  1.00  0.00     0.040 A 
HETATM    3  C   LIG     1      17.228  34.895  26.167  1.00  0.00     0.003 A 
HETATM    4  C   LIG     1      17.622  36.063  26.831  1.00  0.00     0.003 A 
HETATM    5  C   LIG     1      17.975  37.202  26.099  1.00  0.00     0.040 A 
HETATM    6  C   LIG     1      17.935  37.172  24.701  1.00  0.00     0.110 A 
HETATM    7  O   LIG     1      18.285  38.305  23.956  1.00  0.00    -0.305 OA
HETATM    8  C   LIG     1      18.247  38.286  22.556  1.00  0.00     0.110 A 
HETATM    9  C   LIG     1      18.599  39.423  21.822  1.00  0.00     0.040 A 
HETATM   10  C   LIG     1      18.557  39.390  20.424  1.00  0.00     0.003 A 
HETATM   11  C   LIG     1      18.164  38.222  19.760  1.00  0.00     0.003 A 
HETATM   12  C   LIG     1      17.811  37.083  20.492  1.00  0.00     0.040 A 
HETATM   13  C   LIG     1      17.852  37.112  21.890  1.00  0.00     0.110 A 
HETATM   14  O   LIG     1      17.501  35.980  22.635  1.00  0.00    -0.305 OA
ENDROOT
TORSDOF 0
ENDMDL
MODEL 3
REMARK VINA RESULT:      -6.6      0.024      5.298
REMARK  0 active torsions:
REMARK  status: ('A' for Active; 'I' for Inactive)
ROOT
HETATM    1  C   LIG     1      17.952  37.181  24.726  1.00  0.00     0.110 A 
HETATM    2  C   LIG     1      18.002  37.191  26.123  1.00  0.00     0.040 A 
HETATM    3  C   LIG     1      17.641  36.046  26.842  1.00  0.00     0.003 A 
HETATM    4  C   LIG     1      17.228  34.892  26.164  1.00  0.00     0.003 A 
HETATM    5  C   LIG     1      17.177  34.879  24.766  1.00  0.00     0.040 A 
HETATM    6  C   LIG     1      17.537  36.022  24.044  1.00  0.00     0.110 A 
HETATM    7  O   LIG     1      17.490  36.024  22.645  1.00  0.00    -0.305 OA
HETATM    8  C   LIG     1      17.850  37.162  21.913  1.00  0.00     0.110 A 
HETATM    9  C   LIG     1      17.799  37.153  20.516  1.00  0.00     0.040 A 
HETATM   10  C   LIG     1      18.161  38.298  19.797  1.00  0.00     0.003 A 
HETATM   11  C   LIG     1      18.573  39.451  20.475  1.00  0.00     0.003 A 
HETATM   12  C   LIG     1      18.625  39.464  21.873  1.00  0.00     0.040 A 
HETATM   13  C   LIG     1      18.264  38.321  22.594  1.00  0.00     0.110 A 
HETATM   14  O   LIG     1      18.311  38.319  23.994  1.00  0.00    -0.305 OA
ENDROOT
TORSDOF 0
ENDMDL
MODEL 4
REMARK VINA RESULT:      -6.6      0.024      2.117
REMARK  0 active torsions:
REMARK  status: ('A' for Active; 'I' for Inactive)
ROOT
HETATM    1  C   LIG     1      18.265  38.323  22.594  1.00  0.00     0.110 A 
HETATM    2  C   LIG     1      18.627  39.466  21.875  1.00  0.00     0.040 A 
HETATM    3  C   LIG     1      18.575  39.455  20.477  1.00  0.00     0.003 A 
HETATM    4  C   LIG     1      18.161  38.302  19.798  1.00  0.00     0.003 A 
HETATM    5  C   LIG     1      17.799  37.157  20.515  1.00  0.00     0.040 A 
HETATM    6  C   LIG     1      17.850  37.164  21.913  1.00  0.00     0.110 A 
HETATM    7  O   LIG     1      17.490  36.025  22.644  1.00  0.00    -0.305 OA
HETATM    8  C   LIG     1      17.537  36.022  24.043  1.00  0.00     0.110 A 
HETATM    9  C   LIG     1      17.175  34.879  24.763  1.00  0.00     0.040 A 
HETATM   10  C   LIG     1      17.226  34.890  26.161  1.00  0.00     0.003 A 
HETATM   11  C   LIG     1      17.640  36.044  26.839  1.00  0.00     0.003 A 
HETATM   12  C   LIG     1      18.003  37.189  26.122  1.00  0.00     0.040 A 
HETATM   13  C   LIG     1      17.952  37.181  24.724  1.00  0.00     0.110 A 
HETATM   14  O   LIG     1      18.312  38.320  23.994  1.00  0.00    -0.305 OA
ENDROOT
TORSDOF 0
ENDMDL
MODEL 5
REMARK VINA RESULT:      -6.0      4.411      6.649
REMARK  0 active torsions:
REMARK  status: ('A' for Active; 'I' for Inactive)
ROOT
HETATM    1  C   LIG     1      16.426  35.446  20.046  1.00  0.00     0.110 A 
HETATM    2  C   LIG     1      17.055  36.640  20.412  1.00  0.00     0.040 A 
HETATM    3  C   LIG     1      17.368  36.880  21.755  1.00  0.00     0.003 A 
HETATM    4  C   LIG     1      17.052  35.927  22.731  1.00  0.00     0.003 A 
HETATM    5  C   LIG     1      16.423  34.732  22.368  1.00  0.00     0.040 A 
HETATM    6  C   LIG     1      16.108  34.489  21.027  1.00  0.00     0.110 A 
HETATM    7  O   LIG     1      15.478  33.297  20.649  1.00  0.00    -0.305 OA
HETATM    8  C   LIG     1      15.160  33.043  19.309  1.00  0.00     0.110 A 
HETATM    9  C   LIG     1      14.531  31.849  18.943  1.00  0.00     0.040 A 
HETATM   10  C   LIG     1      14.218  31.609  17.601  1.00  0.00     0.003 A 
HETATM   11  C   LIG     1      14.534  32.563  16.625  1.00  0.00     0.003 A 
HETATM   12  C   LIG     1      15.163  33.758  16.988  1.00  0.00     0.040 A 
HETATM   13  C   LIG     1      15.477  34.001  18.329  1.00  0.00     0.110 A 
HETATM   14  O   LIG     1      16.107  35.193  18.707  1.00  0.00    -0.305 OA
ENDROOT
TORSDOF 0
ENDMDL
MODEL 6
REMARK VINA RESULT:      -6.0      4.397      6.534
REMARK  0 active torsions:
REMARK  status: ('A' for Active; 'I' for Inactive)
ROOT
HETATM    1  C   LIG     1      16.108  34.509  21.039  1.00  0.00     0.110 A 
HETATM    2  C   LIG     1      16.421  34.756  22.380  1.00  0.00     0.040 A 
HETATM    3  C   LIG     1      17.051  35.952  22.740  1.00  0.00     0.003 A 
HETATM    4  C   LIG     1      17.368  36.902  21.761  1.00  0.00     0.003 A 
HETATM    5  C   LIG     1      17.056  36.658  20.419  1.00  0.00     0.040 A 
HETATM    6  C   LIG     1      16.428  35.463  20.055  1.00  0.00     0.110 A 
HETATM    7  O   LIG     1      16.110  35.205  18.716  1.00  0.00    -0.305 OA
HETATM    8  C   LIG     1      15.480  34.013  18.341  1.00  0.00     0.110 A 
HETATM    9  C   LIG     1      15.167  33.766  17.000  1.00  0.00     0.040 A 
HETATM   10  C   LIG     1      14.538  32.570  16.640  1.00  0.00     0.003 A 
HETATM   11  C   LIG     1      14.221  31.621  17.619  1.00  0.00     0.003 A 
HETATM   12  C   LIG     1      14.532  31.864  18.961  1.00  0.00     0.040 A 
HETATM   13  C   LIG     1      15.161  33.059  19.324  1.00  0.00     0.110 A 
HETATM   14  O   LIG     1      15.479  33.316  20.664  1.00  0.00    -0.305 OA
ENDROOT
TORSDOF 0
ENDMDL
MODEL 7
REMARK VINA RESULT:      -5.9      4.336      6.031
REMARK  0 active torsions:
REMARK  status: ('A' for Active; 'I' for Inactive)
ROOT
HETATM    1  C   LIG     1      15.508  33.939  18.518  1.00  0.00     0.110 A 
HETATM    2  C   LIG     1      15.176  33.615  17.199  1.00  0.00     0.040 A 
HETATM    3  C   LIG     1      14.550  32.396  16.917  1.00  0.00     0.003 A 
HETATM    4  C   LIG     1      14.256  31.501  17.953  1.00  0.00     0.003 A 
HETATM    5  C   LIG     1      14.586  31.822  19.274  1.00  0.00     0.040 A 
HETATM    6  C   LIG     1      15.213  33.040  19.559  1.00  0.00     0.110 A 
HETATM    7  O   LIG     1      15.549  33.374  20.876  1.00  0.00    -0.305 OA
HETATM    8  C   LIG     1      16.176  34.591  21.173  1.00  0.00     0.110 A 
HETATM    9  C   LIG     1      16.507  34.915  22.493  1.00  0.00     0.040 A 
HETATM   10  C   LIG     1      17.133  36.134  22.775  1.00  0.00     0.003 A 
HETATM   11  C   LIG     1      17.428  37.028  21.739  1.00  0.00     0.003 A 
HETATM   12  C   LIG     1      17.098  36.707  20.418  1.00  0.00     0.040 A 
HETATM   13  C   LIG     1      16.472  35.490  20.132  1.00  0.00     0.110 A 
HETATM   14  O   LIG     1      16.135  35.155  18.815  1.00  0.00    -0.305 OA
ENDROOT
TORSDOF 0
ENDMDL
MODEL 8
REMARK VINA RESULT:      -5.9      1.803      5.084
REMARK  0 active torsions:
REMARK  status: ('A' for Active; 'I' for Inactive)
ROOT
HETATM    1  C   LIG     1      17.727  36.716  24.198  1.00  0.00     0.110 A 
HETATM    2  C   LIG     1      18.337  37.599  25.095  1.00  0.00     0.040 A 
HETATM    3  C   LIG     1      18.503  37.228  26.434  1.00  0.00     0.003 A 
HETATM    4  C   LIG     1      18.059  35.975  26.876  1.00  0.00     0.003 A 
HETATM    5  C   LIG     1      17.449  35.090  25.981  1.00  0.00     0.040 A 
HETATM    6  C   LIG     1      17.281  35.458  24.642  1.00  0.00     0.110 A 
HETATM    7  O   LIG     1      16.672  34.582  23.735  1.00  0.00    -0.305 OA
HETATM    8  C   LIG     1      16.499  34.940  22.392  1.00  0.00     0.110 A 
HETATM    9  C   LIG     1      15.890  34.058  21.495  1.00  0.00     0.040 A 
HETATM   10  C   LIG     1      15.724  34.429  20.157  1.00  0.00     0.003 A 
HETATM   11  C   LIG     1      16.167  35.682  19.715  1.00  0.00     0.003 A 
HETATM   12  C   LIG     1      16.777  36.567  20.610  1.00  0.00     0.040 A 
HETATM   13  C   LIG     1      16.945  36.199  21.949  1.00  0.00     0.110 A 
HETATM   14  O   LIG     1      17.554  37.074  22.856  1.00  0.00    -0.305 OA
ENDROOT
TORSDOF 0
ENDMDL
MODEL 9
REMARK VINA RESULT:      -5.9      1.817      3.185
REMARK  0 active torsions:
REMARK  status: ('A' for Active; 'I' for Inactive)
ROOT
HETATM    1  C   LIG     1      16.931  36.181  22.003  1.00  0.00     0.110 A 
HETATM    2  C   LIG     1      16.751  36.564  20.670  1.00  0.00     0.040 A 
HETATM    3  C   LIG     1      16.148  35.681  19.767  1.00  0.00     0.003 A 
HETATM    4  C   LIG     1      15.727  34.417  20.195  1.00  0.00     0.003 A 
HETATM    5  C   LIG     1      15.907  34.030  21.528  1.00  0.00     0.040 A 
HETATM    6  C   LIG     1      16.509  34.909  22.433  1.00  0.00     0.110 A 
HETATM    7  O   LIG     1      16.695  34.536  23.770  1.00  0.00    -0.305 OA
HETATM    8  C   LIG     1      17.296  35.409  24.685  1.00  0.00     0.110 A 
HETATM    9  C   LIG     1      17.476  35.026  26.018  1.00  0.00     0.040 A 
HETATM   10  C   LIG     1      18.079  35.908  26.921  1.00  0.00     0.003 A 
HETATM   11  C   LIG     1      18.500  37.173  26.493  1.00  0.00     0.003 A 
HETATM   12  C   LIG     1      18.321  37.559  25.160  1.00  0.00     0.040 A 
HETATM   13  C   LIG     1      17.719  36.680  24.255  1.00  0.00     0.110 A 
HETATM   14  O   LIG     1      17.533  37.053  22.918  1.00  0.00    -0.305 OA
ENDROOT
TORSDOF 0
ENDMDL
MODEL 10
REMARK VINA RESULT:      -5.7      2.891      5.112
REMARK  0 active torsions:
REMARK  status: ('A' for Active; 'I' for Inactive)
ROOT
HETATM    1  C   LIG     1      16.568  35.304  20.137  1.00  0.00     0.110 A 
HETATM    2  C   LIG     1      16.013  34.155  19.565  1.00  0.00     0.040 A 
HETATM    3  C   LIG     1      15.023  33.444  20.251  1.00  0.00     0.003 A 
HETATM    4  C   LIG     1      14.587  33.881  21.508  1.00  0.00     0.003 A 
HETATM    5  C   LIG     1      15.140  35.030  22.083  1.00  0.00     0.040 A 
HETATM    6  C   LIG     1      16.131  35.743  21.401  1.00  0.00     0.110 A 
HETATM    7  O   LIG     1      16.694  36.895  21.964  1.00  0.00    -0.305 OA
HETATM    8  C   LIG     1      17.686  37.617  21.289  1.00  0.00     0.110 A 
HETATM    9  C   LIG     1      18.241  38.765  21.861  1.00  0.00     0.040 A 
HETATM   10  C   LIG     1      19.231  39.477  21.175  1.00  0.00     0.003 A 
HETATM   11  C   LIG     1      19.667  39.040  19.918  1.00  0.00     0.003 A 
HETATM   12  C   LIG     1      19.114  37.891  19.344  1.00  0.00     0.040 A 
HETATM   13  C   LIG     1      18.123  37.177  20.026  1.00  0.00     0.110 A 
HETATM   14  O   LIG     1      17.561  36.025  19.463  1.00  0.00    -0.305 OA
ENDROOT
TORSDOF 0
ENDMDL
MODEL 11
REMARK VINA RESULT:      -5.7     17.498     18.067
REMARK  0 active torsions:
REMARK  status: ('A' for Active; 'I' for Inactive)
ROOT
HETATM    1  C   LIG     1       3.992  43.753  32.966  1.00  0.00     0.110 A 
HETATM    2  C   LIG     1       4.034  45.120  32.676  1.00  0.00     0.040 A 
HETATM    3  C   LIG     1       3.723  45.569  31.389  1.00  0.00     0.003 A 
HETATM    4  C   LIG     1       3.369  44.652  30.391  1.00  0.00     0.003 A 
HETATM    5  C   LIG     1       3.326  43.284  30.678  1.00  0.00     0.040 A 
HETATM    6  C   LIG     1       3.638  42.831  31.964  1.00  0.00     0.110 A 
HETATM    7  O   LIG     1       3.598  41.464  32.265  1.00  0.00    -0.305 OA
HETATM    8  C   LIG     1       3.908  41.000  33.550  1.00  0.00     0.110 A 
HETATM    9  C   LIG     1       3.865  39.633  33.839  1.00  0.00     0.040 A 
HETATM   10  C   LIG     1       4.177  39.183  35.127  1.00  0.00     0.003 A 
HETATM   11  C   LIG     1       4.530  40.100  36.125  1.00  0.00     0.003 A 
HETATM   12  C   LIG     1       4.574  41.469  35.838  1.00  0.00     0.040 A 
HETATM   13  C   LIG     1       4.263  41.921  34.552  1.00  0.00     0.110 A 
HETATM   14  O   LIG     1       4.302  43.288  34.250  1.00  0.00    -0.305 OA
ENDROOT
TORSDOF 0
ENDMDL
MODEL 12
REMARK VINA RESULT:      -5.7      2.881      5.350
REMARK  0 active torsions:
REMARK  status: ('A' for Active; 'I' for Inactive)
ROOT
HETATM    1  C   LIG     1      16.144  35.727  21.403  1.00  0.00     0.110 A 
HETATM    2  C   LIG     1      15.151  35.008  22.076  1.00  0.00     0.040 A 
HETATM    3  C   LIG     1      14.599  33.865  21.487  1.00  0.00     0.003 A 
HETATM    4  C   LIG     1      15.039  33.441  20.227  1.00  0.00     0.003 A 
HETATM    5  C   LIG     1      16.032  34.158  19.552  1.00  0.00     0.040 A 
HETATM    6  C   LIG     1      16.586  35.302  20.137  1.00  0.00     0.110 A 
HETATM    7  O   LIG     1      17.581  36.029  19.473  1.00  0.00    -0.305 OA
HETATM    8  C   LIG     1      18.143  37.175  20.050  1.00  0.00     0.110 A 
HETATM    9  C   LIG     1      19.136  37.894  19.377  1.00  0.00     0.040 A 
HETATM   10  C   LIG     1      19.689  39.037  19.966  1.00  0.00     0.003 A 
HETATM   11  C   LIG     1      19.249  39.460  21.226  1.00  0.00     0.003 A 
HETATM   12  C   LIG     1      18.255  38.743  21.901  1.00  0.00     0.040 A 
HETATM   13  C   LIG     1      17.701  37.600  21.316  1.00  0.00     0.110 A 
HETATM   14  O   LIG     1      16.706  36.872  21.980  1.00  0.00    -0.305 OA
ENDROOT
TORSDOF 0
ENDMDL
MODEL 13
REMARK VINA RESULT:      -5.7      2.879      3.863
REMARK  0 active torsions:
REMARK  status: ('A' for Active; 'I' for Inactive)
ROOT
HETATM    1  C   LIG     1      18.098  37.189  20.103  1.00  0.00     0.110 A 
HETATM    2  C   LIG     1      19.091  37.927  19.451  1.00  0.00     0.040 A 
HETATM    3  C   LIG     1      19.618  39.073  20.056  1.00  0.00     0.003 A 
HETATM    4  C   LIG     1      19.153  39.481  21.312  1.00  0.00     0.003 A 
HETATM    5  C   LIG     1      18.160  38.745  21.967  1.00  0.00     0.040 A 
HETATM    6  C   LIG     1      17.630  37.600  21.365  1.00  0.00     0.110 A 
HETATM    7  O   LIG     1      16.635  36.854  22.008  1.00  0.00    -0.305 OA
HETATM    8  C   LIG     1      16.098  35.705  21.415  1.00  0.00     0.110 A 
HETATM    9  C   LIG     1      15.105  34.967  22.067  1.00  0.00     0.040 A 
HETATM   10  C   LIG     1      14.577  33.821  21.462  1.00  0.00     0.003 A 
HETATM   11  C   LIG     1      15.042  33.413  20.206  1.00  0.00     0.003 A 
HETATM   12  C   LIG     1      16.036  34.149  19.551  1.00  0.00     0.040 A 
HETATM   13  C   LIG     1      16.565  35.295  20.153  1.00  0.00     0.110 A 
HETATM   14  O   LIG     1      17.560  36.041  19.509  1.00  0.00    -0.305 OA
ENDROOT
TORSDOF 0
ENDMDL
MODEL 14
REMARK VINA RESULT:      -5.6      3.585      5.047
REMARK  0 active torsions:
REMARK  status: ('A' for Active; 'I' for Inactive)
ROOT
HETATM    1  C   LIG     1      15.595  33.619  20.281  1.00  0.00     0.110 A 
HETATM    2  C   LIG     1      15.040  32.387  19.919  1.00  0.00     0.040 A 
HETATM    3  C   LIG     1      14.745  32.123  18.577  1.00  0.00     0.003 A 
HETATM    4  C   LIG     1      15.005  33.090  17.597  1.00  0.00     0.003 A 
HETATM    5  C   LIG     1      15.561  34.322  17.956  1.00  0.00     0.040 A 
HETATM    6  C   LIG     1      15.856  34.590  19.297  1.00  0.00     0.110 A 
HETATM    7  O   LIG     1      16.412  35.819  19.671  1.00  0.00    -0.305 OA
HETATM    8  C   LIG     1      16.712  36.097  21.010  1.00  0.00     0.110 A 
HETATM    9  C   LIG     1      17.267  37.328  21.372  1.00  0.00     0.040 A 
HETATM   10  C   LIG     1      17.562  37.593  22.714  1.00  0.00     0.003 A 
HETATM   11  C   LIG     1      17.302  36.626  23.694  1.00  0.00     0.003 A 
HETATM   12  C   LIG     1      16.747  35.393  23.334  1.00  0.00     0.040 A 
HETATM   13  C   LIG     1      16.451  35.126  21.994  1.00  0.00     0.110 A 
HETATM   14  O   LIG     1      15.895  33.897  21.620  1.00  0.00    -0.305 OA
ENDROOT
TORSDOF 0
ENDMDL
MODEL 15
REMARK VINA RESULT:      -5.5      2.246      4.749
REMARK  0 active torsions:
REMARK  status: ('A' for Active; 'I' for Inactive)
ROOT
HETATM    1  C   LIG     1      17.446  35.580  24.671  1.00  0.00     0.110 A 
HETATM    2  C   LIG     1      18.047  35.258  25.891  1.00  0.00     0.040 A 
HETATM    3  C   LIG     1      18.292  36.262  26.834  1.00  0.00     0.003 A 
HETATM    4  C   LIG     1      17.938  37.588  26.557  1.00  0.00     0.003 A 
HETATM    5  C   LIG     1      17.337  37.913  25.336  1.00  0.00     0.040 A 
HETATM    6  C   LIG     1      17.091  36.912  24.391  1.00  0.00     0.110 A 
HETATM    7  O   LIG     1      16.490  37.224  23.165  1.00  0.00    -0.305 OA
HETATM    8  C   LIG     1      16.238  36.229  22.213  1.00  0.00     0.110 A 
HETATM    9  C   LIG     1      15.637  36.552  20.992  1.00  0.00     0.040 A 
HETATM   10  C   LIG     1      15.391  35.548  20.049  1.00  0.00     0.003 A 
HETATM   11  C   LIG     1      15.746  34.222  20.326  1.00  0.00     0.003 A 
HETATM   12  C   LIG     1      16.347  33.896  21.547  1.00  0.00     0.040 A 
HETATM   13  C   LIG     1      16.594  34.897  22.492  1.00  0.00     0.110 A 
HETATM   14  O   LIG     1      17.195  34.586  23.717  1.00  0.00    -0.305 OA
ENDROOT
TORSDOF 0
ENDMDL
MODEL 16
REMARK VINA RESULT:      -5.4      2.902      4.999
REMARK  0 active torsions:
REMARK  status: ('A' for Active; 'I' for Inactive)
ROOT
HETATM    1  C   LIG     1      17.054  36.897  21.595  1.00  0.00     0.110 A 
HETATM    2  C   LIG     1      17.640  38.143  21.836  1.00  0.00     0.040 A 
HETATM    3  C   LIG     1      17.915  38.541  23.149  1.00  0.00     0.003 A 
HETATM    4  C   LIG     1      17.605  37.694  24.220  1.00  0.00     0.003 A 
HETATM    5  C   LIG     1      17.018  36.447  23.982  1.00  0.00     0.040 A 
HETATM    6  C   LIG     1      16.741  36.046  22.671  1.00  0.00     0.110 A 
HETATM    7  O   LIG     1      16.154  34.800  22.418  1.00  0.00    -0.305 OA
HETATM    8  C   LIG     1      15.873  34.388  21.109  1.00  0.00     0.110 A 
HETATM    9  C   LIG     1      15.286  33.142  20.868  1.00  0.00     0.040 A 
HETATM   10  C   LIG     1      15.011  32.743  19.556  1.00  0.00     0.003 A 
HETATM   11  C   LIG     1      15.321  33.591  18.485  1.00  0.00     0.003 A 
HETATM   12  C   LIG     1      15.908  34.838  18.723  1.00  0.00     0.040 A 
HETATM   13  C   LIG     1      16.185  35.239  20.034  1.00  0.00     0.110 A 
HETATM   14  O   LIG     1      16.772  36.485  20.287  1.00  0.00    -0.305 OA
ENDROOT
TORSDOF 0
ENDMDL
MODEL 17
REMARK VINA RESULT:      -5.3      9.740     11.862
REMARK  0 active torsions:
REMARK  status: ('A' for Active; 'I' for Inactive)
ROOT
HETATM    1  C   LIG     1      15.178  29.400  14.039  1.00  0.00     0.110 A 
HETATM    2  C   LIG     1      15.634  28.381  13.198  1.00  0.00     0.040 A 
HETATM    3  C   LIG     1      14.799  27.301  12.894  1.00  0.00     0.003 A 
HETATM    4  C   LIG     1      13.507  27.240  13.431  1.00  0.00     0.003 A 
HETATM    5  C   LIG     1      13.047  28.258  14.273  1.00  0.00     0.040 A 
HETATM    6  C   LIG     1      13.880  29.339  14.580  1.00  0.00     0.110 A 
HETATM    7  O   LIG     1      13.433  30.365  15.421  1.00  0.00    -0.305 OA
HETATM    8  C   LIG     1      14.259  31.452  15.733  1.00  0.00     0.110 A 
HETATM    9  C   LIG     1      13.802  32.471  16.574  1.00  0.00     0.040 A 
HETATM   10  C   LIG     1      14.638  33.551  16.878  1.00  0.00     0.003 A 
HETATM   11  C   LIG     1      15.930  33.612  16.341  1.00  0.00     0.003 A 
HETATM   12  C   LIG     1      16.389  32.594  15.500  1.00  0.00     0.040 A 
HETATM   13  C   LIG     1      15.556  31.513  15.194  1.00  0.00     0.110 A 
HETATM   14  O   LIG     1      16.003  30.487  14.353  1.00  0.00    -0.305 OA
ENDROOT
TORSDOF 0
ENDMDL
MODEL 18
REMARK VINA RESULT:      -5.3      9.722     11.815
REMARK  0 active torsions:
REMARK  status: ('A' for Active; 'I' for Inactive)
ROOT
HETATM    1  C   LIG     1      14.256  31.482  15.729  1.00  0.00     0.110 A 
HETATM    2  C   LIG     1      13.799  32.505  16.566  1.00  0.00     0.040 A 
HETATM    3  C   LIG     1      14.636  33.585  16.867  1.00  0.00     0.003 A 
HETATM    4  C   LIG     1      15.929  33.642  16.332  1.00  0.00     0.003 A 
HETATM    5  C   LIG     1      16.389  32.620  15.495  1.00  0.00     0.040 A 
HETATM    6  C   LIG     1      15.555  31.539  15.193  1.00  0.00     0.110 A 
HETATM    7  O   LIG     1      16.002  30.509  14.356  1.00  0.00    -0.305 OA
HETATM    8  C   LIG     1      15.175  29.422  14.046  1.00  0.00     0.110 A 
HETATM    9  C   LIG     1      15.631  28.399  13.209  1.00  0.00     0.040 A 
HETATM   10  C   LIG     1      14.794  27.319  12.908  1.00  0.00     0.003 A 
HETATM   11  C   LIG     1      13.501  27.262  13.443  1.00  0.00     0.003 A 
HETATM   12  C   LIG     1      13.042  28.284  14.280  1.00  0.00     0.040 A 
HETATM   13  C   LIG     1      13.876  29.365  14.583  1.00  0.00     0.110 A 
HETATM   14  O   LIG     1      13.429  30.395  15.420  1.00  0.00    -0.305 OA
ENDROOT
TORSDOF 0
ENDMDL
MODEL 19
REMARK VINA RESULT:      -5.3      9.740     11.839
REMARK  0 active torsions:
REMARK  status: ('A' for Active; 'I' for Inactive)
ROOT
HETATM    1  C   LIG     1      13.890  29.333  14.578  1.00  0.00     0.110 A 
HETATM    2  C   LIG     1      13.061  28.249  14.272  1.00  0.00     0.040 A 
HETATM    3  C   LIG     1      13.524  27.234  13.428  1.00  0.00     0.003 A 
HETATM    4  C   LIG     1      14.816  27.301  12.891  1.00  0.00     0.003 A 
HETATM    5  C   LIG     1      15.647  28.384  13.195  1.00  0.00     0.040 A 
HETATM    6  C   LIG     1      15.187  29.402  14.037  1.00  0.00     0.110 A 
HETATM    7  O   LIG     1      16.009  30.491  14.350  1.00  0.00    -0.305 OA
HETATM    8  C   LIG     1      15.558  31.515  15.194  1.00  0.00     0.110 A 
HETATM    9  C   LIG     1      16.387  32.598  15.500  1.00  0.00     0.040 A 
HETATM   10  C   LIG     1      15.924  33.614  16.343  1.00  0.00     0.003 A 
HETATM   11  C   LIG     1      14.633  33.546  16.881  1.00  0.00     0.003 A 
HETATM   12  C   LIG     1      13.801  32.463  16.576  1.00  0.00     0.040 A 
HETATM   13  C   LIG     1      14.261  31.446  15.733  1.00  0.00     0.110 A 
HETATM   14  O   LIG     1      13.440  30.357  15.420  1.00  0.00    -0.305 OA
ENDROOT
TORSDOF 0
ENDMDL
MODEL 20
REMARK VINA RESULT:      -5.3      9.783     11.903
REMARK  0 active torsions:
REMARK  status: ('A' for Active; 'I' for Inactive)
ROOT
HETATM    1  C   LIG     1      15.462  31.486  15.237  1.00  0.00     0.110 A 
HETATM    2  C   LIG     1      16.258  32.585  15.574  1.00  0.00     0.040 A 
HETATM    3  C   LIG     1      15.755  33.574  16.427  1.00  0.00     0.003 A 
HETATM    4  C   LIG     1      14.457  33.465  16.942  1.00  0.00     0.003 A 
HETATM    5  C   LIG     1      13.658  32.367  16.605  1.00  0.00     0.040 A 
HETATM    6  C   LIG     1      14.157  31.377  15.752  1.00  0.00     0.110 A 
HETATM    7  O   LIG     1      13.369  30.272  15.407  1.00  0.00    -0.305 OA
HETATM    8  C   LIG     1      13.859  29.275  14.555  1.00  0.00     0.110 A 
HETATM    9  C   LIG     1      13.063  28.176  14.217  1.00  0.00     0.040 A 
HETATM   10  C   LIG     1      13.565  27.187  13.365  1.00  0.00     0.003 A 
HETATM   11  C   LIG     1      14.863  27.297  12.850  1.00  0.00     0.003 A 
HETATM   12  C   LIG     1      15.662  28.395  13.187  1.00  0.00     0.040 A 
HETATM   13  C   LIG     1      15.163  29.385  14.039  1.00  0.00     0.110 A 
HETATM   14  O   LIG     1      15.951  30.490  14.384  1.00  0.00    -0.305 OA
ENDROOT
TORSDOF 0
ENDMDL
