MODEL 1
REMARK VINA RESULT:      -8.3      0.000      0.000
REMARK  5 active torsions:
REMARK  status: ('A' for Active; 'I' for Inactive)
REMARK    1  A    between atoms: O_1  and  C_2 
REMARK    2  A    between atoms: N_5  and  C_8 
REMARK    3  A    between atoms: C_8  and  C_9 
REMARK    4  A    between atoms: C_9  and  C_10 
REMARK    5  A    between atoms: C_10  and  N_11 
ROOT
HETATM    1  N   LIG     1      16.739  36.527  22.774  1.00  0.00    -0.345 N 
HETATM    2  C   LIG     1      17.150  36.208  24.124  1.00  0.00     0.052 A 
HETATM    3  C   LIG     1      17.279  34.873  24.548  1.00  0.00     0.031 A 
HETATM    4  C   LIG     1      17.833  34.581  25.799  1.00  0.00     0.002 A 
HETATM    5  C   LIG     1      18.269  35.614  26.632  1.00  0.00     0.002 A 
HETATM    6  C   LIG     1      18.126  36.945  26.230  1.00  0.00     0.021 A 
HETATM    7  C   LIG     1      17.550  37.243  24.991  1.00  0.00     0.032 A 
HETATM    8  S   LIG     1      17.190  38.945  24.558  1.00  0.00    -0.086 SA
HETATM    9  C   LIG     1      17.779  38.761  22.875  1.00  0.00     0.032 A 
HETATM   10  C   LIG     1      17.377  37.646  22.115  1.00  0.00     0.053 A 
HETATM   11  C   LIG     1      17.741  37.579  20.758  1.00  0.00     0.053 A 
HETATM   12  C   LIG     1      18.505  38.602  20.178  1.00  0.00     0.046 A 
HETATM   13  C   LIG     1      18.881  38.521  18.791  1.00  0.00     0.099 C 
HETATM   14  N   LIG     1      19.183  38.456  17.675  1.00  0.00    -0.191 NA
HETATM   15  C   LIG     1      18.922  39.688  20.953  1.00  0.00     0.024 A 
HETATM   16  C   LIG     1      18.563  39.766  22.300  1.00  0.00     0.023 A 
ENDROOT
BRANCH   1  17
HETATM   17  C   LIG     1      15.590  35.838  22.166  1.00  0.00     0.131 C 
BRANCH  17  18
HETATM   18  C   LIG     1      16.037  34.680  21.251  1.00  0.00     0.050 C 
BRANCH  18  19
HETATM   19  C   LIG     1      15.494  34.846  19.823  1.00  0.00     0.274 C 
BRANCH  19  20
HETATM   20  N   LIG     1      15.700  33.622  19.017  1.00  0.00     0.088 N 
HETATM   21  C   LIG     1      14.878  32.488  19.523  1.00  0.00     0.275 C 
HETATM   22  C   LIG     1      14.587  31.447  18.436  1.00  0.00     0.062 C 
HETATM   23  C   LIG     1      13.770  32.065  17.286  1.00  0.00     0.121 C 
HETATM   24  C   LIG     1      14.101  33.561  17.080  1.00  0.00     0.062 C 
HETATM   25  C   LIG     1      15.519  33.893  17.566  1.00  0.00     0.275 C 
BRANCH  23  26
HETATM   26  O   LIG     1      14.026  31.344  16.107  1.00  0.00    -0.395 OA
HETATM   27  H   LIG     1      15.012  31.287  16.013  1.00  0.00     0.210 HD
ENDBRANCH  23  26
ENDBRANCH  19  20
ENDBRANCH  18  19
ENDBRANCH  17  18
ENDBRANCH   1  17
TORSDOF 5
ENDMDL
MODEL 2
REMARK VINA RESULT:      -5.6     15.172     16.703
REMARK  5 active torsions:
REMARK  status: ('A' for Active; 'I' for Inactive)
REMARK    1  A    between atoms: O_1  and  C_2 
REMARK    2  A    between atoms: N_5  and  C_8 
REMARK    3  A    between atoms: C_8  and  C_9 
REMARK    4  A    between atoms: C_9  and  C_10 
REMARK    5  A    between atoms: C_10  and  N_11 
ROOT
HETATM    1  N   LIG     1      26.431  23.706  20.837  1.00  0.00    -0.345 N 
HETATM    2  C   LIG     1      25.153  23.047  20.670  1.00  0.00     0.052 A 
HETATM    3  C   LIG     1      24.074  23.327  21.527  1.00  0.00     0.031 A 
HETATM    4  C   LIG     1      22.804  22.807  21.254  1.00  0.00     0.002 A 
HETATM    5  C   LIG     1      22.598  22.013  20.123  1.00  0.00     0.002 A 
HETATM    6  C   LIG     1      23.668  21.710  19.277  1.00  0.00     0.021 A 
HETATM    7  C   LIG     1      24.945  22.206  19.560  1.00  0.00     0.032 A 
HETATM    8  S   LIG     1      26.351  21.664  18.589  1.00  0.00    -0.086 SA
HETATM    9  C   LIG     1      27.060  23.307  18.487  1.00  0.00     0.032 A 
HETATM   10  C   LIG     1      27.154  24.098  19.647  1.00  0.00     0.053 A 
HETATM   11  C   LIG     1      27.827  25.332  19.579  1.00  0.00     0.053 A 
HETATM   12  C   LIG     1      28.381  25.770  18.368  1.00  0.00     0.046 A 
HETATM   13  C   LIG     1      29.060  27.038  18.305  1.00  0.00     0.099 C 
HETATM   14  N   LIG     1      29.606  28.058  18.254  1.00  0.00    -0.191 NA
HETATM   15  C   LIG     1      28.253  24.987  17.216  1.00  0.00     0.024 A 
HETATM   16  C   LIG     1      27.591  23.760  17.275  1.00  0.00     0.023 A 
ENDROOT
BRANCH   1  17
HETATM   17  C   LIG     1      27.040  23.815  22.172  1.00  0.00     0.131 C 
BRANCH  17  18
HETATM   18  C   LIG     1      27.515  22.445  22.697  1.00  0.00     0.050 C 
BRANCH  18  19
HETATM   19  C   LIG     1      27.133  22.242  24.172  1.00  0.00     0.274 C 
BRANCH  19  20
HETATM   20  N   LIG     1      25.683  22.444  24.390  1.00  0.00     0.088 N 
HETATM   21  C   LIG     1      24.965  21.147  24.533  1.00  0.00     0.275 C 
HETATM   22  C   LIG     1      23.662  21.287  25.329  1.00  0.00     0.062 C 
HETATM   23  C   LIG     1      23.944  21.760  26.767  1.00  0.00     0.121 C 
HETATM   24  C   LIG     1      25.184  22.678  26.841  1.00  0.00     0.062 C 
HETATM   25  C   LIG     1      25.432  23.394  25.506  1.00  0.00     0.275 C 
BRANCH  23  26
HETATM   26  O   LIG     1      22.810  22.432  27.254  1.00  0.00    -0.395 OA
HETATM   27  H   LIG     1      23.105  23.345  27.510  1.00  0.00     0.210 HD
ENDBRANCH  23  26
ENDBRANCH  19  20
ENDBRANCH  18  19
ENDBRANCH  17  18
ENDBRANCH   1  17
TORSDOF 5
ENDMDL
MODEL 3
REMARK VINA RESULT:      -5.5     15.359     17.359
REMARK  5 active torsions:
REMARK  status: ('A' for Active; 'I' for Inactive)
REMARK    1  A    between atoms: O_1  and  C_2 
REMARK    2  A    between atoms: N_5  and  C_8 
REMARK    3  A    between atoms: C_8  and  C_9 
REMARK    4  A    between atoms: C_9  and  C_10 
REMARK    5  A    between atoms: C_10  and  N_11 
ROOT
HETATM    1  N   LIG     1      25.712  22.878  19.702  1.00  0.00    -0.345 N 
HETATM    2  C   LIG     1      24.932  21.845  19.055  1.00  0.00     0.052 A 
HETATM    3  C   LIG     1      23.533  21.793  19.198  1.00  0.00     0.031 A 
HETATM    4  C   LIG     1      22.779  20.893  18.438  1.00  0.00     0.002 A 
HETATM    5  C   LIG     1      23.411  20.044  17.525  1.00  0.00     0.002 A 
HETATM    6  C   LIG     1      24.801  20.071  17.391  1.00  0.00     0.021 A 
HETATM    7  C   LIG     1      25.562  20.953  18.167  1.00  0.00     0.032 A 
HETATM    8  S   LIG     1      27.351  20.855  18.137  1.00  0.00    -0.086 SA
HETATM    9  C   LIG     1      27.561  22.635  18.090  1.00  0.00     0.032 A 
HETATM   10  C   LIG     1      26.825  23.446  18.974  1.00  0.00     0.053 A 
HETATM   11  C   LIG     1      27.093  24.826  19.016  1.00  0.00     0.053 A 
HETATM   12  C   LIG     1      28.068  25.385  18.178  1.00  0.00     0.046 A 
HETATM   13  C   LIG     1      28.329  26.800  18.221  1.00  0.00     0.099 C 
HETATM   14  N   LIG     1      28.539  27.938  18.255  1.00  0.00    -0.191 NA
HETATM   15  C   LIG     1      28.771  24.571  17.283  1.00  0.00     0.024 A 
HETATM   16  C   LIG     1      28.515  23.199  17.237  1.00  0.00     0.023 A 
ENDROOT
BRANCH   1  17
HETATM   17  C   LIG     1      25.476  23.209  21.116  1.00  0.00     0.131 C 
BRANCH  17  18
HETATM   18  C   LIG     1      26.581  22.641  22.029  1.00  0.00     0.050 C 
BRANCH  18  19
HETATM   19  C   LIG     1      27.441  23.760  22.639  1.00  0.00     0.274 C 
BRANCH  19  20
HETATM   20  N   LIG     1      27.625  23.571  24.095  1.00  0.00     0.088 N 
HETATM   21  C   LIG     1      27.785  24.871  24.802  1.00  0.00     0.275 C 
HETATM   22  C   LIG     1      27.379  24.787  26.278  1.00  0.00     0.062 C 
HETATM   23  C   LIG     1      25.890  24.422  26.420  1.00  0.00     0.121 C 
HETATM   24  C   LIG     1      25.404  23.516  25.266  1.00  0.00     0.062 C 
HETATM   25  C   LIG     1      26.560  22.704  24.666  1.00  0.00     0.275 C 
BRANCH  23  26
HETATM   26  O   LIG     1      25.694  23.783  27.656  1.00  0.00    -0.395 OA
HETATM   27  H   LIG     1      25.006  23.081  27.511  1.00  0.00     0.210 HD
ENDBRANCH  23  26
ENDBRANCH  19  20
ENDBRANCH  18  19
ENDBRANCH  17  18
ENDBRANCH   1  17
TORSDOF 5
ENDMDL
MODEL 4
REMARK VINA RESULT:      -5.5     15.761     17.714
REMARK  5 active torsions:
REMARK  status: ('A' for Active; 'I' for Inactive)
REMARK    1  A    between atoms: O_1  and  C_2 
REMARK    2  A    between atoms: N_5  and  C_8 
REMARK    3  A    between atoms: C_8  and  C_9 
REMARK    4  A    between atoms: C_9  and  C_10 
REMARK    5  A    between atoms: C_10  and  N_11 
ROOT
HETATM    1  N   LIG     1      26.456  22.803  19.534  1.00  0.00    -0.345 N 
HETATM    2  C   LIG     1      26.539  21.831  18.465  1.00  0.00     0.052 A 
HETATM    3  C   LIG     1      27.781  21.331  18.033  1.00  0.00     0.031 A 
HETATM    4  C   LIG     1      27.836  20.275  17.117  1.00  0.00     0.002 A 
HETATM    5  C   LIG     1      26.656  19.705  16.631  1.00  0.00     0.002 A 
HETATM    6  C   LIG     1      25.417  20.208  17.037  1.00  0.00     0.021 A 
HETATM    7  C   LIG     1      25.358  21.280  17.934  1.00  0.00     0.032 A 
HETATM    8  S   LIG     1      23.782  22.050  18.304  1.00  0.00    -0.086 SA
HETATM    9  C   LIG     1      24.128  22.180  20.058  1.00  0.00     0.032 A 
HETATM   10  C   LIG     1      25.374  22.676  20.486  1.00  0.00     0.053 A 
HETATM   11  C   LIG     1      25.586  22.894  21.860  1.00  0.00     0.053 A 
HETATM   12  C   LIG     1      24.575  22.606  22.787  1.00  0.00     0.046 A 
HETATM   13  C   LIG     1      24.803  22.823  24.192  1.00  0.00     0.099 C 
HETATM   14  N   LIG     1      24.987  22.998  25.321  1.00  0.00    -0.191 NA
HETATM   15  C   LIG     1      23.352  22.086  22.349  1.00  0.00     0.024 A 
HETATM   16  C   LIG     1      23.131  21.870  20.988  1.00  0.00     0.023 A 
ENDROOT
BRANCH   1  17
HETATM   17  C   LIG     1      27.345  23.975  19.541  1.00  0.00     0.131 C 
BRANCH  17  18
HETATM   18  C   LIG     1      27.171  24.833  18.272  1.00  0.00     0.050 C 
BRANCH  18  19
HETATM   19  C   LIG     1      28.387  25.745  18.035  1.00  0.00     0.274 C 
BRANCH  19  20
HETATM   20  N   LIG     1      29.290  25.187  17.003  1.00  0.00     0.088 N 
HETATM   21  C   LIG     1      28.556  24.314  16.046  1.00  0.00     0.275 C 
HETATM   22  C   LIG     1      29.260  24.217  14.687  1.00  0.00     0.062 C 
HETATM   23  C   LIG     1      29.337  25.597  14.008  1.00  0.00     0.121 C 
HETATM   24  C   LIG     1      29.453  26.743  15.038  1.00  0.00     0.062 C 
HETATM   25  C   LIG     1      30.088  26.257  16.348  1.00  0.00     0.275 C 
BRANCH  23  26
HETATM   26  O   LIG     1      30.439  25.614  13.136  1.00  0.00    -0.395 OA
HETATM   27  H   LIG     1      30.912  24.748  13.253  1.00  0.00     0.210 HD
ENDBRANCH  23  26
ENDBRANCH  19  20
ENDBRANCH  18  19
ENDBRANCH  17  18
ENDBRANCH   1  17
TORSDOF 5
ENDMDL
MODEL 5
REMARK VINA RESULT:      -5.5     15.478     17.612
REMARK  5 active torsions:
REMARK  status: ('A' for Active; 'I' for Inactive)
REMARK    1  A    between atoms: O_1  and  C_2 
REMARK    2  A    between atoms: N_5  and  C_8 
REMARK    3  A    between atoms: C_8  and  C_9 
REMARK    4  A    between atoms: C_9  and  C_10 
REMARK    5  A    between atoms: C_10  and  N_11 
ROOT
HETATM    1  N   LIG     1      25.629  22.078  18.988  1.00  0.00    -0.345 N 
HETATM    2  C   LIG     1      24.849  21.137  18.213  1.00  0.00     0.052 A 
HETATM    3  C   LIG     1      25.470  20.213  17.354  1.00  0.00     0.031 A 
HETATM    4  C   LIG     1      24.718  19.206  16.739  1.00  0.00     0.002 A 
HETATM    5  C   LIG     1      23.345  19.108  16.981  1.00  0.00     0.002 A 
HETATM    6  C   LIG     1      22.714  20.034  17.816  1.00  0.00     0.021 A 
HETATM    7  C   LIG     1      23.458  21.058  18.413  1.00  0.00     0.032 A 
HETATM    8  S   LIG     1      22.622  22.356  19.324  1.00  0.00    -0.086 SA
HETATM    9  C   LIG     1      23.829  22.359  20.650  1.00  0.00     0.032 A 
HETATM   10  C   LIG     1      25.202  22.363  20.341  1.00  0.00     0.053 A 
HETATM   11  C   LIG     1      26.135  22.496  21.385  1.00  0.00     0.053 A 
HETATM   12  C   LIG     1      25.701  22.605  22.714  1.00  0.00     0.046 A 
HETATM   13  C   LIG     1      26.664  22.730  23.777  1.00  0.00     0.099 C 
HETATM   14  N   LIG     1      27.437  22.832  24.632  1.00  0.00    -0.191 NA
HETATM   15  C   LIG     1      24.334  22.569  23.008  1.00  0.00     0.024 A 
HETATM   16  C   LIG     1      23.400  22.443  21.978  1.00  0.00     0.023 A 
ENDROOT
BRANCH   1  17
HETATM   17  C   LIG     1      26.716  22.840  18.354  1.00  0.00     0.131 C 
BRANCH  17  18
HETATM   18  C   LIG     1      26.453  24.358  18.401  1.00  0.00     0.050 C 
BRANCH  18  19
HETATM   19  C   LIG     1      27.697  25.160  17.982  1.00  0.00     0.274 C 
BRANCH  19  20
HETATM   20  N   LIG     1      28.387  25.743  19.155  1.00  0.00     0.088 N 
HETATM   21  C   LIG     1      27.524  25.717  20.368  1.00  0.00     0.275 C 
HETATM   22  C   LIG     1      28.340  25.727  21.665  1.00  0.00     0.062 C 
HETATM   23  C   LIG     1      29.229  24.473  21.767  1.00  0.00     0.121 C 
HETATM   24  C   LIG     1      29.692  23.979  20.378  1.00  0.00     0.062 C 
HETATM   25  C   LIG     1      29.724  25.125  19.357  1.00  0.00     0.275 C 
BRANCH  23  26
HETATM   26  O   LIG     1      30.341  24.768  22.574  1.00  0.00    -0.395 OA
HETATM   27  H   LIG     1      30.895  23.944  22.611  1.00  0.00     0.210 HD
ENDBRANCH  23  26
ENDBRANCH  19  20
ENDBRANCH  18  19
ENDBRANCH  17  18
ENDBRANCH   1  17
TORSDOF 5
ENDMDL
MODEL 6
REMARK VINA RESULT:      -5.4     15.028     16.312
REMARK  5 active torsions:
REMARK  status: ('A' for Active; 'I' for Inactive)
REMARK    1  A    between atoms: O_1  and  C_2 
REMARK    2  A    between atoms: N_5  and  C_8 
REMARK    3  A    between atoms: C_8  and  C_9 
REMARK    4  A    between atoms: C_9  and  C_10 
REMARK    5  A    between atoms: C_10  and  N_11 
ROOT
HETATM    1  N   LIG     1      27.161  23.549  22.469  1.00  0.00    -0.345 N 
HETATM    2  C   LIG     1      27.238  24.277  21.221  1.00  0.00     0.052 A 
HETATM    3  C   LIG     1      26.156  24.294  20.322  1.00  0.00     0.031 A 
HETATM    4  C   LIG     1      26.184  25.131  19.202  1.00  0.00     0.002 A 
HETATM    5  C   LIG     1      27.285  25.961  18.972  1.00  0.00     0.002 A 
HETATM    6  C   LIG     1      28.375  25.935  19.846  1.00  0.00     0.021 A 
HETATM    7  C   LIG     1      28.362  25.082  20.954  1.00  0.00     0.032 A 
HETATM    8  S   LIG     1      29.833  24.906  21.964  1.00  0.00    -0.086 SA
HETATM    9  C   LIG     1      28.917  24.937  23.505  1.00  0.00     0.032 A 
HETATM   10  C   LIG     1      27.759  24.148  23.643  1.00  0.00     0.053 A 
HETATM   11  C   LIG     1      27.124  24.083  24.896  1.00  0.00     0.053 A 
HETATM   12  C   LIG     1      27.630  24.807  25.985  1.00  0.00     0.046 A 
HETATM   13  C   LIG     1      26.967  24.742  27.262  1.00  0.00     0.099 C 
HETATM   14  N   LIG     1      26.435  24.689  28.289  1.00  0.00    -0.191 NA
HETATM   15  C   LIG     1      28.763  25.610  25.825  1.00  0.00     0.024 A 
HETATM   16  C   LIG     1      29.403  25.678  24.586  1.00  0.00     0.023 A 
ENDROOT
BRANCH   1  17
HETATM   17  C   LIG     1      26.640  22.174  22.496  1.00  0.00     0.131 C 
BRANCH  17  18
HETATM   18  C   LIG     1      25.220  22.111  23.093  1.00  0.00     0.050 C 
BRANCH  18  19
HETATM   19  C   LIG     1      24.580  20.729  22.884  1.00  0.00     0.274 C 
BRANCH  19  20
HETATM   20  N   LIG     1      23.482  20.783  21.893  1.00  0.00     0.088 N 
HETATM   21  C   LIG     1      23.004  22.177  21.680  1.00  0.00     0.275 C 
HETATM   22  C   LIG     1      22.349  22.365  20.307  1.00  0.00     0.062 C 
HETATM   23  C   LIG     1      23.357  22.099  19.174  1.00  0.00     0.121 C 
HETATM   24  C   LIG     1      24.403  21.031  19.569  1.00  0.00     0.062 C 
HETATM   25  C   LIG     1      23.853  20.077  20.638  1.00  0.00     0.275 C 
BRANCH  23  26
HETATM   26  O   LIG     1      22.656  21.691  18.026  1.00  0.00    -0.395 OA
HETATM   27  H   LIG     1      22.578  22.488  17.439  1.00  0.00     0.210 HD
ENDBRANCH  23  26
ENDBRANCH  19  20
ENDBRANCH  18  19
ENDBRANCH  17  18
ENDBRANCH   1  17
TORSDOF 5
ENDMDL
MODEL 7
REMARK VINA RESULT:      -5.4     15.088     16.603
REMARK  5 active torsions:
REMARK  status: ('A' for Active; 'I' for Inactive)
REMARK    1  A    between atoms: O_1  and  C_2 
REMARK    2  A    between atoms: N_5  and  C_8 
REMARK    3  A    between atoms: C_8  and  C_9 
REMARK    4  A    between atoms: C_9  and  C_10 
REMARK    5  A    between atoms: C_10  and  N_11 
ROOT
HETATM    1  N   LIG     1      26.305  23.227  24.224  1.00  0.00    -0.345 N 
HETATM    2  C   LIG     1      26.368  23.445  25.653  1.00  0.00     0.052 A 
HETATM    3  C   LIG     1      26.725  24.698  26.182  1.00  0.00     0.031 A 
HETATM    4  C   LIG     1      26.623  24.939  27.556  1.00  0.00     0.002 A 
HETATM    5  C   LIG     1      26.157  23.936  28.412  1.00  0.00     0.002 A 
HETATM    6  C   LIG     1      25.821  22.681  27.900  1.00  0.00     0.021 A 
HETATM    7  C   LIG     1      25.945  22.428  26.530  1.00  0.00     0.032 A 
HETATM    8  S   LIG     1      25.700  20.767  25.901  1.00  0.00    -0.086 SA
HETATM    9  C   LIG     1      24.761  21.322  24.479  1.00  0.00     0.032 A 
HETATM   10  C   LIG     1      25.235  22.400  23.708  1.00  0.00     0.053 A 
HETATM   11  C   LIG     1      24.558  22.742  22.524  1.00  0.00     0.053 A 
HETATM   12  C   LIG     1      23.420  22.028  22.127  1.00  0.00     0.046 A 
HETATM   13  C   LIG     1      22.727  22.391  20.918  1.00  0.00     0.099 C 
HETATM   14  N   LIG     1      22.171  22.682  19.946  1.00  0.00    -0.191 NA
HETATM   15  C   LIG     1      22.942  20.978  22.918  1.00  0.00     0.024 A 
HETATM   16  C   LIG     1      23.610  20.627  24.093  1.00  0.00     0.023 A 
ENDROOT
BRANCH   1  17
HETATM   17  C   LIG     1      27.395  23.695  23.354  1.00  0.00     0.131 C 
BRANCH  17  18
HETATM   18  C   LIG     1      28.085  22.527  22.622  1.00  0.00     0.050 C 
BRANCH  18  19
HETATM   19  C   LIG     1      29.116  23.031  21.599  1.00  0.00     0.274 C 
BRANCH  19  20
HETATM   20  N   LIG     1      28.569  23.016  20.224  1.00  0.00     0.088 N 
HETATM   21  C   LIG     1      27.372  22.137  20.120  1.00  0.00     0.275 C 
HETATM   22  C   LIG     1      26.452  22.539  18.961  1.00  0.00     0.062 C 
HETATM   23  C   LIG     1      25.899  23.962  19.166  1.00  0.00     0.121 C 
HETATM   24  C   LIG     1      26.898  24.868  19.920  1.00  0.00     0.062 C 
HETATM   25  C   LIG     1      28.345  24.397  19.718  1.00  0.00     0.275 C 
BRANCH  23  26
HETATM   26  O   LIG     1      25.592  24.515  17.911  1.00  0.00    -0.395 OA
HETATM   27  H   LIG     1      24.681  24.201  17.674  1.00  0.00     0.210 HD
ENDBRANCH  23  26
ENDBRANCH  19  20
ENDBRANCH  18  19
ENDBRANCH  17  18
ENDBRANCH   1  17
TORSDOF 5
ENDMDL
MODEL 8
REMARK VINA RESULT:      -5.3     15.176     16.720
REMARK  5 active torsions:
REMARK  status: ('A' for Active; 'I' for Inactive)
REMARK    1  A    between atoms: O_1  and  C_2 
REMARK    2  A    between atoms: N_5  and  C_8 
REMARK    3  A    between atoms: C_8  and  C_9 
REMARK    4  A    between atoms: C_9  and  C_10 
REMARK    5  A    between atoms: C_10  and  N_11 
ROOT
HETATM    1  N   LIG     1      27.344  24.753  19.730  1.00  0.00    -0.345 N 
HETATM    2  C   LIG     1      28.315  25.660  19.158  1.00  0.00     0.052 A 
HETATM    3  C   LIG     1      27.921  26.891  18.603  1.00  0.00     0.031 A 
HETATM    4  C   LIG     1      28.882  27.825  18.204  1.00  0.00     0.002 A 
HETATM    5  C   LIG     1      30.242  27.544  18.363  1.00  0.00     0.002 A 
HETATM    6  C   LIG     1      30.646  26.316  18.893  1.00  0.00     0.021 A 
HETATM    7  C   LIG     1      29.688  25.368  19.269  1.00  0.00     0.032 A 
HETATM    8  S   LIG     1      30.203  23.725  19.766  1.00  0.00    -0.086 SA
HETATM    9  C   LIG     1      29.046  23.652  21.134  1.00  0.00     0.032 A 
HETATM   10  C   LIG     1      27.707  24.038  20.935  1.00  0.00     0.053 A 
HETATM   11  C   LIG     1      26.782  23.855  21.978  1.00  0.00     0.053 A 
HETATM   12  C   LIG     1      27.194  23.311  23.203  1.00  0.00     0.046 A 
HETATM   13  C   LIG     1      26.242  23.136  24.269  1.00  0.00     0.099 C 
HETATM   14  N   LIG     1      25.477  22.995  25.126  1.00  0.00    -0.191 NA
HETATM   15  C   LIG     1      28.534  22.959  23.396  1.00  0.00     0.024 A 
HETATM   16  C   LIG     1      29.459  23.133  22.365  1.00  0.00     0.023 A 
ENDROOT
BRANCH   1  17
HETATM   17  C   LIG     1      26.099  24.447  19.008  1.00  0.00     0.131 C 
BRANCH  17  18
HETATM   18  C   LIG     1      26.059  22.981  18.531  1.00  0.00     0.050 C 
BRANCH  18  19
HETATM   19  C   LIG     1      24.629  22.540  18.179  1.00  0.00     0.274 C 
BRANCH  19  20
HETATM   20  N   LIG     1      24.136  21.503  19.113  1.00  0.00     0.088 N 
HETATM   21  C   LIG     1      25.179  21.115  20.102  1.00  0.00     0.275 C 
HETATM   22  C   LIG     1      24.576  20.548  21.393  1.00  0.00     0.062 C 
HETATM   23  C   LIG     1      23.707  21.601  22.104  1.00  0.00     0.121 C 
HETATM   24  C   LIG     1      23.028  22.563  21.103  1.00  0.00     0.062 C 
HETATM   25  C   LIG     1      22.843  21.903  19.730  1.00  0.00     0.275 C 
BRANCH  23  26
HETATM   26  O   LIG     1      22.737  20.943  22.880  1.00  0.00    -0.395 OA
HETATM   27  H   LIG     1      22.936  21.156  23.829  1.00  0.00     0.210 HD
ENDBRANCH  23  26
ENDBRANCH  19  20
ENDBRANCH  18  19
ENDBRANCH  17  18
ENDBRANCH   1  17
TORSDOF 5
ENDMDL
MODEL 9
REMARK VINA RESULT:      -5.3     15.806     17.550
REMARK  5 active torsions:
REMARK  status: ('A' for Active; 'I' for Inactive)
REMARK    1  A    between atoms: O_1  and  C_2 
REMARK    2  A    between atoms: N_5  and  C_8 
REMARK    3  A    between atoms: C_8  and  C_9 
REMARK    4  A    between atoms: C_9  and  C_10 
REMARK    5  A    between atoms: C_10  and  N_11 
ROOT
HETATM    1  N   LIG     1      25.912  23.034  18.770  1.00  0.00    -0.345 N 
HETATM    2  C   LIG     1      25.009  21.934  18.504  1.00  0.00     0.052 A 
HETATM    3  C   LIG     1      23.615  22.120  18.515  1.00  0.00     0.031 A 
HETATM    4  C   LIG     1      22.763  21.092  18.097  1.00  0.00     0.002 A 
HETATM    5  C   LIG     1      23.294  19.876  17.658  1.00  0.00     0.002 A 
HETATM    6  C   LIG     1      24.676  19.672  17.664  1.00  0.00     0.021 A 
HETATM    7  C   LIG     1      25.530  20.689  18.105  1.00  0.00     0.032 A 
HETATM    8  S   LIG     1      27.283  20.364  18.295  1.00  0.00    -0.086 SA
HETATM    9  C   LIG     1      27.768  21.933  17.576  1.00  0.00     0.032 A 
HETATM   10  C   LIG     1      27.130  23.117  17.993  1.00  0.00     0.053 A 
HETATM   11  C   LIG     1      27.606  24.352  17.517  1.00  0.00     0.053 A 
HETATM   12  C   LIG     1      28.690  24.399  16.630  1.00  0.00     0.046 A 
HETATM   13  C   LIG     1      29.165  25.667  16.140  1.00  0.00     0.099 C 
HETATM   14  N   LIG     1      29.547  26.686  15.747  1.00  0.00    -0.191 NA
HETATM   15  C   LIG     1      29.295  23.213  16.201  1.00  0.00     0.024 A 
HETATM   16  C   LIG     1      28.833  21.982  16.671  1.00  0.00     0.023 A 
ENDROOT
BRANCH   1  17
HETATM   17  C   LIG     1      25.671  23.933  19.909  1.00  0.00     0.131 C 
BRANCH  17  18
HETATM   18  C   LIG     1      26.681  23.696  21.049  1.00  0.00     0.050 C 
BRANCH  18  19
HETATM   19  C   LIG     1      26.386  22.389  21.803  1.00  0.00     0.274 C 
BRANCH  19  20
HETATM   20  N   LIG     1      25.061  22.429  22.460  1.00  0.00     0.088 N 
HETATM   21  C   LIG     1      24.232  21.247  22.096  1.00  0.00     0.275 C 
HETATM   22  C   LIG     1      23.171  20.929  23.156  1.00  0.00     0.062 C 
HETATM   23  C   LIG     1      23.827  20.571  24.502  1.00  0.00     0.121 C 
HETATM   24  C   LIG     1      25.161  21.323  24.714  1.00  0.00     0.062 C 
HETATM   25  C   LIG     1      25.192  22.640  23.927  1.00  0.00     0.275 C 
BRANCH  23  26
HETATM   26  O   LIG     1      22.929  20.871  25.541  1.00  0.00    -0.395 OA
HETATM   27  H   LIG     1      23.277  21.682  25.996  1.00  0.00     0.210 HD
ENDBRANCH  23  26
ENDBRANCH  19  20
ENDBRANCH  18  19
ENDBRANCH  17  18
ENDBRANCH   1  17
TORSDOF 5
ENDMDL
