REMARK  5 active torsions:
REMARK  status: ('A' for Active; 'I' for Inactive)
REMARK    1  A    between atoms: O_1  and  C_2 
REMARK    2  A    between atoms: N_5  and  C_8 
REMARK    3  A    between atoms: C_8  and  C_9 
REMARK    4  A    between atoms: C_9  and  C_10 
REMARK    5  A    between atoms: C_10  and  N_11 
ROOT
HETATM    1  N   LIG     1      -2.083  -0.238  -0.661  1.00  0.00    -0.345 N 
HETATM    2  C   LIG     1      -2.352  -1.444   0.092  1.00  0.00     0.052 A 
HETATM    3  C   LIG     1      -1.337  -2.084   0.826  1.00  0.00     0.031 A 
HETATM    4  C   LIG     1      -1.647  -3.150   1.677  1.00  0.00     0.002 A 
HETATM    5  C   LIG     1      -2.970  -3.581   1.809  1.00  0.00     0.002 A 
HETATM    6  C   LIG     1      -3.983  -2.967   1.068  1.00  0.00     0.021 A 
HETATM    7  C   LIG     1      -3.674  -1.917   0.197  1.00  0.00     0.032 A 
HETATM    8  S   LIG     1      -4.935  -1.259  -0.894  1.00  0.00    -0.086 SA
HETATM    9  C   LIG     1      -4.452   0.444  -0.612  1.00  0.00     0.032 A 
HETATM   10  C   LIG     1      -3.091   0.800  -0.666  1.00  0.00     0.053 A 
HETATM   11  C   LIG     1      -2.737   2.158  -0.571  1.00  0.00     0.053 A 
HETATM   12  C   LIG     1      -3.726   3.138  -0.409  1.00  0.00     0.046 A 
HETATM   13  C   LIG     1      -3.354   4.525  -0.303  1.00  0.00     0.099 C 
HETATM   14  N   LIG     1      -3.055   5.640  -0.218  1.00  0.00    -0.191 NA
HETATM   15  C   LIG     1      -5.072   2.767  -0.327  1.00  0.00     0.024 A 
HETATM   16  C   LIG     1      -5.434   1.422  -0.425  1.00  0.00     0.023 A 
ENDROOT
BRANCH   1  17
HETATM   17  C   LIG     1      -0.896  -0.153  -1.526  1.00  0.00     0.131 C 
BRANCH  17  18
HETATM   18  C   LIG     1       0.285   0.533  -0.811  1.00  0.00     0.050 C 
BRANCH  18  19
HETATM   19  C   LIG     1       1.629  -0.104  -1.201  1.00  0.00     0.274 C 
BRANCH  19  20
HETATM   20  N   LIG     1       2.771   0.652  -0.640  1.00  0.00     0.088 N 
HETATM   21  C   LIG     1       2.799   0.580   0.847  1.00  0.00     0.275 C 
HETATM   22  C   LIG     1       4.206   0.798   1.415  1.00  0.00     0.062 C 
HETATM   23  C   LIG     1       5.171  -0.301   0.933  1.00  0.00     0.121 C 
HETATM   24  C   LIG     1       4.805  -0.814  -0.478  1.00  0.00     0.062 C 
HETATM   25  C   LIG     1       4.051   0.253  -1.284  1.00  0.00     0.275 C 
BRANCH  23  26
HETATM   26  O   LIG     1       6.481   0.208   0.941  1.00  0.00    -0.395 OA
HETATM   27  H   LIG     1       7.093  -0.574   0.946  1.00  0.00     0.210 HD
ENDBRANCH  23  26
ENDBRANCH  19  20
ENDBRANCH  18  19
ENDBRANCH  17  18
ENDBRANCH   1  17
TORSDOF 5
