MODEL 1
REMARK VINA RESULT:      -6.8      0.000      0.000
REMARK  3 active torsions:
REMARK  status: ('A' for Active; 'I' for Inactive)
REMARK       I    between atoms: C_2  and  N_3 
REMARK    1  A    between atoms: N_3  and  C_4 
REMARK    2  A    between atoms: C_9  and  O_10 
REMARK    3  A    between atoms: O_10  and  C_11 
ROOT
HETATM    1  C   LIG     1      15.810  35.246  20.111  1.00  0.00     0.034 A 
HETATM    2  C   LIG     1      17.116  35.756  20.099  1.00  0.00     0.032 A 
HETATM    3  C   LIG     1      17.568  36.576  21.137  1.00  0.00     0.039 A 
HETATM    4  C   LIG     1      14.945  35.610  21.159  1.00  0.00     0.032 A 
HETATM    5  C   LIG     1      15.397  36.431  22.196  1.00  0.00     0.039 A 
HETATM    6  C   LIG     1      16.722  36.902  22.202  1.00  0.00     0.079 A 
ENDROOT
BRANCH   1   7
HETATM    7  N   LIG     1      15.363  34.422  19.020  1.00  0.00    -0.328 N 
HETATM    8  C   LIG     1      15.284  32.989  19.074  1.00  0.00     0.218 C 
HETATM    9  C   LIG     1      14.594  32.229  17.987  1.00  0.00     0.117 C 
HETATM   10  O   LIG     1      15.827  32.350  20.016  1.00  0.00    -0.274 OA
HETATM   11  H   LIG     1      15.167  34.889  18.105  1.00  0.00     0.169 HD
ENDBRANCH   1   7
BRANCH   6  12
HETATM   12  O   LIG     1      17.208  37.735  23.219  1.00  0.00    -0.279 OA
BRANCH  12  13
HETATM   13  C   LIG     1      17.135  37.469  24.593  1.00  0.00     0.260 C 
HETATM   14  C   LIG     1      17.506  36.137  25.173  1.00  0.00     0.126 C 
HETATM   15  O   LIG     1      16.783  38.393  25.371  1.00  0.00    -0.265 OA
ENDBRANCH  12  13
ENDBRANCH   6  12
TORSDOF 3
ENDMDL
MODEL 2
REMARK VINA RESULT:      -6.6      3.664      4.416
REMARK  3 active torsions:
REMARK  status: ('A' for Active; 'I' for Inactive)
REMARK       I    between atoms: C_2  and  N_3 
REMARK    1  A    between atoms: N_3  and  C_4 
REMARK    2  A    between atoms: C_9  and  O_10 
REMARK    3  A    between atoms: O_10  and  C_11 
ROOT
HETATM    1  C   LIG     1      18.033  38.557  21.562  1.00  0.00     0.034 A 
HETATM    2  C   LIG     1      18.607  39.084  22.728  1.00  0.00     0.032 A 
HETATM    3  C   LIG     1      18.299  38.541  23.979  1.00  0.00     0.039 A 
HETATM    4  C   LIG     1      17.106  37.505  21.673  1.00  0.00     0.032 A 
HETATM    5  C   LIG     1      16.797  36.964  22.924  1.00  0.00     0.039 A 
HETATM    6  C   LIG     1      17.410  37.466  24.085  1.00  0.00     0.079 A 
ENDROOT
BRANCH   1   7
HETATM    7  N   LIG     1      18.350  39.147  20.289  1.00  0.00    -0.328 N 
HETATM    8  C   LIG     1      19.055  38.466  19.240  1.00  0.00     0.218 C 
HETATM    9  C   LIG     1      19.139  39.066  17.873  1.00  0.00     0.117 C 
HETATM   10  O   LIG     1      19.643  37.373  19.464  1.00  0.00    -0.274 OA
HETATM   11  H   LIG     1      18.131  40.161  20.154  1.00  0.00     0.169 HD
ENDBRANCH   1   7
BRANCH   6  12
HETATM   12  O   LIG     1      17.118  36.956  25.358  1.00  0.00    -0.279 OA
BRANCH  12  13
HETATM   13  C   LIG     1      17.999  36.217  26.159  1.00  0.00     0.260 C 
HETATM   14  C   LIG     1      18.025  34.717  26.151  1.00  0.00     0.126 C 
HETATM   15  O   LIG     1      18.824  36.833  26.881  1.00  0.00    -0.265 OA
ENDBRANCH  12  13
ENDBRANCH   6  12
TORSDOF 3
ENDMDL
MODEL 3
REMARK VINA RESULT:      -6.4      4.205      9.289
REMARK  3 active torsions:
REMARK  status: ('A' for Active; 'I' for Inactive)
REMARK       I    between atoms: C_2  and  N_3 
REMARK    1  A    between atoms: N_3  and  C_4 
REMARK    2  A    between atoms: C_9  and  O_10 
REMARK    3  A    between atoms: O_10  and  C_11 
ROOT
HETATM    1  C   LIG     1      14.758  32.308  17.035  1.00  0.00     0.034 A 
HETATM    2  C   LIG     1      13.585  31.544  16.954  1.00  0.00     0.032 A 
HETATM    3  C   LIG     1      13.373  30.680  15.877  1.00  0.00     0.039 A 
HETATM    4  C   LIG     1      15.699  32.226  15.992  1.00  0.00     0.032 A 
HETATM    5  C   LIG     1      15.486  31.362  14.915  1.00  0.00     0.039 A 
HETATM    6  C   LIG     1      14.329  30.566  14.862  1.00  0.00     0.079 A 
ENDROOT
BRANCH   1   7
HETATM    7  N   LIG     1      14.942  33.206  18.144  1.00  0.00    -0.328 N 
HETATM    8  C   LIG     1      15.365  32.792  19.453  1.00  0.00     0.218 C 
HETATM    9  C   LIG     1      15.753  33.809  20.477  1.00  0.00     0.117 C 
HETATM   10  O   LIG     1      15.378  31.571  19.768  1.00  0.00    -0.274 OA
HETATM   11  H   LIG     1      14.667  34.206  18.012  1.00  0.00     0.169 HD
ENDBRANCH   1   7
BRANCH   6  12
HETATM   12  O   LIG     1      14.076  29.696  13.792  1.00  0.00    -0.279 OA
BRANCH  12  13
HETATM   13  C   LIG     1      14.242  28.304  13.819  1.00  0.00     0.260 C 
HETATM   14  C   LIG     1      15.594  27.656  13.780  1.00  0.00     0.126 C 
HETATM   15  O   LIG     1      13.222  27.574  13.919  1.00  0.00    -0.265 OA
ENDBRANCH  12  13
ENDBRANCH   6  12
TORSDOF 3
ENDMDL
MODEL 4
REMARK VINA RESULT:      -6.3      1.646      1.921
REMARK  3 active torsions:
REMARK  status: ('A' for Active; 'I' for Inactive)
REMARK       I    between atoms: C_2  and  N_3 
REMARK    1  A    between atoms: N_3  and  C_4 
REMARK    2  A    between atoms: C_9  and  O_10 
REMARK    3  A    between atoms: O_10  and  C_11 
ROOT
HETATM    1  C   LIG     1      15.371  34.413  20.898  1.00  0.00     0.034 A 
HETATM    2  C   LIG     1      16.697  34.318  21.345  1.00  0.00     0.032 A 
HETATM    3  C   LIG     1      17.263  35.342  22.109  1.00  0.00     0.039 A 
HETATM    4  C   LIG     1      14.634  35.575  21.189  1.00  0.00     0.032 A 
HETATM    5  C   LIG     1      15.202  36.599  21.953  1.00  0.00     0.039 A 
HETATM    6  C   LIG     1      16.516  36.478  22.436  1.00  0.00     0.079 A 
ENDROOT
BRANCH   1   7
HETATM    7  N   LIG     1      14.818  33.355  20.095  1.00  0.00    -0.328 N 
HETATM    8  C   LIG     1      15.057  33.205  18.687  1.00  0.00     0.218 C 
HETATM    9  C   LIG     1      14.637  31.957  17.979  1.00  0.00     0.117 C 
HETATM   10  O   LIG     1      15.587  34.136  18.022  1.00  0.00    -0.274 OA
HETATM   11  H   LIG     1      14.131  32.708  20.547  1.00  0.00     0.169 HD
ENDBRANCH   1   7
BRANCH   6  12
HETATM   12  O   LIG     1      17.123  37.489  23.195  1.00  0.00    -0.279 OA
BRANCH  12  13
HETATM   13  C   LIG     1      17.312  38.814  22.781  1.00  0.00     0.260 C 
HETATM   14  C   LIG     1      18.361  39.202  21.782  1.00  0.00     0.126 C 
HETATM   15  O   LIG     1      16.547  39.706  23.233  1.00  0.00    -0.265 OA
ENDBRANCH  12  13
ENDBRANCH   6  12
TORSDOF 3
ENDMDL
MODEL 5
REMARK VINA RESULT:      -6.2      1.806      5.860
REMARK  3 active torsions:
REMARK  status: ('A' for Active; 'I' for Inactive)
REMARK       I    between atoms: C_2  and  N_3 
REMARK    1  A    between atoms: N_3  and  C_4 
REMARK    2  A    between atoms: C_9  and  O_10 
REMARK    3  A    between atoms: O_10  and  C_11 
ROOT
HETATM    1  C   LIG     1      16.194  36.881  22.279  1.00  0.00     0.034 A 
HETATM    2  C   LIG     1      17.271  36.530  21.453  1.00  0.00     0.032 A 
HETATM    3  C   LIG     1      17.078  35.690  20.353  1.00  0.00     0.039 A 
HETATM    4  C   LIG     1      14.924  36.337  22.012  1.00  0.00     0.032 A 
HETATM    5  C   LIG     1      14.732  35.497  20.913  1.00  0.00     0.039 A 
HETATM    6  C   LIG     1      15.807  35.185  20.062  1.00  0.00     0.079 A 
ENDROOT
BRANCH   1   7
HETATM    7  N   LIG     1      16.423  37.730  23.417  1.00  0.00    -0.328 N 
HETATM    8  C   LIG     1      17.029  37.287  24.642  1.00  0.00     0.218 C 
HETATM    9  C   LIG     1      17.440  38.279  25.682  1.00  0.00     0.117 C 
HETATM   10  O   LIG     1      17.189  36.058  24.873  1.00  0.00    -0.274 OA
HETATM   11  H   LIG     1      16.045  38.705  23.383  1.00  0.00     0.169 HD
ENDBRANCH   1   7
BRANCH   6  12
HETATM   12  O   LIG     1      15.655  34.337  18.956  1.00  0.00    -0.279 OA
BRANCH  12  13
HETATM   13  C   LIG     1      15.356  32.969  19.015  1.00  0.00     0.260 C 
HETATM   14  C   LIG     1      14.612  32.261  17.923  1.00  0.00     0.126 C 
HETATM   15  O   LIG     1      15.762  32.302  20.003  1.00  0.00    -0.265 OA
ENDBRANCH  12  13
ENDBRANCH   6  12
TORSDOF 3
ENDMDL
MODEL 6
REMARK VINA RESULT:      -6.0      6.867      8.831
REMARK  3 active torsions:
REMARK  status: ('A' for Active; 'I' for Inactive)
REMARK       I    between atoms: C_2  and  N_3 
REMARK    1  A    between atoms: N_3  and  C_4 
REMARK    2  A    between atoms: C_9  and  O_10 
REMARK    3  A    between atoms: O_10  and  C_11 
ROOT
HETATM    1  C   LIG     1      13.452  29.807  14.459  1.00  0.00     0.034 A 
HETATM    2  C   LIG     1      13.127  30.439  15.668  1.00  0.00     0.032 A 
HETATM    3  C   LIG     1      14.019  31.334  16.264  1.00  0.00     0.039 A 
HETATM    4  C   LIG     1      14.710  30.052  13.878  1.00  0.00     0.032 A 
HETATM    5  C   LIG     1      15.602  30.947  14.475  1.00  0.00     0.039 A 
HETATM    6  C   LIG     1      15.251  31.612  15.663  1.00  0.00     0.079 A 
ENDROOT
BRANCH   1   7
HETATM    7  N   LIG     1      12.526  28.873  13.878  1.00  0.00    -0.328 N 
HETATM    8  C   LIG     1      12.862  27.521  13.524  1.00  0.00     0.218 C 
HETATM    9  C   LIG     1      11.789  26.552  13.144  1.00  0.00     0.117 C 
HETATM   10  O   LIG     1      14.065  27.145  13.492  1.00  0.00    -0.274 OA
HETATM   11  H   LIG     1      11.577  29.225  13.617  1.00  0.00     0.169 HD
ENDBRANCH   1   7
BRANCH   6  12
HETATM   12  O   LIG     1      16.123  32.508  16.296  1.00  0.00    -0.279 OA
BRANCH  12  13
HETATM   13  C   LIG     1      16.568  33.725  15.761  1.00  0.00     0.260 C 
HETATM   14  C   LIG     1      17.580  33.795  14.657  1.00  0.00     0.126 C 
HETATM   15  O   LIG     1      16.069  34.796  16.196  1.00  0.00    -0.265 OA
ENDBRANCH  12  13
ENDBRANCH   6  12
TORSDOF 3
ENDMDL
MODEL 7
REMARK VINA RESULT:      -6.0      5.243      7.856
REMARK  3 active torsions:
REMARK  status: ('A' for Active; 'I' for Inactive)
REMARK       I    between atoms: C_2  and  N_3 
REMARK    1  A    between atoms: N_3  and  C_4 
REMARK    2  A    between atoms: C_9  and  O_10 
REMARK    3  A    between atoms: O_10  and  C_11 
ROOT
HETATM    1  C   LIG     1      13.327  30.098  14.879  1.00  0.00     0.034 A 
HETATM    2  C   LIG     1      12.753  30.596  16.058  1.00  0.00     0.032 A 
HETATM    3  C   LIG     1      13.444  31.515  16.852  1.00  0.00     0.039 A 
HETATM    4  C   LIG     1      14.629  30.502  14.532  1.00  0.00     0.032 A 
HETATM    5  C   LIG     1      15.320  31.421  15.326  1.00  0.00     0.039 A 
HETATM    6  C   LIG     1      14.721  31.951  16.483  1.00  0.00     0.079 A 
ENDROOT
BRANCH   1   7
HETATM    7  N   LIG     1      12.604  29.137  14.092  1.00  0.00    -0.328 N 
HETATM    8  C   LIG     1      13.100  27.829  13.763  1.00  0.00     0.218 C 
HETATM    9  C   LIG     1      12.196  26.813  13.142  1.00  0.00     0.117 C 
HETATM   10  O   LIG     1      14.310  27.533  13.959  1.00  0.00    -0.274 OA
HETATM   11  H   LIG     1      11.701  29.441  13.659  1.00  0.00     0.169 HD
ENDBRANCH   1   7
BRANCH   6  12
HETATM   12  O   LIG     1      15.387  32.866  17.310  1.00  0.00    -0.279 OA
BRANCH  12  13
HETATM   13  C   LIG     1      15.351  32.871  18.711  1.00  0.00     0.260 C 
HETATM   14  C   LIG     1      14.979  31.656  19.509  1.00  0.00     0.126 C 
HETATM   15  O   LIG     1      15.680  33.920  19.322  1.00  0.00    -0.265 OA
ENDBRANCH  12  13
ENDBRANCH   6  12
TORSDOF 3
ENDMDL
MODEL 8
REMARK VINA RESULT:      -5.8      2.527      3.913
REMARK  3 active torsions:
REMARK  status: ('A' for Active; 'I' for Inactive)
REMARK       I    between atoms: C_2  and  N_3 
REMARK    1  A    between atoms: N_3  and  C_4 
REMARK    2  A    between atoms: C_9  and  O_10 
REMARK    3  A    between atoms: O_10  and  C_11 
ROOT
HETATM    1  C   LIG     1      14.979  32.422  17.860  1.00  0.00     0.034 A 
HETATM    2  C   LIG     1      15.073  33.757  17.439  1.00  0.00     0.032 A 
HETATM    3  C   LIG     1      15.338  34.775  18.359  1.00  0.00     0.039 A 
HETATM    4  C   LIG     1      15.109  32.129  19.230  1.00  0.00     0.032 A 
HETATM    5  C   LIG     1      15.373  33.147  20.150  1.00  0.00     0.039 A 
HETATM    6  C   LIG     1      15.511  34.477  19.715  1.00  0.00     0.079 A 
ENDROOT
BRANCH   1   7
HETATM    7  N   LIG     1      14.684  31.396  16.897  1.00  0.00    -0.328 N 
HETATM    8  C   LIG     1      13.365  31.107  16.407  1.00  0.00     0.218 C 
HETATM    9  C   LIG     1      13.176  30.188  15.243  1.00  0.00     0.117 C 
HETATM   10  O   LIG     1      12.349  31.593  16.974  1.00  0.00    -0.274 OA
HETATM   11  H   LIG     1      15.465  30.765  16.602  1.00  0.00     0.169 HD
ENDBRANCH   1   7
BRANCH   6  12
HETATM   12  O   LIG     1      15.765  35.527  20.609  1.00  0.00    -0.279 OA
BRANCH  12  13
HETATM   13  C   LIG     1      16.934  35.685  21.365  1.00  0.00     0.260 C 
HETATM   14  C   LIG     1      17.043  35.214  22.785  1.00  0.00     0.126 C 
HETATM   15  O   LIG     1      17.943  36.206  20.821  1.00  0.00    -0.265 OA
ENDBRANCH  12  13
ENDBRANCH   6  12
TORSDOF 3
ENDMDL
MODEL 9
REMARK VINA RESULT:      -5.6      2.697      7.553
REMARK  3 active torsions:
REMARK  status: ('A' for Active; 'I' for Inactive)
REMARK       I    between atoms: C_2  and  N_3 
REMARK    1  A    between atoms: N_3  and  C_4 
REMARK    2  A    between atoms: C_9  and  O_10 
REMARK    3  A    between atoms: O_10  and  C_11 
ROOT
HETATM    1  C   LIG     1      15.496  33.770  19.087  1.00  0.00     0.034 A 
HETATM    2  C   LIG     1      15.187  34.243  17.803  1.00  0.00     0.032 A 
HETATM    3  C   LIG     1      14.539  33.419  16.880  1.00  0.00     0.039 A 
HETATM    4  C   LIG     1      15.186  32.438  19.416  1.00  0.00     0.032 A 
HETATM    5  C   LIG     1      14.538  31.614  18.491  1.00  0.00     0.039 A 
HETATM    6  C   LIG     1      14.191  32.108  17.221  1.00  0.00     0.079 A 
ENDROOT
BRANCH   1   7
HETATM    7  N   LIG     1      16.182  34.632  20.012  1.00  0.00    -0.328 N 
HETATM    8  C   LIG     1      15.776  34.835  21.375  1.00  0.00     0.218 C 
HETATM    9  C   LIG     1      16.671  35.559  22.329  1.00  0.00     0.117 C 
HETATM   10  O   LIG     1      14.648  34.440  21.775  1.00  0.00    -0.274 OA
HETATM   11  H   LIG     1      16.971  35.212  19.644  1.00  0.00     0.169 HD
ENDBRANCH   1   7
BRANCH   6  12
HETATM   12  O   LIG     1      13.551  31.308  16.264  1.00  0.00    -0.279 OA
BRANCH  12  13
HETATM   13  C   LIG     1      14.190  30.607  15.233  1.00  0.00     0.260 C 
HETATM   14  C   LIG     1      13.495  29.546  14.433  1.00  0.00     0.126 C 
HETATM   15  O   LIG     1      15.378  30.905  14.942  1.00  0.00    -0.265 OA
ENDBRANCH  12  13
ENDBRANCH   6  12
TORSDOF 3
ENDMDL
MODEL 10
REMARK VINA RESULT:      -5.5      1.663      2.130
REMARK  3 active torsions:
REMARK  status: ('A' for Active; 'I' for Inactive)
REMARK       I    between atoms: C_2  and  N_3 
REMARK    1  A    between atoms: N_3  and  C_4 
REMARK    2  A    between atoms: C_9  and  O_10 
REMARK    3  A    between atoms: O_10  and  C_11 
ROOT
HETATM    1  C   LIG     1      16.762  35.781  21.258  1.00  0.00     0.034 A 
HETATM    2  C   LIG     1      16.671  37.117  21.675  1.00  0.00     0.032 A 
HETATM    3  C   LIG     1      16.836  37.453  23.021  1.00  0.00     0.039 A 
HETATM    4  C   LIG     1      16.975  34.778  22.222  1.00  0.00     0.032 A 
HETATM    5  C   LIG     1      17.139  35.115  23.568  1.00  0.00     0.039 A 
HETATM    6  C   LIG     1      17.091  36.461  23.973  1.00  0.00     0.079 A 
ENDROOT
BRANCH   1   7
HETATM    7  N   LIG     1      16.568  35.458  19.870  1.00  0.00    -0.328 N 
HETATM    8  C   LIG     1      15.661  34.449  19.398  1.00  0.00     0.218 C 
HETATM    9  C   LIG     1      15.348  34.337  17.940  1.00  0.00     0.117 C 
HETATM   10  O   LIG     1      15.147  33.622  20.199  1.00  0.00    -0.274 OA
HETATM   11  H   LIG     1      17.188  35.926  19.169  1.00  0.00     0.169 HD
ENDBRANCH   1   7
BRANCH   6  12
HETATM   12  O   LIG     1      17.240  36.837  25.316  1.00  0.00    -0.279 OA
BRANCH  12  13
HETATM   13  C   LIG     1      18.175  36.300  26.211  1.00  0.00     0.260 C 
HETATM   14  C   LIG     1      18.290  34.827  26.465  1.00  0.00     0.126 C 
HETATM   15  O   LIG     1      18.974  37.080  26.793  1.00  0.00    -0.265 OA
ENDBRANCH  12  13
ENDBRANCH   6  12
TORSDOF 3
ENDMDL
MODEL 11
REMARK VINA RESULT:      -5.5      7.187      8.889
REMARK  3 active torsions:
REMARK  status: ('A' for Active; 'I' for Inactive)
REMARK       I    between atoms: C_2  and  N_3 
REMARK    1  A    between atoms: N_3  and  C_4 
REMARK    2  A    between atoms: C_9  and  O_10 
REMARK    3  A    between atoms: O_10  and  C_11 
ROOT
HETATM    1  C   LIG     1      17.299  33.083  13.345  1.00  0.00     0.034 A 
HETATM    2  C   LIG     1      16.336  32.074  13.202  1.00  0.00     0.032 A 
HETATM    3  C   LIG     1      15.538  31.696  14.286  1.00  0.00     0.039 A 
HETATM    4  C   LIG     1      17.484  33.676  14.607  1.00  0.00     0.032 A 
HETATM    5  C   LIG     1      16.686  33.297  15.690  1.00  0.00     0.039 A 
HETATM    6  C   LIG     1      15.691  32.317  15.529  1.00  0.00     0.079 A 
ENDROOT
BRANCH   1   7
HETATM    7  N   LIG     1      18.122  33.438  12.220  1.00  0.00    -0.328 N 
HETATM    8  C   LIG     1      18.087  34.719  11.570  1.00  0.00     0.218 C 
HETATM    9  C   LIG     1      19.131  35.084  10.565  1.00  0.00     0.117 C 
HETATM   10  O   LIG     1      17.157  35.536  11.810  1.00  0.00    -0.274 OA
HETATM   11  H   LIG     1      18.718  32.691  11.796  1.00  0.00     0.169 HD
ENDBRANCH   1   7
BRANCH   6  12
HETATM   12  O   LIG     1      14.879  31.903  16.595  1.00  0.00    -0.279 OA
BRANCH  12  13
HETATM   13  C   LIG     1      13.512  31.608  16.508  1.00  0.00     0.260 C 
HETATM   14  C   LIG     1      13.007  30.272  16.050  1.00  0.00     0.126 C 
HETATM   15  O   LIG     1      12.679  32.481  16.865  1.00  0.00    -0.265 OA
ENDBRANCH  12  13
ENDBRANCH   6  12
TORSDOF 3
ENDMDL
MODEL 12
REMARK VINA RESULT:      -5.4      5.376      7.632
REMARK  3 active torsions:
REMARK  status: ('A' for Active; 'I' for Inactive)
REMARK       I    between atoms: C_2  and  N_3 
REMARK    1  A    between atoms: N_3  and  C_4 
REMARK    2  A    between atoms: C_9  and  O_10 
REMARK    3  A    between atoms: O_10  and  C_11 
ROOT
HETATM    1  C   LIG     1      16.707  32.723  14.113  1.00  0.00     0.034 A 
HETATM    2  C   LIG     1      16.763  33.637  15.175  1.00  0.00     0.032 A 
HETATM    3  C   LIG     1      15.937  33.480  16.291  1.00  0.00     0.039 A 
HETATM    4  C   LIG     1      15.774  31.672  14.166  1.00  0.00     0.032 A 
HETATM    5  C   LIG     1      14.948  31.515  15.282  1.00  0.00     0.039 A 
HETATM    6  C   LIG     1      15.040  32.409  16.363  1.00  0.00     0.079 A 
ENDROOT
BRANCH   1   7
HETATM    7  N   LIG     1      17.553  32.920  12.966  1.00  0.00    -0.328 N 
HETATM    8  C   LIG     1      17.864  34.206  12.407  1.00  0.00     0.218 C 
HETATM    9  C   LIG     1      18.929  34.339  11.366  1.00  0.00     0.117 C 
HETATM   10  O   LIG     1      17.221  35.232  12.758  1.00  0.00    -0.274 OA
HETATM   11  H   LIG     1      17.890  32.070  12.457  1.00  0.00     0.169 HD
ENDBRANCH   1   7
BRANCH   6  12
HETATM   12  O   LIG     1      14.220  32.291  17.495  1.00  0.00    -0.279 OA
BRANCH  12  13
HETATM   13  C   LIG     1      14.658  31.963  18.785  1.00  0.00     0.260 C 
HETATM   14  C   LIG     1      15.435  32.922  19.637  1.00  0.00     0.126 C 
HETATM   15  O   LIG     1      14.354  30.838  19.261  1.00  0.00    -0.265 OA
ENDBRANCH  12  13
ENDBRANCH   6  12
TORSDOF 3
ENDMDL
MODEL 13
REMARK VINA RESULT:      -5.4      8.148     10.247
REMARK  3 active torsions:
REMARK  status: ('A' for Active; 'I' for Inactive)
REMARK       I    between atoms: C_2  and  N_3 
REMARK    1  A    between atoms: N_3  and  C_4 
REMARK    2  A    between atoms: C_9  and  O_10 
REMARK    3  A    between atoms: O_10  and  C_11 
ROOT
HETATM    1  C   LIG     1      13.524  28.257  13.957  1.00  0.00     0.034 A 
HETATM    2  C   LIG     1      12.808  29.255  14.635  1.00  0.00     0.032 A 
HETATM    3  C   LIG     1      13.442  30.433  15.039  1.00  0.00     0.039 A 
HETATM    4  C   LIG     1      14.900  28.438  13.733  1.00  0.00     0.032 A 
HETATM    5  C   LIG     1      15.534  29.615  14.138  1.00  0.00     0.039 A 
HETATM    6  C   LIG     1      14.802  30.632  14.777  1.00  0.00     0.079 A 
ENDROOT
BRANCH   1   7
HETATM    7  N   LIG     1      12.853  27.045  13.571  1.00  0.00    -0.328 N 
HETATM    8  C   LIG     1      11.610  27.008  12.851  1.00  0.00     0.218 C 
HETATM    9  C   LIG     1      11.102  25.719  12.289  1.00  0.00     0.117 C 
HETATM   10  O   LIG     1      10.914  28.050  12.716  1.00  0.00    -0.274 OA
HETATM   11  H   LIG     1      13.249  26.138  13.911  1.00  0.00     0.169 HD
ENDBRANCH   1   7
BRANCH   6  12
HETATM   12  O   LIG     1      15.405  31.822  15.207  1.00  0.00    -0.279 OA
BRANCH  12  13
HETATM   13  C   LIG     1      16.366  32.551  14.494  1.00  0.00     0.260 C 
HETATM   14  C   LIG     1      17.700  32.909  15.078  1.00  0.00     0.126 C 
HETATM   15  O   LIG     1      16.116  32.882  13.305  1.00  0.00    -0.265 OA
ENDBRANCH  12  13
ENDBRANCH   6  12
TORSDOF 3
ENDMDL
MODEL 14
REMARK VINA RESULT:      -5.3      7.379      9.013
REMARK  3 active torsions:
REMARK  status: ('A' for Active; 'I' for Inactive)
REMARK       I    between atoms: C_2  and  N_3 
REMARK    1  A    between atoms: N_3  and  C_4 
REMARK    2  A    between atoms: C_9  and  O_10 
REMARK    3  A    between atoms: O_10  and  C_11 
ROOT
HETATM    1  C   LIG     1      16.142  31.947  14.579  1.00  0.00     0.034 A 
HETATM    2  C   LIG     1      17.192  32.366  15.408  1.00  0.00     0.032 A 
HETATM    3  C   LIG     1      18.205  33.190  14.910  1.00  0.00     0.039 A 
HETATM    4  C   LIG     1      16.147  32.330  13.225  1.00  0.00     0.032 A 
HETATM    5  C   LIG     1      17.161  33.154  12.727  1.00  0.00     0.039 A 
HETATM    6  C   LIG     1      18.187  33.607  13.575  1.00  0.00     0.079 A 
ENDROOT
BRANCH   1   7
HETATM    7  N   LIG     1      15.123  31.081  15.110  1.00  0.00    -0.328 N 
HETATM    8  C   LIG     1      14.129  31.497  16.060  1.00  0.00     0.218 C 
HETATM    9  C   LIG     1      12.973  30.605  16.382  1.00  0.00     0.117 C 
HETATM   10  O   LIG     1      14.236  32.600  16.661  1.00  0.00    -0.274 OA
HETATM   11  H   LIG     1      15.164  30.067  14.856  1.00  0.00     0.169 HD
ENDBRANCH   1   7
BRANCH   6  12
HETATM   12  O   LIG     1      19.226  34.425  13.110  1.00  0.00    -0.279 OA
BRANCH  12  13
HETATM   13  C   LIG     1      20.425  33.972  12.544  1.00  0.00     0.260 C 
HETATM   14  C   LIG     1      21.750  34.603  12.857  1.00  0.00     0.126 C 
HETATM   15  O   LIG     1      20.395  32.975  11.776  1.00  0.00    -0.265 OA
ENDBRANCH  12  13
ENDBRANCH   6  12
TORSDOF 3
ENDMDL
MODEL 15
REMARK VINA RESULT:      -5.0      4.386      9.435
REMARK  3 active torsions:
REMARK  status: ('A' for Active; 'I' for Inactive)
REMARK       I    between atoms: C_2  and  N_3 
REMARK    1  A    between atoms: N_3  and  C_4 
REMARK    2  A    between atoms: C_9  and  O_10 
REMARK    3  A    between atoms: O_10  and  C_11 
ROOT
HETATM    1  C   LIG     1      15.005  32.032  17.017  1.00  0.00     0.034 A 
HETATM    2  C   LIG     1      15.797  31.898  15.867  1.00  0.00     0.032 A 
HETATM    3  C   LIG     1      15.381  31.086  14.809  1.00  0.00     0.039 A 
HETATM    4  C   LIG     1      13.809  31.299  17.110  1.00  0.00     0.032 A 
HETATM    5  C   LIG     1      13.393  30.486  16.052  1.00  0.00     0.039 A 
HETATM    6  C   LIG     1      14.169  30.392  14.883  1.00  0.00     0.079 A 
ENDROOT
BRANCH   1   7
HETATM    7  N   LIG     1      15.466  32.857  18.101  1.00  0.00    -0.328 N 
HETATM    8  C   LIG     1      15.339  34.287  18.134  1.00  0.00     0.218 C 
HETATM    9  C   LIG     1      15.631  35.043  19.390  1.00  0.00     0.117 C 
HETATM   10  O   LIG     1      15.016  34.928  17.097  1.00  0.00    -0.274 OA
HETATM   11  H   LIG     1      16.005  32.396  18.871  1.00  0.00     0.169 HD
ENDBRANCH   1   7
BRANCH   6  12
HETATM   12  O   LIG     1      13.791  29.578  13.805  1.00  0.00    -0.279 OA
BRANCH  12  13
HETATM   13  C   LIG     1      13.946  28.187  13.744  1.00  0.00     0.260 C 
HETATM   14  C   LIG     1      12.778  27.253  13.627  1.00  0.00     0.126 C 
HETATM   15  O   LIG     1      15.109  27.705  13.747  1.00  0.00    -0.265 OA
ENDBRANCH  12  13
ENDBRANCH   6  12
TORSDOF 3
ENDMDL
MODEL 16
REMARK VINA RESULT:      -4.9      2.594      6.823
REMARK  3 active torsions:
REMARK  status: ('A' for Active; 'I' for Inactive)
REMARK       I    between atoms: C_2  and  N_3 
REMARK    1  A    between atoms: N_3  and  C_4 
REMARK    2  A    between atoms: C_9  and  O_10 
REMARK    3  A    between atoms: O_10  and  C_11 
ROOT
HETATM    1  C   LIG     1      15.731  34.680  20.114  1.00  0.00     0.034 A 
HETATM    2  C   LIG     1      15.525  35.050  18.777  1.00  0.00     0.032 A 
HETATM    3  C   LIG     1      15.196  34.090  17.817  1.00  0.00     0.039 A 
HETATM    4  C   LIG     1      15.648  33.321  20.466  1.00  0.00     0.032 A 
HETATM    5  C   LIG     1      15.320  32.360  19.505  1.00  0.00     0.039 A 
HETATM    6  C   LIG     1      15.070  32.744  18.176  1.00  0.00     0.079 A 
ENDROOT
BRANCH   1   7
HETATM    7  N   LIG     1      16.090  35.684  21.079  1.00  0.00    -0.328 N 
HETATM    8  C   LIG     1      17.270  36.500  20.990  1.00  0.00     0.218 C 
HETATM    9  C   LIG     1      17.448  37.671  21.903  1.00  0.00     0.117 C 
HETATM   10  O   LIG     1      18.185  36.219  20.171  1.00  0.00    -0.274 OA
HETATM   11  H   LIG     1      15.504  35.764  21.941  1.00  0.00     0.169 HD
ENDBRANCH   1   7
BRANCH   6  12
HETATM   12  O   LIG     1      14.749  31.809  17.182  1.00  0.00    -0.279 OA
BRANCH  12  13
HETATM   13  C   LIG     1      13.458  31.348  16.886  1.00  0.00     0.260 C 
HETATM   14  C   LIG     1      12.321  32.280  16.590  1.00  0.00     0.126 C 
HETATM   15  O   LIG     1      13.256  30.107  16.827  1.00  0.00    -0.265 OA
ENDBRANCH  12  13
ENDBRANCH   6  12
TORSDOF 3
ENDMDL
MODEL 17
REMARK VINA RESULT:      -4.8      2.406      3.683
REMARK  3 active torsions:
REMARK  status: ('A' for Active; 'I' for Inactive)
REMARK       I    between atoms: C_2  and  N_3 
REMARK    1  A    between atoms: N_3  and  C_4 
REMARK    2  A    between atoms: C_9  and  O_10 
REMARK    3  A    between atoms: O_10  and  C_11 
ROOT
HETATM    1  C   LIG     1      16.119  35.357  21.030  1.00  0.00     0.034 A 
HETATM    2  C   LIG     1      16.194  36.293  22.071  1.00  0.00     0.032 A 
HETATM    3  C   LIG     1      17.063  37.383  21.985  1.00  0.00     0.039 A 
HETATM    4  C   LIG     1      16.966  35.505  19.917  1.00  0.00     0.032 A 
HETATM    5  C   LIG     1      17.836  36.595  19.831  1.00  0.00     0.039 A 
HETATM    6  C   LIG     1      17.874  37.555  20.858  1.00  0.00     0.079 A 
ENDROOT
BRANCH   1   7
HETATM    7  N   LIG     1      15.231  34.232  21.153  1.00  0.00    -0.328 N 
HETATM    8  C   LIG     1      15.184  33.139  20.222  1.00  0.00     0.218 C 
HETATM    9  C   LIG     1      14.403  31.905  20.546  1.00  0.00     0.117 C 
HETATM   10  O   LIG     1      15.766  33.219  19.107  1.00  0.00    -0.274 OA
HETATM   11  H   LIG     1      14.518  34.254  21.918  1.00  0.00     0.169 HD
ENDBRANCH   1   7
BRANCH   6  12
HETATM   12  O   LIG     1      18.741  38.656  20.812  1.00  0.00    -0.279 OA
BRANCH  12  13
HETATM   13  C   LIG     1      19.367  39.150  19.660  1.00  0.00     0.260 C 
HETATM   14  C   LIG     1      18.599  39.530  18.429  1.00  0.00     0.126 C 
HETATM   15  O   LIG     1      20.614  39.319  19.672  1.00  0.00    -0.265 OA
ENDBRANCH  12  13
ENDBRANCH   6  12
TORSDOF 3
ENDMDL
MODEL 18
REMARK VINA RESULT:      -4.7      8.145      9.364
REMARK  3 active torsions:
REMARK  status: ('A' for Active; 'I' for Inactive)
REMARK       I    between atoms: C_2  and  N_3 
REMARK    1  A    between atoms: N_3  and  C_4 
REMARK    2  A    between atoms: C_9  and  O_10 
REMARK    3  A    between atoms: O_10  and  C_11 
ROOT
HETATM    1  C   LIG     1      16.134  32.080  14.217  1.00  0.00     0.034 A 
HETATM    2  C   LIG     1      16.311  32.635  12.942  1.00  0.00     0.032 A 
HETATM    3  C   LIG     1      17.424  33.432  12.662  1.00  0.00     0.039 A 
HETATM    4  C   LIG     1      17.068  32.377  15.226  1.00  0.00     0.032 A 
HETATM    5  C   LIG     1      18.180  33.176  14.947  1.00  0.00     0.039 A 
HETATM    6  C   LIG     1      18.376  33.692  13.653  1.00  0.00     0.079 A 
ENDROOT
BRANCH   1   7
HETATM    7  N   LIG     1      14.969  31.280  14.485  1.00  0.00    -0.328 N 
HETATM    8  C   LIG     1      14.814  29.916  14.060  1.00  0.00     0.218 C 
HETATM    9  C   LIG     1      13.681  29.089  14.576  1.00  0.00     0.117 C 
HETATM   10  O   LIG     1      15.607  29.411  13.220  1.00  0.00    -0.274 OA
HETATM   11  H   LIG     1      14.150  31.747  14.940  1.00  0.00     0.169 HD
ENDBRANCH   1   7
BRANCH   6  12
HETATM   12  O   LIG     1      19.473  34.505  13.338  1.00  0.00    -0.279 OA
BRANCH  12  13
HETATM   13  C   LIG     1      20.565  34.126  12.545  1.00  0.00     0.260 C 
HETATM   14  C   LIG     1      20.671  34.493  11.095  1.00  0.00     0.126 C 
HETATM   15  O   LIG     1      21.510  33.489  13.080  1.00  0.00    -0.265 OA
ENDBRANCH  12  13
ENDBRANCH   6  12
TORSDOF 3
ENDMDL
MODEL 19
REMARK VINA RESULT:      -4.2      7.475     10.257
REMARK  3 active torsions:
REMARK  status: ('A' for Active; 'I' for Inactive)
REMARK       I    between atoms: C_2  and  N_3 
REMARK    1  A    between atoms: N_3  and  C_4 
REMARK    2  A    between atoms: C_9  and  O_10 
REMARK    3  A    between atoms: O_10  and  C_11 
ROOT
HETATM    1  C   LIG     1      15.439  31.923  15.309  1.00  0.00     0.034 A 
HETATM    2  C   LIG     1      15.618  31.191  14.126  1.00  0.00     0.032 A 
HETATM    3  C   LIG     1      14.721  30.179  13.774  1.00  0.00     0.039 A 
HETATM    4  C   LIG     1      14.370  31.591  16.160  1.00  0.00     0.032 A 
HETATM    5  C   LIG     1      13.473  30.579  15.808  1.00  0.00     0.039 A 
HETATM    6  C   LIG     1      13.632  29.879  14.599  1.00  0.00     0.079 A 
ENDROOT
BRANCH   1   7
HETATM    7  N   LIG     1      16.389  32.944  15.659  1.00  0.00    -0.328 N 
HETATM    8  C   LIG     1      16.915  33.906  14.731  1.00  0.00     0.218 C 
HETATM    9  C   LIG     1      17.713  35.071  15.222  1.00  0.00     0.117 C 
HETATM   10  O   LIG     1      16.744  33.762  13.490  1.00  0.00    -0.274 OA
HETATM   11  H   LIG     1      16.786  32.930  16.627  1.00  0.00     0.169 HD
ENDBRANCH   1   7
BRANCH   6  12
HETATM   12  O   LIG     1      12.760  28.851  14.217  1.00  0.00    -0.279 OA
BRANCH  12  13
HETATM   13  C   LIG     1      13.147  27.593  13.735  1.00  0.00     0.260 C 
HETATM   14  C   LIG     1      14.585  27.225  13.517  1.00  0.00     0.126 C 
HETATM   15  O   LIG     1      12.260  26.728  13.516  1.00  0.00    -0.265 OA
ENDBRANCH  12  13
ENDBRANCH   6  12
TORSDOF 3
ENDMDL
MODEL 20
REMARK VINA RESULT:      -4.0     15.310     16.149
REMARK  3 active torsions:
REMARK  status: ('A' for Active; 'I' for Inactive)
REMARK       I    between atoms: C_2  and  N_3 
REMARK    1  A    between atoms: N_3  and  C_4 
REMARK    2  A    between atoms: C_9  and  O_10 
REMARK    3  A    between atoms: O_10  and  C_11 
ROOT
HETATM    1  C   LIG     1      26.814  25.358  19.348  1.00  0.00     0.034 A 
HETATM    2  C   LIG     1      26.142  24.716  18.299  1.00  0.00     0.032 A 
HETATM    3  C   LIG     1      25.470  23.511  18.518  1.00  0.00     0.039 A 
HETATM    4  C   LIG     1      26.843  24.747  20.615  1.00  0.00     0.032 A 
HETATM    5  C   LIG     1      26.172  23.540  20.833  1.00  0.00     0.039 A 
HETATM    6  C   LIG     1      25.461  22.925  19.788  1.00  0.00     0.079 A 
ENDROOT
BRANCH   1   7
HETATM    7  N   LIG     1      27.516  26.587  19.092  1.00  0.00    -0.328 N 
HETATM    8  C   LIG     1      28.848  26.657  18.559  1.00  0.00     0.218 C 
HETATM    9  C   LIG     1      29.413  27.965  18.108  1.00  0.00     0.117 C 
HETATM   10  O   LIG     1      29.572  25.626  18.500  1.00  0.00    -0.274 OA
HETATM   11  H   LIG     1      27.062  27.480  19.393  1.00  0.00     0.169 HD
ENDBRANCH   1   7
BRANCH   6  12
HETATM   12  O   LIG     1      24.785  21.710  19.966  1.00  0.00    -0.279 OA
BRANCH  12  13
HETATM   13  C   LIG     1      23.394  21.557  20.042  1.00  0.00     0.260 C 
HETATM   14  C   LIG     1      22.546  22.372  20.973  1.00  0.00     0.126 C 
HETATM   15  O   LIG     1      22.831  20.735  19.273  1.00  0.00    -0.265 OA
ENDBRANCH  12  13
ENDBRANCH   6  12
TORSDOF 3
ENDMDL
