REMARK  3 active torsions:
REMARK  status: ('A' for Active; 'I' for Inactive)
REMARK       I    between atoms: C_2  and  N_3 
REMARK    1  A    between atoms: N_3  and  C_4 
REMARK    2  A    between atoms: C_9  and  O_10 
REMARK    3  A    between atoms: O_10  and  C_11 
ROOT
HETATM    1  C   LIG     1      -1.113  -0.397   0.326  1.00  0.00     0.034 A 
HETATM    2  C   LIG     1      -0.544  -1.194   1.330  1.00  0.00     0.032 A 
HETATM    3  C   LIG     1       0.795  -1.586   1.252  1.00  0.00     0.039 A 
HETATM    4  C   LIG     1      -0.329  -0.037  -0.785  1.00  0.00     0.032 A 
HETATM    5  C   LIG     1       1.010  -0.430  -0.863  1.00  0.00     0.039 A 
HETATM    6  C   LIG     1       1.587  -1.191   0.169  1.00  0.00     0.079 A 
ENDROOT
BRANCH   1   7
HETATM    7  N   LIG     1      -2.499  -0.025   0.419  1.00  0.00    -0.328 N 
HETATM    8  C   LIG     1      -3.035   1.212  -0.077  1.00  0.00     0.218 C 
HETATM    9  C   LIG     1      -4.514   1.419  -0.149  1.00  0.00     0.117 C 
HETATM   10  O   LIG     1      -2.269   2.152  -0.422  1.00  0.00    -0.274 OA
HETATM   11  H   LIG     1      -3.138  -0.654   0.958  1.00  0.00     0.169 HD
ENDBRANCH   1   7
BRANCH   6  12
HETATM   12  O   LIG     1       2.923  -1.613   0.121  1.00  0.00    -0.279 OA
BRANCH  12  13
HETATM   13  C   LIG     1       3.990  -0.875  -0.409  1.00  0.00     0.260 C 
HETATM   14  C   LIG     1       3.966   0.622  -0.497  1.00  0.00     0.126 C 
HETATM   15  O   LIG     1       5.022  -1.488  -0.788  1.00  0.00    -0.265 OA
ENDBRANCH  12  13
ENDBRANCH   6  12
TORSDOF 3
