MODEL 1
REMARK VINA RESULT:      -6.2      0.000      0.000
REMARK  1 active torsions:
REMARK  status: ('A' for Active; 'I' for Inactive)
REMARK    1  A    between atoms: N_1  and  C_2 
ROOT
HETATM    1  C   LIG     1      18.547  39.377  21.782  1.00  0.00     0.037 A 
HETATM    2  C   LIG     1      18.494  38.664  20.564  1.00  0.00     0.001 A 
HETATM    3  C   LIG     1      18.119  37.288  20.566  1.00  0.00    -0.013 A 
HETATM    4  C   LIG     1      18.082  36.606  19.320  1.00  0.00     0.013 A 
HETATM    5  C   LIG     1      18.398  37.257  18.129  1.00  0.00     0.001 A 
HETATM    6  C   LIG     1      18.776  38.591  18.140  1.00  0.00     0.001 A 
HETATM    7  C   LIG     1      18.834  39.289  19.343  1.00  0.00     0.014 A 
HETATM    8  C   LIG     1      18.314  38.713  22.985  1.00  0.00     0.043 A 
HETATM    9  C   LIG     1      17.968  37.348  23.037  1.00  0.00    -0.012 A 
HETATM   10  C   LIG     1      17.818  36.636  21.807  1.00  0.00    -0.014 A 
HETATM   11  C   LIG     1      17.363  35.299  21.857  1.00  0.00     0.014 A 
HETATM   12  C   LIG     1      17.098  34.667  23.063  1.00  0.00     0.013 A 
HETATM   13  C   LIG     1      17.288  35.329  24.272  1.00  0.00    -0.025 A 
HETATM   14  C   LIG     1      17.736  36.677  24.284  1.00  0.00    -0.015 A 
HETATM   15  C   LIG     1      17.945  37.287  25.550  1.00  0.00     0.013 A 
HETATM   16  C   LIG     1      17.687  36.593  26.735  1.00  0.00     0.001 A 
HETATM   17  C   LIG     1      17.228  35.281  26.697  1.00  0.00     0.001 A 
HETATM   18  C   LIG     1      17.032  34.649  25.474  1.00  0.00     0.012 A 
ENDROOT
BRANCH   1  19
HETATM   19  N   LIG     1      18.819  40.788  21.833  1.00  0.00    -0.398 N 
HETATM   20  H   LIG     1      19.212  41.315  21.025  1.00  0.00     0.156 HD
HETATM   21  H   LIG     1      18.473  41.364  22.633  1.00  0.00     0.156 HD
ENDBRANCH   1  19
TORSDOF 1
ENDMDL
MODEL 2
REMARK VINA RESULT:      -6.1      1.822      6.305
REMARK  1 active torsions:
REMARK  status: ('A' for Active; 'I' for Inactive)
REMARK    1  A    between atoms: N_1  and  C_2 
ROOT
HETATM    1  C   LIG     1      16.933  35.282  22.331  1.00  0.00     0.037 A 
HETATM    2  C   LIG     1      17.225  35.856  23.588  1.00  0.00     0.001 A 
HETATM    3  C   LIG     1      17.833  37.145  23.652  1.00  0.00    -0.013 A 
HETATM    4  C   LIG     1      18.113  37.685  24.937  1.00  0.00     0.013 A 
HETATM    5  C   LIG     1      17.804  36.984  26.100  1.00  0.00     0.001 A 
HETATM    6  C   LIG     1      17.228  35.725  26.026  1.00  0.00     0.001 A 
HETATM    7  C   LIG     1      16.947  35.159  24.786  1.00  0.00     0.014 A 
HETATM    8  C   LIG     1      17.315  35.939  21.163  1.00  0.00     0.043 A 
HETATM    9  C   LIG     1      17.942  37.201  21.179  1.00  0.00    -0.012 A 
HETATM   10  C   LIG     1      18.159  37.837  22.440  1.00  0.00    -0.014 A 
HETATM   11  C   LIG     1      18.686  39.149  22.448  1.00  0.00     0.014 A 
HETATM   12  C   LIG     1      19.023  39.803  21.272  1.00  0.00     0.013 A 
HETATM   13  C   LIG     1      18.867  39.177  20.039  1.00  0.00    -0.025 A 
HETATM   14  C   LIG     1      18.334  37.863  19.968  1.00  0.00    -0.015 A 
HETATM   15  C   LIG     1      18.231  37.265  18.683  1.00  0.00     0.013 A 
HETATM   16  C   LIG     1      18.612  37.961  17.533  1.00  0.00     0.001 A 
HETATM   17  C   LIG     1      19.111  39.256  17.626  1.00  0.00     0.001 A 
HETATM   18  C   LIG     1      19.241  39.862  18.871  1.00  0.00     0.012 A 
ENDROOT
BRANCH   1  19
HETATM   19  N   LIG     1      16.231  34.034  22.203  1.00  0.00    -0.398 N 
HETATM   20  H   LIG     1      15.363  33.932  21.635  1.00  0.00     0.156 HD
HETATM   21  H   LIG     1      16.664  33.147  22.545  1.00  0.00     0.156 HD
ENDBRANCH   1  19
TORSDOF 1
ENDMDL
MODEL 3
REMARK VINA RESULT:      -6.0     16.305     17.715
REMARK  1 active torsions:
REMARK  status: ('A' for Active; 'I' for Inactive)
REMARK    1  A    between atoms: N_1  and  C_2 
ROOT
HETATM    1  C   LIG     1      29.511  30.790  34.516  1.00  0.00     0.037 A 
HETATM    2  C   LIG     1      28.440  30.705  35.432  1.00  0.00     0.001 A 
HETATM    3  C   LIG     1      27.350  29.823  35.166  1.00  0.00    -0.013 A 
HETATM    4  C   LIG     1      26.291  29.769  36.112  1.00  0.00     0.013 A 
HETATM    5  C   LIG     1      26.313  30.549  37.267  1.00  0.00     0.001 A 
HETATM    6  C   LIG     1      27.369  31.413  37.508  1.00  0.00     0.001 A 
HETATM    7  C   LIG     1      28.420  31.501  36.600  1.00  0.00     0.014 A 
HETATM    8  C   LIG     1      29.458  30.078  33.319  1.00  0.00     0.043 A 
HETATM    9  C   LIG     1      28.389  29.217  33.002  1.00  0.00    -0.012 A 
HETATM   10  C   LIG     1      27.344  29.047  33.961  1.00  0.00    -0.014 A 
HETATM   11  C   LIG     1      26.331  28.099  33.688  1.00  0.00     0.014 A 
HETATM   12  C   LIG     1      26.317  27.370  32.509  1.00  0.00     0.013 A 
HETATM   13  C   LIG     1      27.298  27.561  31.541  1.00  0.00    -0.025 A 
HETATM   14  C   LIG     1      28.347  28.493  31.763  1.00  0.00    -0.015 A 
HETATM   15  C   LIG     1      29.299  28.668  30.724  1.00  0.00     0.013 A 
HETATM   16  C   LIG     1      29.221  27.926  29.543  1.00  0.00     0.001 A 
HETATM   17  C   LIG     1      28.197  27.002  29.358  1.00  0.00     0.001 A 
HETATM   18  C   LIG     1      27.238  26.821  30.349  1.00  0.00     0.012 A 
ENDROOT
BRANCH   1  19
HETATM   19  N   LIG     1      30.682  31.582  34.778  1.00  0.00    -0.398 N 
HETATM   20  H   LIG     1      30.826  32.528  34.365  1.00  0.00     0.156 HD
HETATM   21  H   LIG     1      31.353  31.300  35.527  1.00  0.00     0.156 HD
ENDBRANCH   1  19
TORSDOF 1
ENDMDL
MODEL 4
REMARK VINA RESULT:      -5.8      2.663      5.494
REMARK  1 active torsions:
REMARK  status: ('A' for Active; 'I' for Inactive)
REMARK    1  A    between atoms: N_1  and  C_2 
ROOT
HETATM    1  C   LIG     1      18.010  37.615  20.428  1.00  0.00     0.037 A 
HETATM    2  C   LIG     1      17.732  37.569  21.812  1.00  0.00     0.001 A 
HETATM    3  C   LIG     1      16.925  36.516  22.337  1.00  0.00    -0.013 A 
HETATM    4  C   LIG     1      16.666  36.509  23.734  1.00  0.00     0.013 A 
HETATM    5  C   LIG     1      17.183  37.496  24.571  1.00  0.00     0.001 A 
HETATM    6  C   LIG     1      17.953  38.524  24.048  1.00  0.00     0.001 A 
HETATM    7  C   LIG     1      18.221  38.570  22.683  1.00  0.00     0.014 A 
HETATM    8  C   LIG     1      17.429  36.681  19.573  1.00  0.00     0.043 A 
HETATM    9  C   LIG     1      16.603  35.640  20.043  1.00  0.00    -0.012 A 
HETATM   10  C   LIG     1      16.389  35.525  21.451  1.00  0.00    -0.014 A 
HETATM   11  C   LIG     1      15.653  34.417  21.929  1.00  0.00     0.014 A 
HETATM   12  C   LIG     1      15.115  33.475  21.065  1.00  0.00     0.013 A 
HETATM   13  C   LIG     1      15.270  33.600  19.688  1.00  0.00    -0.025 A 
HETATM   14  C   LIG     1      16.008  34.688  19.150  1.00  0.00    -0.015 A 
HETATM   15  C   LIG     1      16.102  34.781  17.735  1.00  0.00     0.013 A 
HETATM   16  C   LIG     1      15.516  33.817  16.910  1.00  0.00     0.001 A 
HETATM   17  C   LIG     1      14.818  32.748  17.461  1.00  0.00     0.001 A 
HETATM   18  C   LIG     1      14.692  32.640  18.842  1.00  0.00     0.012 A 
ENDROOT
BRANCH   1  19
HETATM   19  N   LIG     1      18.898  38.591  19.857  1.00  0.00    -0.398 N 
HETATM   20  H   LIG     1      19.244  39.417  20.389  1.00  0.00     0.156 HD
HETATM   21  H   LIG     1      19.358  38.411  18.936  1.00  0.00     0.156 HD
ENDBRANCH   1  19
TORSDOF 1
ENDMDL
MODEL 5
REMARK VINA RESULT:      -5.8     16.178     16.995
REMARK  1 active torsions:
REMARK  status: ('A' for Active; 'I' for Inactive)
REMARK    1  A    between atoms: N_1  and  C_2 
ROOT
HETATM    1  C   LIG     1      27.404  23.708  23.064  1.00  0.00     0.037 A 
HETATM    2  C   LIG     1      26.747  23.520  24.300  1.00  0.00     0.001 A 
HETATM    3  C   LIG     1      25.447  22.934  24.328  1.00  0.00    -0.013 A 
HETATM    4  C   LIG     1      24.820  22.766  25.592  1.00  0.00     0.013 A 
HETATM    5  C   LIG     1      25.451  23.156  26.771  1.00  0.00     0.001 A 
HETATM    6  C   LIG     1      26.708  23.739  26.731  1.00  0.00     0.001 A 
HETATM    7  C   LIG     1      27.351  23.930  25.512  1.00  0.00     0.014 A 
HETATM    8  C   LIG     1      26.747  23.398  21.875  1.00  0.00     0.043 A 
HETATM    9  C   LIG     1      25.452  22.843  21.854  1.00  0.00    -0.012 A 
HETATM   10  C   LIG     1      24.812  22.559  23.099  1.00  0.00    -0.014 A 
HETATM   11  C   LIG     1      23.561  21.901  23.076  1.00  0.00     0.014 A 
HETATM   12  C   LIG     1      22.940  21.564  21.882  1.00  0.00     0.013 A 
HETATM   13  C   LIG     1      23.525  21.879  20.660  1.00  0.00    -0.025 A 
HETATM   14  C   LIG     1      24.785  22.533  20.621  1.00  0.00    -0.015 A 
HETATM   15  C   LIG     1      25.315  22.860  19.344  1.00  0.00     0.013 A 
HETATM   16  C   LIG     1      24.632  22.520  18.173  1.00  0.00     0.001 A 
HETATM   17  C   LIG     1      23.409  21.860  18.237  1.00  0.00     0.001 A 
HETATM   18  C   LIG     1      22.855  21.543  19.472  1.00  0.00     0.012 A 
ENDROOT
BRANCH   1  19
HETATM   19  N   LIG     1      28.753  24.199  22.980  1.00  0.00    -0.398 N 
HETATM   20  H   LIG     1      29.579  23.625  23.253  1.00  0.00     0.156 HD
HETATM   21  H   LIG     1      28.959  25.094  22.483  1.00  0.00     0.156 HD
ENDBRANCH   1  19
TORSDOF 1
ENDMDL
MODEL 6
REMARK VINA RESULT:      -5.7     15.617     17.495
REMARK  1 active torsions:
REMARK  status: ('A' for Active; 'I' for Inactive)
REMARK    1  A    between atoms: N_1  and  C_2 
ROOT
HETATM    1  C   LIG     1      25.192  21.230  18.388  1.00  0.00     0.037 A 
HETATM    2  C   LIG     1      24.540  21.650  19.568  1.00  0.00     0.001 A 
HETATM    3  C   LIG     1      24.847  22.926  20.129  1.00  0.00    -0.013 A 
HETATM    4  C   LIG     1      24.170  23.309  21.319  1.00  0.00     0.013 A 
HETATM    5  C   LIG     1      23.235  22.471  21.921  1.00  0.00     0.001 A 
HETATM    6  C   LIG     1      22.956  21.227  21.376  1.00  0.00     0.001 A 
HETATM    7  C   LIG     1      23.604  20.813  20.217  1.00  0.00     0.014 A 
HETATM    8  C   LIG     1      26.190  22.025  17.826  1.00  0.00     0.043 A 
HETATM    9  C   LIG     1      26.544  23.279  18.362  1.00  0.00    -0.012 A 
HETATM   10  C   LIG     1      25.828  23.760  19.500  1.00  0.00    -0.014 A 
HETATM   11  C   LIG     1      26.109  25.064  19.968  1.00  0.00     0.014 A 
HETATM   12  C   LIG     1      27.078  25.857  19.371  1.00  0.00     0.013 A 
HETATM   13  C   LIG     1      27.821  25.384  18.293  1.00  0.00    -0.025 A 
HETATM   14  C   LIG     1      27.576  24.084  17.775  1.00  0.00    -0.015 A 
HETATM   15  C   LIG     1      28.391  23.645  16.696  1.00  0.00     0.013 A 
HETATM   16  C   LIG     1      29.373  24.477  16.150  1.00  0.00     0.001 A 
HETATM   17  C   LIG     1      29.578  25.753  16.661  1.00  0.00     0.001 A 
HETATM   18  C   LIG     1      28.810  26.206  17.729  1.00  0.00     0.012 A 
ENDROOT
BRANCH   1  19
HETATM   19  N   LIG     1      24.853  20.003  17.720  1.00  0.00    -0.398 N 
HETATM   20  H   LIG     1      25.215  19.758  16.774  1.00  0.00     0.156 HD
HETATM   21  H   LIG     1      24.361  19.239  18.237  1.00  0.00     0.156 HD
ENDBRANCH   1  19
TORSDOF 1
ENDMDL
MODEL 7
REMARK VINA RESULT:      -5.7     16.155     18.015
REMARK  1 active torsions:
REMARK  status: ('A' for Active; 'I' for Inactive)
REMARK    1  A    between atoms: N_1  and  C_2 
ROOT
HETATM    1  C   LIG     1      22.975  19.954  24.381  1.00  0.00     0.037 A 
HETATM    2  C   LIG     1      23.709  21.035  24.914  1.00  0.00     0.001 A 
HETATM    3  C   LIG     1      24.268  22.012  24.037  1.00  0.00    -0.013 A 
HETATM    4  C   LIG     1      25.003  23.083  24.615  1.00  0.00     0.013 A 
HETATM    5  C   LIG     1      25.172  23.182  25.994  1.00  0.00     0.001 A 
HETATM    6  C   LIG     1      24.638  22.220  26.836  1.00  0.00     0.001 A 
HETATM    7  C   LIG     1      23.921  21.151  26.307  1.00  0.00     0.014 A 
HETATM    8  C   LIG     1      22.871  19.800  22.999  1.00  0.00     0.043 A 
HETATM    9  C   LIG     1      23.430  20.725  22.095  1.00  0.00    -0.012 A 
HETATM   10  C   LIG     1      24.095  21.875  22.621  1.00  0.00    -0.014 A 
HETATM   11  C   LIG     1      24.558  22.856  21.714  1.00  0.00     0.014 A 
HETATM   12  C   LIG     1      24.410  22.704  20.343  1.00  0.00     0.013 A 
HETATM   13  C   LIG     1      23.811  21.566  19.812  1.00  0.00    -0.025 A 
HETATM   14  C   LIG     1      23.319  20.551  20.675  1.00  0.00    -0.015 A 
HETATM   15  C   LIG     1      22.750  19.397  20.072  1.00  0.00     0.013 A 
HETATM   16  C   LIG     1      22.651  19.286  18.682  1.00  0.00     0.001 A 
HETATM   17  C   LIG     1      23.120  20.303  17.859  1.00  0.00     0.001 A 
HETATM   18  C   LIG     1      23.700  21.437  18.418  1.00  0.00     0.012 A 
ENDROOT
BRANCH   1  19
HETATM   19  N   LIG     1      22.303  18.996  25.217  1.00  0.00    -0.398 N 
HETATM   20  H   LIG     1      22.338  17.970  25.038  1.00  0.00     0.156 HD
HETATM   21  H   LIG     1      21.894  19.290  26.132  1.00  0.00     0.156 HD
ENDBRANCH   1  19
TORSDOF 1
ENDMDL
MODEL 8
REMARK VINA RESULT:      -5.7     15.998     16.905
REMARK  1 active torsions:
REMARK  status: ('A' for Active; 'I' for Inactive)
REMARK    1  A    between atoms: N_1  and  C_2 
ROOT
HETATM    1  C   LIG     1      24.821  22.836  20.625  1.00  0.00     0.037 A 
HETATM    2  C   LIG     1      24.186  21.767  19.955  1.00  0.00     0.001 A 
HETATM    3  C   LIG     1      23.505  20.765  20.708  1.00  0.00    -0.013 A 
HETATM    4  C   LIG     1      22.883  19.704  19.995  1.00  0.00     0.013 A 
HETATM    5  C   LIG     1      22.931  19.642  18.605  1.00  0.00     0.001 A 
HETATM    6  C   LIG     1      23.609  20.613  17.883  1.00  0.00     0.001 A 
HETATM    7  C   LIG     1      24.239  21.661  18.546  1.00  0.00     0.014 A 
HETATM    8  C   LIG     1      24.850  22.862  22.019  1.00  0.00     0.043 A 
HETATM    9  C   LIG     1      24.215  21.879  22.803  1.00  0.00    -0.012 A 
HETATM   10  C   LIG     1      23.488  20.842  22.139  1.00  0.00    -0.014 A 
HETATM   11  C   LIG     1      22.760  19.922  22.928  1.00  0.00     0.014 A 
HETATM   12  C   LIG     1      22.769  19.988  24.314  1.00  0.00     0.013 A 
HETATM   13  C   LIG     1      23.513  20.959  24.977  1.00  0.00    -0.025 A 
HETATM   14  C   LIG     1      24.257  21.916  24.237  1.00  0.00    -0.015 A 
HETATM   15  C   LIG     1      25.024  22.860  24.971  1.00  0.00     0.013 A 
HETATM   16  C   LIG     1      25.017  22.862  26.368  1.00  0.00     0.001 A 
HETATM   17  C   LIG     1      24.262  21.929  27.071  1.00  0.00     0.001 A 
HETATM   18  C   LIG     1      23.516  20.980  26.381  1.00  0.00     0.012 A 
ENDROOT
BRANCH   1  19
HETATM   19  N   LIG     1      25.434  23.927  19.918  1.00  0.00    -0.398 N 
HETATM   20  H   LIG     1      24.958  24.843  19.773  1.00  0.00     0.156 HD
HETATM   21  H   LIG     1      26.449  23.892  19.671  1.00  0.00     0.156 HD
ENDBRANCH   1  19
TORSDOF 1
ENDMDL
MODEL 9
REMARK VINA RESULT:      -5.6     15.736     16.880
REMARK  1 active torsions:
REMARK  status: ('A' for Active; 'I' for Inactive)
REMARK    1  A    between atoms: N_1  and  C_2 
ROOT
HETATM    1  C   LIG     1      23.893  21.262  19.433  1.00  0.00     0.037 A 
HETATM    2  C   LIG     1      24.709  22.415  19.443  1.00  0.00     0.001 A 
HETATM    3  C   LIG     1      25.140  22.965  20.687  1.00  0.00    -0.013 A 
HETATM    4  C   LIG     1      25.958  24.127  20.653  1.00  0.00     0.013 A 
HETATM    5  C   LIG     1      26.333  24.712  19.445  1.00  0.00     0.001 A 
HETATM    6  C   LIG     1      25.895  24.178  18.243  1.00  0.00     0.001 A 
HETATM    7  C   LIG     1      25.085  23.047  18.236  1.00  0.00     0.014 A 
HETATM    8  C   LIG     1      23.444  20.719  20.636  1.00  0.00     0.043 A 
HETATM    9  C   LIG     1      23.822  21.246  21.887  1.00  0.00    -0.012 A 
HETATM   10  C   LIG     1      24.724  22.354  21.915  1.00  0.00    -0.014 A 
HETATM   11  C   LIG     1      25.189  22.809  23.170  1.00  0.00     0.014 A 
HETATM   12  C   LIG     1      24.762  22.230  24.356  1.00  0.00     0.013 A 
HETATM   13  C   LIG     1      23.844  21.185  24.348  1.00  0.00    -0.025 A 
HETATM   14  C   LIG     1      23.349  20.679  23.117  1.00  0.00    -0.015 A 
HETATM   15  C   LIG     1      22.388  19.634  23.176  1.00  0.00     0.013 A 
HETATM   16  C   LIG     1      21.973  19.106  24.402  1.00  0.00     0.001 A 
HETATM   17  C   LIG     1      22.489  19.603  25.594  1.00  0.00     0.001 A 
HETATM   18  C   LIG     1      23.418  20.638  25.570  1.00  0.00     0.012 A 
ENDROOT
BRANCH   1  19
HETATM   19  N   LIG     1      23.511  20.604  18.213  1.00  0.00    -0.398 N 
HETATM   20  H   LIG     1      22.528  20.583  17.868  1.00  0.00     0.156 HD
HETATM   21  H   LIG     1      24.240  20.266  17.546  1.00  0.00     0.156 HD
ENDBRANCH   1  19
TORSDOF 1
ENDMDL
MODEL 10
REMARK VINA RESULT:      -5.6      8.291     11.266
REMARK  1 active torsions:
REMARK  status: ('A' for Active; 'I' for Inactive)
REMARK    1  A    between atoms: N_1  and  C_2 
ROOT
HETATM    1  C   LIG     1      15.094  30.549  13.991  1.00  0.00     0.037 A 
HETATM    2  C   LIG     1      14.727  31.094  15.241  1.00  0.00     0.001 A 
HETATM    3  C   LIG     1      15.363  32.284  15.707  1.00  0.00    -0.013 A 
HETATM    4  C   LIG     1      14.967  32.798  16.972  1.00  0.00     0.013 A 
HETATM    5  C   LIG     1      13.987  32.167  17.735  1.00  0.00     0.001 A 
HETATM    6  C   LIG     1      13.387  31.003  17.279  1.00  0.00     0.001 A 
HETATM    7  C   LIG     1      13.755  30.464  16.051  1.00  0.00     0.014 A 
HETATM    8  C   LIG     1      16.131  31.125  13.260  1.00  0.00     0.043 A 
HETATM    9  C   LIG     1      16.805  32.284  13.695  1.00  0.00    -0.012 A 
HETATM   10  C   LIG     1      16.382  32.902  14.912  1.00  0.00    -0.014 A 
HETATM   11  C   LIG     1      16.985  34.124  15.288  1.00  0.00     0.014 A 
HETATM   12  C   LIG     1      17.988  34.704  14.526  1.00  0.00     0.013 A 
HETATM   13  C   LIG     1      18.448  34.089  13.366  1.00  0.00    -0.025 A 
HETATM   14  C   LIG     1      17.874  32.864  12.933  1.00  0.00    -0.015 A 
HETATM   15  C   LIG     1      18.411  32.267  11.761  1.00  0.00     0.013 A 
HETATM   16  C   LIG     1      19.442  32.883  11.047  1.00  0.00     0.001 A 
HETATM   17  C   LIG     1      19.972  34.093  11.478  1.00  0.00     0.001 A 
HETATM   18  C   LIG     1      19.482  34.694  12.633  1.00  0.00     0.012 A 
ENDROOT
BRANCH   1  19
HETATM   19  N   LIG     1      14.420  29.413  13.423  1.00  0.00    -0.398 N 
HETATM   20  H   LIG     1      13.722  29.499  12.654  1.00  0.00     0.156 HD
HETATM   21  H   LIG     1      14.734  28.444  13.653  1.00  0.00     0.156 HD
ENDBRANCH   1  19
TORSDOF 1
ENDMDL
MODEL 11
REMARK VINA RESULT:      -5.5     16.968     18.810
REMARK  1 active torsions:
REMARK  status: ('A' for Active; 'I' for Inactive)
REMARK    1  A    between atoms: N_1  and  C_2 
ROOT
HETATM    1  C   LIG     1      26.091  22.241  19.492  1.00  0.00     0.037 A 
HETATM    2  C   LIG     1      24.817  22.398  20.082  1.00  0.00     0.001 A 
HETATM    3  C   LIG     1      23.708  21.656  19.576  1.00  0.00    -0.013 A 
HETATM    4  C   LIG     1      22.443  21.845  20.195  1.00  0.00     0.013 A 
HETATM    5  C   LIG     1      22.285  22.724  21.265  1.00  0.00     0.001 A 
HETATM    6  C   LIG     1      23.366  23.451  21.738  1.00  0.00     0.001 A 
HETATM    7  C   LIG     1      24.619  23.300  21.151  1.00  0.00     0.014 A 
HETATM    8  C   LIG     1      26.241  21.429  18.370  1.00  0.00     0.043 A 
HETATM    9  C   LIG     1      25.168  20.699  17.820  1.00  0.00    -0.012 A 
HETATM   10  C   LIG     1      23.894  20.773  18.462  1.00  0.00    -0.014 A 
HETATM   11  C   LIG     1      22.849  19.955  17.975  1.00  0.00     0.014 A 
HETATM   12  C   LIG     1      23.028  19.123  16.881  1.00  0.00     0.013 A 
HETATM   13  C   LIG     1      24.247  19.077  16.212  1.00  0.00    -0.025 A 
HETATM   14  C   LIG     1      25.337  19.870  16.661  1.00  0.00    -0.015 A 
HETATM   15  C   LIG     1      26.545  19.806  15.916  1.00  0.00     0.013 A 
HETATM   16  C   LIG     1      26.661  18.969  14.803  1.00  0.00     0.001 A 
HETATM   17  C   LIG     1      25.587  18.185  14.396  1.00  0.00     0.001 A 
HETATM   18  C   LIG     1      24.385  18.239  15.093  1.00  0.00     0.012 A 
ENDROOT
BRANCH   1  19
HETATM   19  N   LIG     1      27.264  22.883  20.021  1.00  0.00    -0.398 N 
HETATM   20  H   LIG     1      27.811  23.587  19.482  1.00  0.00     0.156 HD
HETATM   21  H   LIG     1      27.510  22.784  21.031  1.00  0.00     0.156 HD
ENDBRANCH   1  19
TORSDOF 1
ENDMDL
MODEL 12
REMARK VINA RESULT:      -5.4     15.918     17.560
REMARK  1 active torsions:
REMARK  status: ('A' for Active; 'I' for Inactive)
REMARK    1  A    between atoms: N_1  and  C_2 
ROOT
HETATM    1  C   LIG     1      24.996  20.282  21.252  1.00  0.00     0.037 A 
HETATM    2  C   LIG     1      24.140  20.105  20.143  1.00  0.00     0.001 A 
HETATM    3  C   LIG     1      24.128  21.075  19.097  1.00  0.00    -0.013 A 
HETATM    4  C   LIG     1      23.250  20.860  18.000  1.00  0.00     0.013 A 
HETATM    5  C   LIG     1      22.426  19.738  17.942  1.00  0.00     0.001 A 
HETATM    6  C   LIG     1      22.435  18.810  18.972  1.00  0.00     0.001 A 
HETATM    7  C   LIG     1      23.274  18.990  20.067  1.00  0.00     0.014 A 
HETATM    8  C   LIG     1      25.761  21.443  21.359  1.00  0.00     0.043 A 
HETATM    9  C   LIG     1      25.760  22.440  20.364  1.00  0.00    -0.012 A 
HETATM   10  C   LIG     1      24.971  22.230  19.191  1.00  0.00    -0.014 A 
HETATM   11  C   LIG     1      25.058  23.179  18.146  1.00  0.00     0.014 A 
HETATM   12  C   LIG     1      25.856  24.308  18.254  1.00  0.00     0.013 A 
HETATM   13  C   LIG     1      26.590  24.553  19.411  1.00  0.00    -0.025 A 
HETATM   14  C   LIG     1      26.549  23.631  20.490  1.00  0.00    -0.015 A 
HETATM   15  C   LIG     1      27.293  23.955  21.657  1.00  0.00     0.013 A 
HETATM   16  C   LIG     1      28.059  25.122  21.722  1.00  0.00     0.001 A 
HETATM   17  C   LIG     1      28.101  25.998  20.643  1.00  0.00     0.001 A 
HETATM   18  C   LIG     1      27.369  25.719  19.493  1.00  0.00     0.012 A 
ENDROOT
BRANCH   1  19
HETATM   19  N   LIG     1      25.127  19.292  22.286  1.00  0.00    -0.398 N 
HETATM   20  H   LIG     1      24.437  19.192  23.061  1.00  0.00     0.156 HD
HETATM   21  H   LIG     1      25.834  18.528  22.198  1.00  0.00     0.156 HD
ENDBRANCH   1  19
TORSDOF 1
ENDMDL
MODEL 13
REMARK VINA RESULT:      -5.3     15.865     17.074
REMARK  1 active torsions:
REMARK  status: ('A' for Active; 'I' for Inactive)
REMARK    1  A    between atoms: N_1  and  C_2 
ROOT
HETATM    1  C   LIG     1      28.577  23.586  16.783  1.00  0.00     0.037 A 
HETATM    2  C   LIG     1      28.602  24.893  17.317  1.00  0.00     0.001 A 
HETATM    3  C   LIG     1      27.713  25.242  18.377  1.00  0.00    -0.013 A 
HETATM    4  C   LIG     1      27.769  26.569  18.883  1.00  0.00     0.013 A 
HETATM    5  C   LIG     1      28.663  27.503  18.366  1.00  0.00     0.001 A 
HETATM    6  C   LIG     1      29.512  27.159  17.325  1.00  0.00     0.001 A 
HETATM    7  C   LIG     1      29.480  25.872  16.796  1.00  0.00     0.014 A 
HETATM    8  C   LIG     1      27.629  22.670  17.236  1.00  0.00     0.043 A 
HETATM    9  C   LIG     1      26.714  22.979  18.262  1.00  0.00    -0.012 A 
HETATM   10  C   LIG     1      26.790  24.267  18.877  1.00  0.00    -0.014 A 
HETATM   11  C   LIG     1      25.945  24.535  19.979  1.00  0.00     0.014 A 
HETATM   12  C   LIG     1      25.036  23.596  20.442  1.00  0.00     0.013 A 
HETATM   13  C   LIG     1      24.913  22.356  19.822  1.00  0.00    -0.025 A 
HETATM   14  C   LIG     1      25.741  22.027  18.716  1.00  0.00    -0.015 A 
HETATM   15  C   LIG     1      25.544  20.760  18.103  1.00  0.00     0.013 A 
HETATM   16  C   LIG     1      24.592  19.863  18.595  1.00  0.00     0.001 A 
HETATM   17  C   LIG     1      23.809  20.199  19.694  1.00  0.00     0.001 A 
HETATM   18  C   LIG     1      23.964  21.439  20.304  1.00  0.00     0.012 A 
ENDROOT
BRANCH   1  19
HETATM   19  N   LIG     1      29.515  23.147  15.786  1.00  0.00    -0.398 N 
HETATM   20  H   LIG     1      30.540  23.321  15.862  1.00  0.00     0.156 HD
HETATM   21  H   LIG     1      29.214  22.490  15.031  1.00  0.00     0.156 HD
ENDBRANCH   1  19
TORSDOF 1
ENDMDL
MODEL 14
REMARK VINA RESULT:      -5.3     16.144     16.672
REMARK  1 active torsions:
REMARK  status: ('A' for Active; 'I' for Inactive)
REMARK    1  A    between atoms: N_1  and  C_2 
ROOT
HETATM    1  C   LIG     1      27.831  26.693  30.644  1.00  0.00     0.037 A 
HETATM    2  C   LIG     1      28.630  27.358  29.688  1.00  0.00     0.001 A 
HETATM    3  C   LIG     1      29.205  28.625  30.006  1.00  0.00    -0.013 A 
HETATM    4  C   LIG     1      30.000  29.262  29.016  1.00  0.00     0.013 A 
HETATM    5  C   LIG     1      30.217  28.672  27.773  1.00  0.00     0.001 A 
HETATM    6  C   LIG     1      29.641  27.448  27.469  1.00  0.00     0.001 A 
HETATM    7  C   LIG     1      28.849  26.798  28.409  1.00  0.00     0.014 A 
HETATM    8  C   LIG     1      27.540  27.313  31.858  1.00  0.00     0.043 A 
HETATM    9  C   LIG     1      28.063  28.575  32.203  1.00  0.00    -0.012 A 
HETATM   10  C   LIG     1      28.949  29.219  31.285  1.00  0.00    -0.014 A 
HETATM   11  C   LIG     1      29.560  30.431  31.681  1.00  0.00     0.014 A 
HETATM   12  C   LIG     1      29.288  31.013  32.910  1.00  0.00     0.013 A 
HETATM   13  C   LIG     1      28.387  30.426  33.794  1.00  0.00    -0.025 A 
HETATM   14  C   LIG     1      27.750  29.203  33.454  1.00  0.00    -0.015 A 
HETATM   15  C   LIG     1      26.815  28.672  34.383  1.00  0.00     0.013 A 
HETATM   16  C   LIG     1      26.559  29.316  35.596  1.00  0.00     0.001 A 
HETATM   17  C   LIG     1      27.213  30.502  35.915  1.00  0.00     0.001 A 
HETATM   18  C   LIG     1      28.120  31.057  35.020  1.00  0.00     0.012 A 
ENDROOT
BRANCH   1  19
HETATM   19  N   LIG     1      27.309  25.372  30.420  1.00  0.00    -0.398 N 
HETATM   20  H   LIG     1      27.870  24.509  30.587  1.00  0.00     0.156 HD
HETATM   21  H   LIG     1      26.290  25.230  30.240  1.00  0.00     0.156 HD
ENDBRANCH   1  19
TORSDOF 1
ENDMDL
MODEL 15
REMARK VINA RESULT:      -5.2     16.414     17.935
REMARK  1 active torsions:
REMARK  status: ('A' for Active; 'I' for Inactive)
REMARK    1  A    between atoms: N_1  and  C_2 
ROOT
HETATM    1  C   LIG     1      27.020  20.923  17.170  1.00  0.00     0.037 A 
HETATM    2  C   LIG     1      25.686  20.959  17.632  1.00  0.00     0.001 A 
HETATM    3  C   LIG     1      25.172  22.156  18.215  1.00  0.00    -0.013 A 
HETATM    4  C   LIG     1      23.825  22.150  18.670  1.00  0.00     0.013 A 
HETATM    5  C   LIG     1      23.027  21.014  18.550  1.00  0.00     0.001 A 
HETATM    6  C   LIG     1      23.541  19.852  17.996  1.00  0.00     0.001 A 
HETATM    7  C   LIG     1      24.858  19.817  17.548  1.00  0.00     0.014 A 
HETATM    8  C   LIG     1      27.851  22.025  17.362  1.00  0.00     0.043 A 
HETATM    9  C   LIG     1      27.394  23.218  17.957  1.00  0.00    -0.012 A 
HETATM   10  C   LIG     1      26.021  23.303  18.344  1.00  0.00    -0.014 A 
HETATM   11  C   LIG     1      25.539  24.537  18.838  1.00  0.00     0.014 A 
HETATM   12  C   LIG     1      26.372  25.636  18.984  1.00  0.00     0.013 A 
HETATM   13  C   LIG     1      27.723  25.555  18.661  1.00  0.00    -0.025 A 
HETATM   14  C   LIG     1      28.262  24.344  18.152  1.00  0.00    -0.015 A 
HETATM   15  C   LIG     1      29.655  24.312  17.874  1.00  0.00     0.013 A 
HETATM   16  C   LIG     1      30.453  25.443  18.066  1.00  0.00     0.001 A 
HETATM   17  C   LIG     1      29.898  26.624  18.545  1.00  0.00     0.001 A 
HETATM   18  C   LIG     1      28.541  26.682  18.845  1.00  0.00     0.012 A 
ENDROOT
BRANCH   1  19
HETATM   19  N   LIG     1      27.562  19.782  16.483  1.00  0.00    -0.398 N 
HETATM   20  H   LIG     1      27.305  18.802  16.729  1.00  0.00     0.156 HD
HETATM   21  H   LIG     1      28.109  19.907  15.602  1.00  0.00     0.156 HD
ENDBRANCH   1  19
TORSDOF 1
ENDMDL
MODEL 16
REMARK VINA RESULT:      -5.2     16.161     16.431
REMARK  1 active torsions:
REMARK  status: ('A' for Active; 'I' for Inactive)
REMARK    1  A    between atoms: N_1  and  C_2 
ROOT
HETATM    1  C   LIG     1      26.498  23.449  19.704  1.00  0.00     0.037 A 
HETATM    2  C   LIG     1      25.264  22.776  19.564  1.00  0.00     0.001 A 
HETATM    3  C   LIG     1      24.521  22.415  20.727  1.00  0.00    -0.013 A 
HETATM    4  C   LIG     1      23.285  21.736  20.542  1.00  0.00     0.013 A 
HETATM    5  C   LIG     1      22.810  21.434  19.268  1.00  0.00     0.001 A 
HETATM    6  C   LIG     1      23.548  21.776  18.146  1.00  0.00     0.001 A 
HETATM    7  C   LIG     1      24.767  22.433  18.287  1.00  0.00     0.014 A 
HETATM    8  C   LIG     1      27.022  23.681  20.975  1.00  0.00     0.043 A 
HETATM    9  C   LIG     1      26.335  23.316  22.150  1.00  0.00    -0.012 A 
HETATM   10  C   LIG     1      25.043  22.720  22.026  1.00  0.00    -0.014 A 
HETATM   11  C   LIG     1      24.309  22.458  23.206  1.00  0.00     0.014 A 
HETATM   12  C   LIG     1      24.831  22.732  24.462  1.00  0.00     0.013 A 
HETATM   13  C   LIG     1      26.109  23.265  24.601  1.00  0.00    -0.025 A 
HETATM   14  C   LIG     1      26.889  23.557  23.452  1.00  0.00    -0.015 A 
HETATM   15  C   LIG     1      28.199  24.067  23.660  1.00  0.00     0.013 A 
HETATM   16  C   LIG     1      28.684  24.299  24.950  1.00  0.00     0.001 A 
HETATM   17  C   LIG     1      27.893  24.025  26.060  1.00  0.00     0.001 A 
HETATM   18  C   LIG     1      26.613  23.508  25.890  1.00  0.00     0.012 A 
ENDROOT
BRANCH   1  19
HETATM   19  N   LIG     1      27.243  23.928  18.571  1.00  0.00    -0.398 N 
HETATM   20  H   LIG     1      27.045  24.844  18.114  1.00  0.00     0.156 HD
HETATM   21  H   LIG     1      28.118  23.444  18.272  1.00  0.00     0.156 HD
ENDBRANCH   1  19
TORSDOF 1
ENDMDL
MODEL 17
REMARK VINA RESULT:      -5.1     16.174     17.238
REMARK  1 active torsions:
REMARK  status: ('A' for Active; 'I' for Inactive)
REMARK    1  A    between atoms: N_1  and  C_2 
ROOT
HETATM    1  C   LIG     1      24.290  22.000  22.929  1.00  0.00     0.037 A 
HETATM    2  C   LIG     1      23.522  20.987  23.544  1.00  0.00     0.001 A 
HETATM    3  C   LIG     1      23.538  20.852  24.965  1.00  0.00    -0.013 A 
HETATM    4  C   LIG     1      22.754  19.818  25.544  1.00  0.00     0.013 A 
HETATM    5  C   LIG     1      21.989  18.962  24.754  1.00  0.00     0.001 A 
HETATM    6  C   LIG     1      21.992  19.093  23.374  1.00  0.00     0.001 A 
HETATM    7  C   LIG     1      22.755  20.087  22.770  1.00  0.00     0.014 A 
HETATM    8  C   LIG     1      25.123  22.807  23.704  1.00  0.00     0.043 A 
HETATM    9  C   LIG     1      25.191  22.690  25.106  1.00  0.00    -0.012 A 
HETATM   10  C   LIG     1      24.349  21.733  25.752  1.00  0.00    -0.014 A 
HETATM   11  C   LIG     1      24.339  21.695  27.165  1.00  0.00     0.014 A 
HETATM   12  C   LIG     1      25.145  22.533  27.920  1.00  0.00     0.013 A 
HETATM   13  C   LIG     1      26.009  23.434  27.306  1.00  0.00    -0.025 A 
HETATM   14  C   LIG     1      26.057  23.524  25.890  1.00  0.00    -0.015 A 
HETATM   15  C   LIG     1      26.984  24.439  25.322  1.00  0.00     0.013 A 
HETATM   16  C   LIG     1      27.793  25.240  26.132  1.00  0.00     0.001 A 
HETATM   17  C   LIG     1      27.712  25.150  27.517  1.00  0.00     0.001 A 
HETATM   18  C   LIG     1      26.828  24.251  28.104  1.00  0.00     0.012 A 
ENDROOT
BRANCH   1  19
HETATM   19  N   LIG     1      24.235  22.251  21.514  1.00  0.00    -0.398 N 
HETATM   20  H   LIG     1      23.414  22.697  21.053  1.00  0.00     0.156 HD
HETATM   21  H   LIG     1      25.092  22.143  20.926  1.00  0.00     0.156 HD
ENDBRANCH   1  19
TORSDOF 1
ENDMDL
MODEL 18
REMARK VINA RESULT:      -5.1     16.199     17.053
REMARK  1 active torsions:
REMARK  status: ('A' for Active; 'I' for Inactive)
REMARK    1  A    between atoms: N_1  and  C_2 
ROOT
HETATM    1  C   LIG     1      25.342  22.926  24.386  1.00  0.00     0.037 A 
HETATM    2  C   LIG     1      26.655  23.447  24.371  1.00  0.00     0.001 A 
HETATM    3  C   LIG     1      27.293  23.719  23.124  1.00  0.00    -0.013 A 
HETATM    4  C   LIG     1      28.615  24.240  23.154  1.00  0.00     0.013 A 
HETATM    5  C   LIG     1      29.271  24.481  24.359  1.00  0.00     0.001 A 
HETATM    6  C   LIG     1      28.647  24.198  25.564  1.00  0.00     0.001 A 
HETATM    7  C   LIG     1      27.356  23.679  25.576  1.00  0.00     0.014 A 
HETATM    8  C   LIG     1      24.710  22.603  23.186  1.00  0.00     0.043 A 
HETATM    9  C   LIG     1      25.314  22.829  21.933  1.00  0.00    -0.012 A 
HETATM   10  C   LIG     1      26.603  23.443  21.899  1.00  0.00    -0.014 A 
HETATM   11  C   LIG     1      27.158  23.770  20.640  1.00  0.00     0.014 A 
HETATM   12  C   LIG     1      26.496  23.476  19.457  1.00  0.00     0.013 A 
HETATM   13  C   LIG     1      25.263  22.832  19.471  1.00  0.00    -0.025 A 
HETATM   14  C   LIG     1      24.653  22.487  20.706  1.00  0.00    -0.015 A 
HETATM   15  C   LIG     1      23.410  21.799  20.653  1.00  0.00     0.013 A 
HETATM   16  C   LIG     1      22.802  21.505  19.431  1.00  0.00     0.001 A 
HETATM   17  C   LIG     1      23.408  21.873  18.235  1.00  0.00     0.001 A 
HETATM   18  C   LIG     1      24.634  22.530  18.252  1.00  0.00     0.012 A 
ENDROOT
BRANCH   1  19
HETATM   19  N   LIG     1      24.610  22.727  25.607  1.00  0.00    -0.398 N 
HETATM   20  H   LIG     1      25.076  22.646  26.536  1.00  0.00     0.156 HD
HETATM   21  H   LIG     1      23.570  22.824  25.621  1.00  0.00     0.156 HD
ENDBRANCH   1  19
TORSDOF 1
ENDMDL
MODEL 19
REMARK VINA RESULT:      -5.0     16.189     16.914
REMARK  1 active torsions:
REMARK  status: ('A' for Active; 'I' for Inactive)
REMARK    1  A    between atoms: N_1  and  C_2 
ROOT
HETATM    1  C   LIG     1      27.768  24.643  24.715  1.00  0.00     0.037 A 
HETATM    2  C   LIG     1      27.521  24.666  26.106  1.00  0.00     0.001 A 
HETATM    3  C   LIG     1      26.450  23.894  26.647  1.00  0.00    -0.013 A 
HETATM    4  C   LIG     1      26.234  23.948  28.050  1.00  0.00     0.013 A 
HETATM    5  C   LIG     1      27.041  24.725  28.877  1.00  0.00     0.001 A 
HETATM    6  C   LIG     1      28.069  25.484  28.339  1.00  0.00     0.001 A 
HETATM    7  C   LIG     1      28.306  25.465  26.968  1.00  0.00     0.014 A 
HETATM    8  C   LIG     1      26.915  23.935  23.871  1.00  0.00     0.043 A 
HETATM    9  C   LIG     1      25.829  23.181  24.358  1.00  0.00    -0.012 A 
HETATM   10  C   LIG     1      25.623  23.118  25.771  1.00  0.00    -0.014 A 
HETATM   11  C   LIG     1      24.602  22.273  26.263  1.00  0.00     0.014 A 
HETATM   12  C   LIG     1      23.788  21.544  25.408  1.00  0.00     0.013 A 
HETATM   13  C   LIG     1      23.941  21.634  24.028  1.00  0.00    -0.025 A 
HETATM   14  C   LIG     1      24.956  22.460  23.476  1.00  0.00    -0.015 A 
HETATM   15  C   LIG     1      25.040  22.538  22.060  1.00  0.00     0.013 A 
HETATM   16  C   LIG     1      24.174  21.802  21.246  1.00  0.00     0.001 A 
HETATM   17  C   LIG     1      23.203  20.982  21.811  1.00  0.00     0.001 A 
HETATM   18  C   LIG     1      23.083  20.899  23.194  1.00  0.00     0.012 A 
ENDROOT
BRANCH   1  19
HETATM   19  N   LIG     1      28.892  25.318  24.125  1.00  0.00    -0.398 N 
HETATM   20  H   LIG     1      29.650  25.752  24.694  1.00  0.00     0.156 HD
HETATM   21  H   LIG     1      29.069  25.250  23.098  1.00  0.00     0.156 HD
ENDBRANCH   1  19
TORSDOF 1
ENDMDL
