REMARK  1 active torsions:
REMARK  status: ('A' for Active; 'I' for Inactive)
REMARK    1  A    between atoms: N_1  and  C_2 
ROOT
HETATM    1  C   LIG     1       1.551   1.655   0.206  1.00  0.00     0.037 A 
HETATM    2  C   LIG     1       2.310   0.487  -0.027  1.00  0.00     0.001 A 
HETATM    3  C   LIG     1       1.645  -0.754  -0.258  1.00  0.00    -0.013 A 
HETATM    4  C   LIG     1       2.446  -1.906  -0.485  1.00  0.00     0.013 A 
HETATM    5  C   LIG     1       3.837  -1.831  -0.486  1.00  0.00     0.001 A 
HETATM    6  C   LIG     1       4.473  -0.623  -0.245  1.00  0.00     0.001 A 
HETATM    7  C   LIG     1       3.723   0.525  -0.009  1.00  0.00     0.014 A 
HETATM    8  C   LIG     1       0.162   1.574   0.292  1.00  0.00     0.043 A 
HETATM    9  C   LIG     1      -0.535   0.365   0.098  1.00  0.00    -0.012 A 
HETATM   10  C   LIG     1       0.213  -0.807  -0.232  1.00  0.00    -0.014 A 
HETATM   11  C   LIG     1      -0.496  -1.992  -0.535  1.00  0.00     0.014 A 
HETATM   12  C   LIG     1      -1.881  -2.043  -0.483  1.00  0.00     0.013 A 
HETATM   13  C   LIG     1      -2.622  -0.925  -0.113  1.00  0.00    -0.025 A 
HETATM   14  C   LIG     1      -1.965   0.296   0.194  1.00  0.00    -0.015 A 
HETATM   15  C   LIG     1      -2.774   1.392   0.599  1.00  0.00     0.013 A 
HETATM   16  C   LIG     1      -4.165   1.276   0.660  1.00  0.00     0.001 A 
HETATM   17  C   LIG     1      -4.787   0.076   0.333  1.00  0.00     0.001 A 
HETATM   18  C   LIG     1      -4.022  -1.021  -0.049  1.00  0.00     0.012 A 
ENDROOT
BRANCH   1  19
HETATM   19  N   LIG     1       2.160   2.950   0.344  1.00  0.00    -0.398 N 
HETATM   20  H   LIG     1       3.095   3.178  -0.056  1.00  0.00     0.156 HD
HETATM   21  H   LIG     1       1.607   3.757   0.710  1.00  0.00     0.156 HD
ENDBRANCH   1  19
TORSDOF 1
