MODEL 1
REMARK VINA RESULT:      -6.7      0.000      0.000
REMARK  4 active torsions:
REMARK  status: ('A' for Active; 'I' for Inactive)
REMARK       I    between atoms: C_2  and  N_18 
REMARK    1  A    between atoms: C_2  and  O_3 
REMARK    2  A    between atoms: O_3  and  C_4 
REMARK    3  A    between atoms: C_6  and  C_7 
REMARK    4  A    between atoms: C_12  and  C_13 
ROOT
HETATM    1  C   LIG     1      16.659  37.359  22.669  1.00  0.00     0.082 A 
HETATM    2  C   LIG     1      17.681  37.914  21.885  1.00  0.00     0.045 A 
HETATM    3  C   LIG     1      18.053  37.332  20.654  1.00  0.00    -0.047 A 
HETATM    4  C   LIG     1      17.350  36.184  20.229  1.00  0.00     0.015 A 
HETATM    5  C   LIG     1      16.299  35.621  20.986  1.00  0.00    -0.047 A 
HETATM    6  C   LIG     1      15.967  36.237  22.211  1.00  0.00     0.045 A 
ENDROOT
BRANCH   1   7
HETATM    7  O   LIG     1      16.273  37.924  23.893  1.00  0.00    -0.262 OA
BRANCH   7   8
HETATM    8  C   LIG     1      16.977  37.803  25.099  1.00  0.00     0.365 C 
HETATM    9  O   LIG     1      17.232  38.820  25.801  1.00  0.00    -0.238 OA
HETATM   10  N   LIG     1      17.454  36.516  25.501  1.00  0.00    -0.341 N 
HETATM   11  C   LIG     1      18.207  36.323  26.734  1.00  0.00     0.151 C 
HETATM   12  H   LIG     1      17.252  35.691  24.893  1.00  0.00     0.164 HD
ENDBRANCH   7   8
ENDBRANCH   1   7
BRANCH   5  13
HETATM   13  C   LIG     1      15.564  34.371  20.455  1.00  0.00    -0.024 C 
HETATM   14  C   LIG     1      15.133  34.609  18.991  1.00  0.00     0.019 C 
HETATM   15  C   LIG     1      14.314  34.102  21.322  1.00  0.00     0.019 C 
HETATM   16  C   LIG     1      16.437  33.094  20.484  1.00  0.00     0.019 C 
ENDBRANCH   5  13
BRANCH   3  17
HETATM   17  C   LIG     1      19.180  37.904  19.767  1.00  0.00    -0.024 C 
HETATM   18  C   LIG     1      19.829  39.115  20.476  1.00  0.00     0.019 C 
HETATM   19  C   LIG     1      20.249  36.817  19.527  1.00  0.00     0.019 C 
HETATM   20  C   LIG     1      18.682  38.386  18.382  1.00  0.00     0.019 C 
ENDBRANCH   3  17
TORSDOF 4
ENDMDL
MODEL 2
REMARK VINA RESULT:      -6.7      0.105      4.144
REMARK  4 active torsions:
REMARK  status: ('A' for Active; 'I' for Inactive)
REMARK       I    between atoms: C_2  and  N_18 
REMARK    1  A    between atoms: C_2  and  O_3 
REMARK    2  A    between atoms: O_3  and  C_4 
REMARK    3  A    between atoms: C_6  and  C_7 
REMARK    4  A    between atoms: C_12  and  C_13 
ROOT
HETATM    1  C   LIG     1      16.653  37.452  22.634  1.00  0.00     0.082 A 
HETATM    2  C   LIG     1      15.977  36.299  22.210  1.00  0.00     0.045 A 
HETATM    3  C   LIG     1      16.306  35.668  20.992  1.00  0.00    -0.047 A 
HETATM    4  C   LIG     1      17.351  36.224  20.222  1.00  0.00     0.015 A 
HETATM    5  C   LIG     1      18.066  37.368  20.639  1.00  0.00    -0.047 A 
HETATM    6  C   LIG     1      17.697  37.965  21.863  1.00  0.00     0.045 A 
ENDROOT
BRANCH   1   7
HETATM    7  O   LIG     1      16.343  38.094  23.842  1.00  0.00    -0.262 OA
BRANCH   7   8
HETATM    8  C   LIG     1      17.025  37.914  25.052  1.00  0.00     0.365 C 
HETATM    9  O   LIG     1      17.175  38.875  25.858  1.00  0.00    -0.238 OA
HETATM   10  N   LIG     1      17.600  36.638  25.345  1.00  0.00    -0.341 N 
HETATM   11  C   LIG     1      18.337  36.387  26.577  1.00  0.00     0.151 C 
HETATM   12  H   LIG     1      17.485  35.862  24.655  1.00  0.00     0.164 HD
ENDBRANCH   7   8
ENDBRANCH   1   7
BRANCH   5  13
HETATM   13  C   LIG     1      19.206  37.917  19.754  1.00  0.00    -0.024 C 
HETATM   14  C   LIG     1      20.253  36.807  19.515  1.00  0.00     0.019 C 
HETATM   15  C   LIG     1      19.878  39.113  20.463  1.00  0.00     0.019 C 
HETATM   16  C   LIG     1      18.720  38.407  18.369  1.00  0.00     0.019 C 
ENDBRANCH   5  13
BRANCH   3  17
HETATM   17  C   LIG     1      15.579  34.404  20.483  1.00  0.00    -0.024 C 
HETATM   18  C   LIG     1      14.324  34.148  21.350  1.00  0.00     0.019 C 
HETATM   19  C   LIG     1      15.153  34.610  19.014  1.00  0.00     0.019 C 
HETATM   20  C   LIG     1      16.455  33.129  20.543  1.00  0.00     0.019 C 
ENDBRANCH   3  17
TORSDOF 4
ENDMDL
MODEL 3
REMARK VINA RESULT:      -6.4      2.894      5.658
REMARK  4 active torsions:
REMARK  status: ('A' for Active; 'I' for Inactive)
REMARK       I    between atoms: C_2  and  N_18 
REMARK    1  A    between atoms: C_2  and  O_3 
REMARK    2  A    between atoms: O_3  and  C_4 
REMARK    3  A    between atoms: C_6  and  C_7 
REMARK    4  A    between atoms: C_12  and  C_13 
ROOT
HETATM    1  C   LIG     1      16.800  35.608  20.358  1.00  0.00     0.082 A 
HETATM    2  C   LIG     1      16.634  35.771  21.741  1.00  0.00     0.045 A 
HETATM    3  C   LIG     1      17.327  36.780  22.444  1.00  0.00    -0.047 A 
HETATM    4  C   LIG     1      18.177  37.632  21.706  1.00  0.00     0.015 A 
HETATM    5  C   LIG     1      18.340  37.508  20.309  1.00  0.00    -0.047 A 
HETATM    6  C   LIG     1      17.629  36.481  19.652  1.00  0.00     0.045 A 
ENDROOT
BRANCH   1   7
HETATM    7  O   LIG     1      16.119  34.614  19.640  1.00  0.00    -0.262 OA
BRANCH   7   8
HETATM    8  C   LIG     1      15.429  33.534  20.207  1.00  0.00     0.365 C 
HETATM    9  O   LIG     1      14.701  33.697  21.225  1.00  0.00    -0.238 OA
HETATM   10  N   LIG     1      15.601  32.228  19.651  1.00  0.00    -0.341 N 
HETATM   11  C   LIG     1      14.927  31.059  20.202  1.00  0.00     0.151 C 
HETATM   12  H   LIG     1      16.227  32.111  18.822  1.00  0.00     0.164 HD
ENDBRANCH   7   8
ENDBRANCH   1   7
BRANCH   5  13
HETATM   13  C   LIG     1      19.276  38.483  19.563  1.00  0.00    -0.024 C 
HETATM   14  C   LIG     1      19.229  39.868  20.244  1.00  0.00     0.019 C 
HETATM   15  C   LIG     1      18.816  38.616  18.095  1.00  0.00     0.019 C 
HETATM   16  C   LIG     1      20.753  38.018  19.549  1.00  0.00     0.019 C 
ENDBRANCH   5  13
BRANCH   3  17
HETATM   17  C   LIG     1      17.182  36.985  23.968  1.00  0.00    -0.024 C 
HETATM   18  C   LIG     1      15.843  37.696  24.267  1.00  0.00     0.019 C 
HETATM   19  C   LIG     1      17.204  35.613  24.676  1.00  0.00     0.019 C 
HETATM   20  C   LIG     1      18.315  37.845  24.578  1.00  0.00     0.019 C 
ENDBRANCH   3  17
TORSDOF 4
ENDMDL
MODEL 4
REMARK VINA RESULT:      -5.9      2.779      5.316
REMARK  4 active torsions:
REMARK  status: ('A' for Active; 'I' for Inactive)
REMARK       I    between atoms: C_2  and  N_18 
REMARK    1  A    between atoms: C_2  and  O_3 
REMARK    2  A    between atoms: O_3  and  C_4 
REMARK    3  A    between atoms: C_6  and  C_7 
REMARK    4  A    between atoms: C_12  and  C_13 
ROOT
HETATM    1  C   LIG     1      16.157  35.261  22.521  1.00  0.00     0.082 A 
HETATM    2  C   LIG     1      16.584  36.487  21.992  1.00  0.00     0.045 A 
HETATM    3  C   LIG     1      17.391  37.366  22.747  1.00  0.00    -0.047 A 
HETATM    4  C   LIG     1      17.769  36.961  24.046  1.00  0.00     0.015 A 
HETATM    5  C   LIG     1      17.376  35.720  24.592  1.00  0.00    -0.047 A 
HETATM    6  C   LIG     1      16.567  34.879  23.800  1.00  0.00     0.045 A 
ENDROOT
BRANCH   1   7
HETATM    7  O   LIG     1      15.357  34.373  21.787  1.00  0.00    -0.262 OA
BRANCH   7   8
HETATM    8  C   LIG     1      15.557  34.024  20.445  1.00  0.00     0.365 C 
HETATM    9  O   LIG     1      16.246  34.758  19.683  1.00  0.00    -0.238 OA
HETATM   10  N   LIG     1      14.926  32.848  19.930  1.00  0.00    -0.341 N 
HETATM   11  C   LIG     1      15.079  32.436  18.540  1.00  0.00     0.151 C 
HETATM   12  H   LIG     1      14.341  32.267  20.572  1.00  0.00     0.164 HD
ENDBRANCH   7   8
ENDBRANCH   1   7
BRANCH   5  13
HETATM   13  C   LIG     1      17.836  35.335  26.015  1.00  0.00    -0.024 C 
HETATM   14  C   LIG     1      16.724  34.524  26.715  1.00  0.00     0.019 C 
HETATM   15  C   LIG     1      18.128  36.616  26.826  1.00  0.00     0.019 C 
HETATM   16  C   LIG     1      19.122  34.472  26.025  1.00  0.00     0.019 C 
ENDBRANCH   5  13
BRANCH   3  17
HETATM   17  C   LIG     1      17.872  38.730  22.206  1.00  0.00    -0.024 C 
HETATM   18  C   LIG     1      16.761  39.785  22.407  1.00  0.00     0.019 C 
HETATM   19  C   LIG     1      19.140  39.169  22.970  1.00  0.00     0.019 C 
HETATM   20  C   LIG     1      18.220  38.700  20.698  1.00  0.00     0.019 C 
ENDBRANCH   3  17
TORSDOF 4
ENDMDL
MODEL 5
REMARK VINA RESULT:      -5.7      2.869      5.255
REMARK  4 active torsions:
REMARK  status: ('A' for Active; 'I' for Inactive)
REMARK       I    between atoms: C_2  and  N_18 
REMARK    1  A    between atoms: C_2  and  O_3 
REMARK    2  A    between atoms: O_3  and  C_4 
REMARK    3  A    between atoms: C_6  and  C_7 
REMARK    4  A    between atoms: C_12  and  C_13 
ROOT
HETATM    1  C   LIG     1      16.802  35.324  21.102  1.00  0.00     0.082 A 
HETATM    2  C   LIG     1      17.540  36.137  20.230  1.00  0.00     0.045 A 
HETATM    3  C   LIG     1      18.246  37.263  20.705  1.00  0.00    -0.047 A 
HETATM    4  C   LIG     1      18.201  37.533  22.090  1.00  0.00     0.015 A 
HETATM    5  C   LIG     1      17.489  36.714  22.994  1.00  0.00    -0.047 A 
HETATM    6  C   LIG     1      16.796  35.603  22.470  1.00  0.00     0.045 A 
ENDROOT
BRANCH   1   7
HETATM    7  O   LIG     1      16.096  34.199  20.651  1.00  0.00    -0.262 OA
BRANCH   7   8
HETATM    8  C   LIG     1      15.642  34.000  19.341  1.00  0.00     0.365 C 
HETATM    9  O   LIG     1      15.482  34.978  18.558  1.00  0.00    -0.238 OA
HETATM   10  N   LIG     1      15.310  32.677  18.913  1.00  0.00    -0.341 N 
HETATM   11  C   LIG     1      14.817  32.401  17.569  1.00  0.00     0.151 C 
HETATM   12  H   LIG     1      15.427  31.884  19.583  1.00  0.00     0.164 HD
ENDBRANCH   7   8
ENDBRANCH   1   7
BRANCH   5  13
HETATM   13  C   LIG     1      17.493  37.060  24.499  1.00  0.00    -0.024 C 
HETATM   14  C   LIG     1      18.837  37.724  24.873  1.00  0.00     0.019 C 
HETATM   15  C   LIG     1      17.310  35.769  25.325  1.00  0.00     0.019 C 
HETATM   16  C   LIG     1      16.361  38.037  24.901  1.00  0.00     0.019 C 
ENDBRANCH   5  13
BRANCH   3  17
HETATM   17  C   LIG     1      19.060  38.191  19.776  1.00  0.00    -0.024 C 
HETATM   18  C   LIG     1      18.529  38.066  18.330  1.00  0.00     0.019 C 
HETATM   19  C   LIG     1      18.914  39.652  20.252  1.00  0.00     0.019 C 
HETATM   20  C   LIG     1      20.571  37.854  19.749  1.00  0.00     0.019 C 
ENDBRANCH   3  17
TORSDOF 4
ENDMDL
MODEL 6
REMARK VINA RESULT:      -5.1      8.043     10.624
REMARK  4 active torsions:
REMARK  status: ('A' for Active; 'I' for Inactive)
REMARK       I    between atoms: C_2  and  N_18 
REMARK    1  A    between atoms: C_2  and  O_3 
REMARK    2  A    between atoms: O_3  and  C_4 
REMARK    3  A    between atoms: C_6  and  C_7 
REMARK    4  A    between atoms: C_12  and  C_13 
ROOT
HETATM    1  C   LIG     1      15.846  30.813  13.838  1.00  0.00     0.082 A 
HETATM    2  C   LIG     1      15.123  31.057  15.014  1.00  0.00     0.045 A 
HETATM    3  C   LIG     1      15.273  32.268  15.724  1.00  0.00    -0.047 A 
HETATM    4  C   LIG     1      16.161  33.233  15.201  1.00  0.00     0.015 A 
HETATM    5  C   LIG     1      16.880  33.024  14.004  1.00  0.00    -0.047 A 
HETATM    6  C   LIG     1      16.698  31.796  13.333  1.00  0.00     0.045 A 
ENDROOT
BRANCH   1   7
HETATM    7  O   LIG     1      15.710  29.618  13.116  1.00  0.00    -0.262 OA
BRANCH   7   8
HETATM    8  C   LIG     1      15.032  28.476  13.562  1.00  0.00     0.365 C 
HETATM    9  O   LIG     1      15.669  27.460  13.955  1.00  0.00    -0.238 OA
HETATM   10  N   LIG     1      13.603  28.452  13.516  1.00  0.00    -0.341 N 
HETATM   11  C   LIG     1      12.836  27.290  13.948  1.00  0.00     0.151 C 
HETATM   12  H   LIG     1      13.094  29.295  13.165  1.00  0.00     0.164 HD
ENDBRANCH   7   8
ENDBRANCH   1   7
BRANCH   5  13
HETATM   13  C   LIG     1      17.825  34.128  13.482  1.00  0.00    -0.024 C 
HETATM   14  C   LIG     1      19.267  33.580  13.407  1.00  0.00     0.019 C 
HETATM   15  C   LIG     1      17.783  35.337  14.441  1.00  0.00     0.019 C 
HETATM   16  C   LIG     1      17.444  34.637  12.070  1.00  0.00     0.019 C 
ENDBRANCH   5  13
BRANCH   3  17
HETATM   17  C   LIG     1      14.506  32.570  17.030  1.00  0.00    -0.024 C 
HETATM   18  C   LIG     1      14.389  34.100  17.216  1.00  0.00     0.019 C 
HETATM   19  C   LIG     1      13.092  31.954  16.951  1.00  0.00     0.019 C 
HETATM   20  C   LIG     1      15.197  31.998  18.291  1.00  0.00     0.019 C 
ENDBRANCH   3  17
TORSDOF 4
ENDMDL
MODEL 7
REMARK VINA RESULT:      -5.0     14.683     16.243
REMARK  4 active torsions:
REMARK  status: ('A' for Active; 'I' for Inactive)
REMARK       I    between atoms: C_2  and  N_18 
REMARK    1  A    between atoms: C_2  and  O_3 
REMARK    2  A    between atoms: O_3  and  C_4 
REMARK    3  A    between atoms: C_6  and  C_7 
REMARK    4  A    between atoms: C_12  and  C_13 
ROOT
HETATM    1  C   LIG     1      26.504  23.204  22.842  1.00  0.00     0.082 A 
HETATM    2  C   LIG     1      25.249  22.590  22.732  1.00  0.00     0.045 A 
HETATM    3  C   LIG     1      24.538  22.599  21.512  1.00  0.00    -0.047 A 
HETATM    4  C   LIG     1      25.141  23.231  20.403  1.00  0.00     0.015 A 
HETATM    5  C   LIG     1      26.415  23.833  20.480  1.00  0.00    -0.047 A 
HETATM    6  C   LIG     1      27.084  23.800  21.722  1.00  0.00     0.045 A 
ENDROOT
BRANCH   1   7
HETATM    7  O   LIG     1      27.228  23.204  24.044  1.00  0.00    -0.262 OA
BRANCH   7   8
HETATM    8  C   LIG     1      27.150  24.190  25.036  1.00  0.00     0.365 C 
HETATM    9  O   LIG     1      27.646  25.336  24.847  1.00  0.00    -0.238 OA
HETATM   10  N   LIG     1      26.548  23.868  26.292  1.00  0.00    -0.341 N 
HETATM   11  C   LIG     1      26.449  24.841  27.373  1.00  0.00     0.151 C 
HETATM   12  H   LIG     1      26.164  22.907  26.437  1.00  0.00     0.164 HD
ENDBRANCH   7   8
ENDBRANCH   1   7
BRANCH   5  13
HETATM   13  C   LIG     1      27.021  24.495  19.224  1.00  0.00    -0.024 C 
HETATM   14  C   LIG     1      27.433  25.947  19.554  1.00  0.00     0.019 C 
HETATM   15  C   LIG     1      25.973  24.504  18.090  1.00  0.00     0.019 C 
HETATM   16  C   LIG     1      28.278  23.761  18.695  1.00  0.00     0.019 C 
ENDBRANCH   5  13
BRANCH   3  17
HETATM   17  C   LIG     1      23.148  21.945  21.351  1.00  0.00    -0.024 C 
HETATM   18  C   LIG     1      22.059  23.042  21.355  1.00  0.00     0.019 C 
HETATM   19  C   LIG     1      23.093  21.173  20.015  1.00  0.00     0.019 C 
HETATM   20  C   LIG     1      22.808  20.947  22.485  1.00  0.00     0.019 C 
ENDBRANCH   3  17
TORSDOF 4
ENDMDL
MODEL 8
REMARK VINA RESULT:      -5.0     14.667     15.794
REMARK  4 active torsions:
REMARK  status: ('A' for Active; 'I' for Inactive)
REMARK       I    between atoms: C_2  and  N_18 
REMARK    1  A    between atoms: C_2  and  O_3 
REMARK    2  A    between atoms: O_3  and  C_4 
REMARK    3  A    between atoms: C_6  and  C_7 
REMARK    4  A    between atoms: C_12  and  C_13 
ROOT
HETATM    1  C   LIG     1      26.556  23.201  22.822  1.00  0.00     0.082 A 
HETATM    2  C   LIG     1      27.109  23.838  21.702  1.00  0.00     0.045 A 
HETATM    3  C   LIG     1      26.429  23.855  20.465  1.00  0.00    -0.047 A 
HETATM    4  C   LIG     1      25.166  23.228  20.398  1.00  0.00     0.015 A 
HETATM    5  C   LIG     1      24.575  22.604  21.518  1.00  0.00    -0.047 A 
HETATM    6  C   LIG     1      25.295  22.609  22.731  1.00  0.00     0.045 A 
ENDROOT
BRANCH   1   7
HETATM    7  O   LIG     1      27.213  23.174  24.061  1.00  0.00    -0.262 OA
BRANCH   7   8
HETATM    8  C   LIG     1      27.130  24.169  25.044  1.00  0.00     0.365 C 
HETATM    9  O   LIG     1      27.612  25.318  24.842  1.00  0.00    -0.238 OA
HETATM   10  N   LIG     1      26.537  23.853  26.306  1.00  0.00    -0.341 N 
HETATM   11  C   LIG     1      26.433  24.835  27.378  1.00  0.00     0.151 C 
HETATM   12  H   LIG     1      26.164  22.889  26.462  1.00  0.00     0.164 HD
ENDBRANCH   7   8
ENDBRANCH   1   7
BRANCH   5  13
HETATM   13  C   LIG     1      23.185  21.947  21.377  1.00  0.00    -0.024 C 
HETATM   14  C   LIG     1      23.129  21.133  20.066  1.00  0.00     0.019 C 
HETATM   15  C   LIG     1      22.098  23.043  21.348  1.00  0.00     0.019 C 
HETATM   16  C   LIG     1      22.847  20.984  22.541  1.00  0.00     0.019 C 
ENDBRANCH   5  13
BRANCH   3  17
HETATM   17  C   LIG     1      27.008  24.535  19.204  1.00  0.00    -0.024 C 
HETATM   18  C   LIG     1      28.290  23.792  18.762  1.00  0.00     0.019 C 
HETATM   19  C   LIG     1      25.966  24.482  18.066  1.00  0.00     0.019 C 
HETATM   20  C   LIG     1      27.383  26.020  19.429  1.00  0.00     0.019 C 
ENDBRANCH   3  17
TORSDOF 4
ENDMDL
MODEL 9
REMARK VINA RESULT:      -4.8     14.716     16.442
REMARK  4 active torsions:
REMARK  status: ('A' for Active; 'I' for Inactive)
REMARK       I    between atoms: C_2  and  N_18 
REMARK    1  A    between atoms: C_2  and  O_3 
REMARK    2  A    between atoms: O_3  and  C_4 
REMARK    3  A    between atoms: C_6  and  C_7 
REMARK    4  A    between atoms: C_12  and  C_13 
ROOT
HETATM    1  C   LIG     1      26.583  23.572  21.028  1.00  0.00     0.082 A 
HETATM    2  C   LIG     1      26.976  23.663  22.371  1.00  0.00     0.045 A 
HETATM    3  C   LIG     1      26.129  23.221  23.409  1.00  0.00    -0.047 A 
HETATM    4  C   LIG     1      24.881  22.666  23.051  1.00  0.00     0.015 A 
HETATM    5  C   LIG     1      24.473  22.537  21.706  1.00  0.00    -0.047 A 
HETATM    6  C   LIG     1      25.353  22.997  20.704  1.00  0.00     0.045 A 
ENDROOT
BRANCH   1   7
HETATM    7  O   LIG     1      27.410  24.003  19.980  1.00  0.00    -0.262 OA
BRANCH   7   8
HETATM    8  C   LIG     1      27.363  25.268  19.380  1.00  0.00     0.365 C 
HETATM    9  O   LIG     1      26.258  25.796  19.072  1.00  0.00    -0.238 OA
HETATM   10  N   LIG     1      28.588  25.937  19.069  1.00  0.00    -0.341 N 
HETATM   11  C   LIG     1      28.612  27.247  18.429  1.00  0.00     0.151 C 
HETATM   12  H   LIG     1      29.493  25.473  19.311  1.00  0.00     0.164 HD
ENDBRANCH   7   8
ENDBRANCH   1   7
BRANCH   5  13
HETATM   13  C   LIG     1      23.099  21.909  21.385  1.00  0.00    -0.024 C 
HETATM   14  C   LIG     1      22.741  20.869  22.469  1.00  0.00     0.019 C 
HETATM   15  C   LIG     1      23.160  21.215  20.006  1.00  0.00     0.019 C 
HETATM   16  C   LIG     1      21.952  22.947  21.336  1.00  0.00     0.019 C 
ENDBRANCH   5  13
BRANCH   3  17
HETATM   17  C   LIG     1      26.519  23.315  24.901  1.00  0.00    -0.024 C 
HETATM   18  C   LIG     1      27.252  24.652  25.159  1.00  0.00     0.019 C 
HETATM   19  C   LIG     1      25.245  23.253  25.771  1.00  0.00     0.019 C 
HETATM   20  C   LIG     1      27.457  22.173  25.360  1.00  0.00     0.019 C 
ENDBRANCH   3  17
TORSDOF 4
ENDMDL
MODEL 10
REMARK VINA RESULT:      -4.8     15.253     17.559
REMARK  4 active torsions:
REMARK  status: ('A' for Active; 'I' for Inactive)
REMARK       I    between atoms: C_2  and  N_18 
REMARK    1  A    between atoms: C_2  and  O_3 
REMARK    2  A    between atoms: O_3  and  C_4 
REMARK    3  A    between atoms: C_6  and  C_7 
REMARK    4  A    between atoms: C_12  and  C_13 
ROOT
HETATM    1  C   LIG     1      25.315  21.689  18.435  1.00  0.00     0.082 A 
HETATM    2  C   LIG     1      24.828  22.161  19.663  1.00  0.00     0.045 A 
HETATM    3  C   LIG     1      23.677  21.596  20.255  1.00  0.00    -0.047 A 
HETATM    4  C   LIG     1      23.045  20.529  19.581  1.00  0.00     0.015 A 
HETATM    5  C   LIG     1      23.531  20.018  18.358  1.00  0.00    -0.047 A 
HETATM    6  C   LIG     1      24.681  20.618  17.804  1.00  0.00     0.045 A 
ENDROOT
BRANCH   1   7
HETATM    7  O   LIG     1      26.457  22.235  17.830  1.00  0.00    -0.262 OA
BRANCH   7   8
HETATM    8  C   LIG     1      27.266  23.235  18.383  1.00  0.00     0.365 C 
HETATM    9  O   LIG     1      28.203  22.942  19.178  1.00  0.00    -0.238 OA
HETATM   10  N   LIG     1      26.986  24.604  18.080  1.00  0.00    -0.341 N 
HETATM   11  C   LIG     1      27.778  25.696  18.634  1.00  0.00     0.151 C 
HETATM   12  H   LIG     1      26.192  24.828  17.439  1.00  0.00     0.164 HD
ENDBRANCH   7   8
ENDBRANCH   1   7
BRANCH   5  13
HETATM   13  C   LIG     1      22.797  18.840  17.680  1.00  0.00    -0.024 C 
HETATM   14  C   LIG     1      21.702  19.387  16.739  1.00  0.00     0.019 C 
HETATM   15  C   LIG     1      22.147  17.948  18.761  1.00  0.00     0.019 C 
HETATM   16  C   LIG     1      23.735  17.944  16.836  1.00  0.00     0.019 C 
ENDBRANCH   5  13
BRANCH   3  17
HETATM   17  C   LIG     1      23.101  22.094  21.599  1.00  0.00    -0.024 C 
HETATM   18  C   LIG     1      22.672  20.881  22.456  1.00  0.00     0.019 C 
HETATM   19  C   LIG     1      24.180  22.899  22.355  1.00  0.00     0.019 C 
HETATM   20  C   LIG     1      21.864  23.008  21.431  1.00  0.00     0.019 C 
ENDBRANCH   3  17
TORSDOF 4
ENDMDL
MODEL 11
REMARK VINA RESULT:      -4.7     14.851     16.851
REMARK  4 active torsions:
REMARK  status: ('A' for Active; 'I' for Inactive)
REMARK       I    between atoms: C_2  and  N_18 
REMARK    1  A    between atoms: C_2  and  O_3 
REMARK    2  A    between atoms: O_3  and  C_4 
REMARK    3  A    between atoms: C_6  and  C_7 
REMARK    4  A    between atoms: C_12  and  C_13 
ROOT
HETATM    1  C   LIG     1      26.764  23.266  21.074  1.00  0.00     0.082 A 
HETATM    2  C   LIG     1      25.493  22.781  20.733  1.00  0.00     0.045 A 
HETATM    3  C   LIG     1      24.544  22.460  21.729  1.00  0.00    -0.047 A 
HETATM    4  C   LIG     1      24.911  22.660  23.077  1.00  0.00     0.015 A 
HETATM    5  C   LIG     1      26.173  23.172  23.446  1.00  0.00    -0.047 A 
HETATM    6  C   LIG     1      27.088  23.475  22.416  1.00  0.00     0.045 A 
ENDROOT
BRANCH   1   7
HETATM    7  O   LIG     1      27.719  23.594  20.102  1.00  0.00    -0.262 OA
BRANCH   7   8
HETATM    8  C   LIG     1      27.630  24.670  19.209  1.00  0.00     0.365 C 
HETATM    9  O   LIG     1      27.056  24.537  18.093  1.00  0.00    -0.238 OA
HETATM   10  N   LIG     1      28.246  25.914  19.555  1.00  0.00    -0.341 N 
HETATM   11  C   LIG     1      28.206  27.069  18.667  1.00  0.00     0.151 C 
HETATM   12  H   LIG     1      28.737  25.996  20.474  1.00  0.00     0.164 HD
ENDBRANCH   7   8
ENDBRANCH   1   7
BRANCH   5  13
HETATM   13  C   LIG     1      26.503  23.379  24.941  1.00  0.00    -0.024 C 
HETATM   14  C   LIG     1      25.193  23.439  25.755  1.00  0.00     0.019 C 
HETATM   15  C   LIG     1      27.281  24.701  25.119  1.00  0.00     0.019 C 
HETATM   16  C   LIG     1      27.371  22.242  25.534  1.00  0.00     0.019 C 
ENDBRANCH   5  13
BRANCH   3  17
HETATM   17  C   LIG     1      23.139  21.912  21.396  1.00  0.00    -0.024 C 
HETATM   18  C   LIG     1      23.162  21.249  20.000  1.00  0.00     0.019 C 
HETATM   19  C   LIG     1      22.731  20.865  22.454  1.00  0.00     0.019 C 
HETATM   20  C   LIG     1      22.046  23.008  21.374  1.00  0.00     0.019 C 
ENDBRANCH   3  17
TORSDOF 4
ENDMDL
MODEL 12
REMARK VINA RESULT:      -4.3     15.453     17.387
REMARK  4 active torsions:
REMARK  status: ('A' for Active; 'I' for Inactive)
REMARK       I    between atoms: C_2  and  N_18 
REMARK    1  A    between atoms: C_2  and  O_3 
REMARK    2  A    between atoms: O_3  and  C_4 
REMARK    3  A    between atoms: C_6  and  C_7 
REMARK    4  A    between atoms: C_12  and  C_13 
ROOT
HETATM    1  C   LIG     1      23.842  21.876  19.180  1.00  0.00     0.082 A 
HETATM    2  C   LIG     1      24.846  22.810  18.885  1.00  0.00     0.045 A 
HETATM    3  C   LIG     1      25.699  23.307  19.894  1.00  0.00    -0.047 A 
HETATM    4  C   LIG     1      25.520  22.819  21.207  1.00  0.00     0.015 A 
HETATM    5  C   LIG     1      24.535  21.860  21.526  1.00  0.00    -0.047 A 
HETATM    6  C   LIG     1      23.705  21.396  20.483  1.00  0.00     0.045 A 
ENDROOT
BRANCH   1   7
HETATM    7  O   LIG     1      22.986  21.368  18.192  1.00  0.00    -0.262 OA
BRANCH   7   8
HETATM    8  C   LIG     1      22.958  20.038  17.751  1.00  0.00     0.365 C 
HETATM    9  O   LIG     1      21.917  19.337  17.882  1.00  0.00    -0.238 OA
HETATM   10  N   LIG     1      24.144  19.464  17.196  1.00  0.00    -0.341 N 
HETATM   11  C   LIG     1      24.189  18.082  16.733  1.00  0.00     0.151 C 
HETATM   12  H   LIG     1      25.003  20.054  17.118  1.00  0.00     0.164 HD
ENDBRANCH   7   8
ENDBRANCH   1   7
BRANCH   5  13
HETATM   13  C   LIG     1      24.402  21.360  22.981  1.00  0.00    -0.024 C 
HETATM   14  C   LIG     1      24.700  22.522  23.955  1.00  0.00     0.019 C 
HETATM   15  C   LIG     1      25.408  20.214  23.226  1.00  0.00     0.019 C 
HETATM   16  C   LIG     1      22.989  20.822  23.313  1.00  0.00     0.019 C 
ENDBRANCH   5  13
BRANCH   3  17
HETATM   17  C   LIG     1      26.808  24.344  19.613  1.00  0.00    -0.024 C 
HETATM   18  C   LIG     1      27.842  23.740  18.635  1.00  0.00     0.019 C 
HETATM   19  C   LIG     1      26.184  25.608  18.984  1.00  0.00     0.019 C 
HETATM   20  C   LIG     1      27.572  24.781  20.887  1.00  0.00     0.019 C 
ENDBRANCH   3  17
TORSDOF 4
ENDMDL
MODEL 13
REMARK VINA RESULT:      -4.2     14.916     17.018
REMARK  4 active torsions:
REMARK  status: ('A' for Active; 'I' for Inactive)
REMARK       I    between atoms: C_2  and  N_18 
REMARK    1  A    between atoms: C_2  and  O_3 
REMARK    2  A    between atoms: O_3  and  C_4 
REMARK    3  A    between atoms: C_6  and  C_7 
REMARK    4  A    between atoms: C_12  and  C_13 
ROOT
HETATM    1  C   LIG     1      25.992  24.283  19.578  1.00  0.00     0.082 A 
HETATM    2  C   LIG     1      25.007  23.877  20.489  1.00  0.00     0.045 A 
HETATM    3  C   LIG     1      24.577  22.533  20.546  1.00  0.00    -0.047 A 
HETATM    4  C   LIG     1      25.184  21.609  19.669  1.00  0.00     0.015 A 
HETATM    5  C   LIG     1      26.197  21.986  18.761  1.00  0.00    -0.047 A 
HETATM    6  C   LIG     1      26.590  23.341  18.739  1.00  0.00     0.045 A 
ENDROOT
BRANCH   1   7
HETATM    7  O   LIG     1      26.435  25.612  19.506  1.00  0.00    -0.262 OA
BRANCH   7   8
HETATM    8  C   LIG     1      27.770  26.027  19.609  1.00  0.00     0.365 C 
HETATM    9  O   LIG     1      28.444  25.778  20.647  1.00  0.00    -0.238 OA
HETATM   10  N   LIG     1      28.347  26.786  18.544  1.00  0.00    -0.341 N 
HETATM   11  C   LIG     1      29.724  27.263  18.594  1.00  0.00     0.151 C 
HETATM   12  H   LIG     1      27.765  27.001  17.704  1.00  0.00     0.164 HD
ENDBRANCH   7   8
ENDBRANCH   1   7
BRANCH   5  13
HETATM   13  C   LIG     1      26.828  20.921  17.839  1.00  0.00    -0.024 C 
HETATM   14  C   LIG     1      27.480  19.815  18.698  1.00  0.00     0.019 C 
HETATM   15  C   LIG     1      27.903  21.581  16.949  1.00  0.00     0.019 C 
HETATM   16  C   LIG     1      25.799  20.241  16.903  1.00  0.00     0.019 C 
ENDBRANCH   5  13
BRANCH   3  17
HETATM   17  C   LIG     1      23.486  22.047  21.526  1.00  0.00    -0.024 C 
HETATM   18  C   LIG     1      23.942  22.316  22.979  1.00  0.00     0.019 C 
HETATM   19  C   LIG     1      22.171  22.809  21.253  1.00  0.00     0.019 C 
HETATM   20  C   LIG     1      23.187  20.534  21.404  1.00  0.00     0.019 C 
ENDBRANCH   3  17
TORSDOF 4
ENDMDL
MODEL 14
REMARK VINA RESULT:      -4.1     15.427     16.889
REMARK  4 active torsions:
REMARK  status: ('A' for Active; 'I' for Inactive)
REMARK       I    between atoms: C_2  and  N_18 
REMARK    1  A    between atoms: C_2  and  O_3 
REMARK    2  A    between atoms: O_3  and  C_4 
REMARK    3  A    between atoms: C_6  and  C_7 
REMARK    4  A    between atoms: C_12  and  C_13 
ROOT
HETATM    1  C   LIG     1      24.285  22.642  20.967  1.00  0.00     0.082 A 
HETATM    2  C   LIG     1      25.214  23.376  20.216  1.00  0.00     0.045 A 
HETATM    3  C   LIG     1      26.402  23.864  20.802  1.00  0.00    -0.047 A 
HETATM    4  C   LIG     1      26.633  23.572  22.164  1.00  0.00     0.015 A 
HETATM    5  C   LIG     1      25.727  22.812  22.935  1.00  0.00    -0.047 A 
HETATM    6  C   LIG     1      24.552  22.350  22.305  1.00  0.00     0.045 A 
ENDROOT
BRANCH   1   7
HETATM    7  O   LIG     1      23.100  22.146  20.403  1.00  0.00    -0.262 OA
BRANCH   7   8
HETATM    8  C   LIG     1      23.028  21.246  19.331  1.00  0.00     0.365 C 
HETATM    9  O   LIG     1      22.876  21.662  18.149  1.00  0.00    -0.238 OA
HETATM   10  N   LIG     1      23.074  19.842  19.597  1.00  0.00    -0.341 N 
HETATM   11  C   LIG     1      22.987  18.852  18.531  1.00  0.00     0.151 C 
HETATM   12  H   LIG     1      23.176  19.518  20.585  1.00  0.00     0.164 HD
ENDBRANCH   7   8
ENDBRANCH   1   7
BRANCH   5  13
HETATM   13  C   LIG     1      26.048  22.519  24.417  1.00  0.00    -0.024 C 
HETATM   14  C   LIG     1      26.797  21.173  24.526  1.00  0.00     0.019 C 
HETATM   15  C   LIG     1      24.734  22.443  25.224  1.00  0.00     0.019 C 
HETATM   16  C   LIG     1      26.937  23.603  25.072  1.00  0.00     0.019 C 
ENDBRANCH   5  13
BRANCH   3  17
HETATM   17  C   LIG     1      27.444  24.687  20.014  1.00  0.00    -0.024 C 
HETATM   18  C   LIG     1      26.719  25.615  19.013  1.00  0.00     0.019 C 
HETATM   19  C   LIG     1      28.275  25.542  20.996  1.00  0.00     0.019 C 
HETATM   20  C   LIG     1      28.430  23.809  19.206  1.00  0.00     0.019 C 
ENDBRANCH   3  17
TORSDOF 4
ENDMDL
MODEL 15
REMARK VINA RESULT:      -4.0     14.941     17.121
REMARK  4 active torsions:
REMARK  status: ('A' for Active; 'I' for Inactive)
REMARK       I    between atoms: C_2  and  N_18 
REMARK    1  A    between atoms: C_2  and  O_3 
REMARK    2  A    between atoms: O_3  and  C_4 
REMARK    3  A    between atoms: C_6  and  C_7 
REMARK    4  A    between atoms: C_12  and  C_13 
ROOT
HETATM    1  C   LIG     1      24.210  22.361  21.239  1.00  0.00     0.082 A 
HETATM    2  C   LIG     1      23.901  21.292  20.386  1.00  0.00     0.045 A 
HETATM    3  C   LIG     1      24.495  21.183  19.110  1.00  0.00    -0.047 A 
HETATM    4  C   LIG     1      25.424  22.175  18.729  1.00  0.00     0.015 A 
HETATM    5  C   LIG     1      25.773  23.247  19.579  1.00  0.00    -0.047 A 
HETATM    6  C   LIG     1      25.150  23.314  20.843  1.00  0.00     0.045 A 
ENDROOT
BRANCH   1   7
HETATM    7  O   LIG     1      23.633  22.487  22.512  1.00  0.00    -0.262 OA
BRANCH   7   8
HETATM    8  C   LIG     1      24.106  21.873  23.679  1.00  0.00     0.365 C 
HETATM    9  O   LIG     1      25.239  22.170  24.151  1.00  0.00    -0.238 OA
HETATM   10  N   LIG     1      23.311  20.863  24.305  1.00  0.00    -0.341 N 
HETATM   11  C   LIG     1      23.750  20.173  25.512  1.00  0.00     0.151 C 
HETATM   12  H   LIG     1      22.387  20.615  23.885  1.00  0.00     0.164 HD
ENDBRANCH   7   8
ENDBRANCH   1   7
BRANCH   5  13
HETATM   13  C   LIG     1      26.807  24.290  19.103  1.00  0.00    -0.024 C 
HETATM   14  C   LIG     1      26.125  25.669  18.971  1.00  0.00     0.019 C 
HETATM   15  C   LIG     1      27.375  23.864  17.731  1.00  0.00     0.019 C 
HETATM   16  C   LIG     1      28.001  24.451  20.074  1.00  0.00     0.019 C 
ENDBRANCH   5  13
BRANCH   3  17
HETATM   17  C   LIG     1      24.173  20.029  18.136  1.00  0.00    -0.024 C 
HETATM   18  C   LIG     1      22.717  20.166  17.637  1.00  0.00     0.019 C 
HETATM   19  C   LIG     1      25.136  20.088  16.931  1.00  0.00     0.019 C 
HETATM   20  C   LIG     1      24.315  18.628  18.781  1.00  0.00     0.019 C 
ENDBRANCH   3  17
TORSDOF 4
ENDMDL
MODEL 16
REMARK VINA RESULT:      -4.0     15.588     17.007
REMARK  4 active torsions:
REMARK  status: ('A' for Active; 'I' for Inactive)
REMARK       I    between atoms: C_2  and  N_18 
REMARK    1  A    between atoms: C_2  and  O_3 
REMARK    2  A    between atoms: O_3  and  C_4 
REMARK    3  A    between atoms: C_6  and  C_7 
REMARK    4  A    between atoms: C_12  and  C_13 
ROOT
HETATM    1  C   LIG     1      25.378  23.205  19.101  1.00  0.00     0.082 A 
HETATM    2  C   LIG     1      26.424  24.080  18.773  1.00  0.00     0.045 A 
HETATM    3  C   LIG     1      27.350  24.507  19.749  1.00  0.00    -0.047 A 
HETATM    4  C   LIG     1      27.200  24.010  21.062  1.00  0.00     0.015 A 
HETATM    5  C   LIG     1      26.173  23.108  21.413  1.00  0.00    -0.047 A 
HETATM    6  C   LIG     1      25.270  22.713  20.403  1.00  0.00     0.045 A 
ENDROOT
BRANCH   1   7
HETATM    7  O   LIG     1      24.449  22.766  18.146  1.00  0.00    -0.262 OA
BRANCH   7   8
HETATM    8  C   LIG     1      24.014  21.444  17.988  1.00  0.00     0.365 C 
HETATM    9  O   LIG     1      22.823  21.120  18.256  1.00  0.00    -0.238 OA
HETATM   10  N   LIG     1      24.950  20.448  17.569  1.00  0.00    -0.341 N 
HETATM   11  C   LIG     1      24.568  19.051  17.401  1.00  0.00     0.151 C 
HETATM   12  H   LIG     1      25.937  20.732  17.375  1.00  0.00     0.164 HD
ENDBRANCH   7   8
ENDBRANCH   1   7
BRANCH   5  13
HETATM   13  C   LIG     1      26.075  22.594  22.866  1.00  0.00    -0.024 C 
HETATM   14  C   LIG     1      24.610  22.681  23.346  1.00  0.00     0.019 C 
HETATM   15  C   LIG     1      26.968  23.460  23.780  1.00  0.00     0.019 C 
HETATM   16  C   LIG     1      26.531  21.123  23.023  1.00  0.00     0.019 C 
ENDBRANCH   5  13
BRANCH   3  17
HETATM   17  C   LIG     1      28.508  25.479  19.432  1.00  0.00    -0.024 C 
HETATM   18  C   LIG     1      27.935  26.790  18.848  1.00  0.00     0.019 C 
HETATM   19  C   LIG     1      29.287  25.792  20.728  1.00  0.00     0.019 C 
HETATM   20  C   LIG     1      29.516  24.912  18.403  1.00  0.00     0.019 C 
ENDBRANCH   3  17
TORSDOF 4
ENDMDL
MODEL 17
REMARK VINA RESULT:      -4.0     15.253     17.314
REMARK  4 active torsions:
REMARK  status: ('A' for Active; 'I' for Inactive)
REMARK       I    between atoms: C_2  and  N_18 
REMARK    1  A    between atoms: C_2  and  O_3 
REMARK    2  A    between atoms: O_3  and  C_4 
REMARK    3  A    between atoms: C_6  and  C_7 
REMARK    4  A    between atoms: C_12  and  C_13 
ROOT
HETATM    1  C   LIG     1      24.857  22.877  20.111  1.00  0.00     0.082 A 
HETATM    2  C   LIG     1      24.881  21.658  19.416  1.00  0.00     0.045 A 
HETATM    3  C   LIG     1      25.846  21.408  18.417  1.00  0.00    -0.047 A 
HETATM    4  C   LIG     1      26.798  22.417  18.153  1.00  0.00     0.015 A 
HETATM    5  C   LIG     1      26.813  23.640  18.857  1.00  0.00    -0.047 A 
HETATM    6  C   LIG     1      25.826  23.845  19.843  1.00  0.00     0.045 A 
ENDROOT
BRANCH   1   7
HETATM    7  O   LIG     1      23.908  23.145  21.108  1.00  0.00    -0.262 OA
BRANCH   7   8
HETATM    8  C   LIG     1      23.726  22.391  22.276  1.00  0.00     0.365 C 
HETATM    9  O   LIG     1      22.736  21.618  22.396  1.00  0.00    -0.238 OA
HETATM   10  N   LIG     1      24.649  22.548  23.357  1.00  0.00    -0.341 N 
HETATM   11  C   LIG     1      24.509  21.808  24.605  1.00  0.00     0.151 C 
HETATM   12  H   LIG     1      25.449  23.211  23.246  1.00  0.00     0.164 HD
ENDBRANCH   7   8
ENDBRANCH   1   7
BRANCH   5  13
HETATM   13  C   LIG     1      27.892  24.695  18.526  1.00  0.00    -0.024 C 
HETATM   14  C   LIG     1      29.197  24.352  19.276  1.00  0.00     0.019 C 
HETATM   15  C   LIG     1      27.398  26.091  18.965  1.00  0.00     0.019 C 
HETATM   16  C   LIG     1      28.225  24.771  17.016  1.00  0.00     0.019 C 
ENDBRANCH   5  13
BRANCH   3  17
HETATM   17  C   LIG     1      25.899  20.086  17.621  1.00  0.00    -0.024 C 
HETATM   18  C   LIG     1      26.506  18.975  18.508  1.00  0.00     0.019 C 
HETATM   19  C   LIG     1      24.471  19.681  17.198  1.00  0.00     0.019 C 
HETATM   20  C   LIG     1      26.760  20.180  16.337  1.00  0.00     0.019 C 
ENDBRANCH   3  17
TORSDOF 4
ENDMDL
MODEL 18
REMARK VINA RESULT:      -3.8     18.970     20.941
REMARK  4 active torsions:
REMARK  status: ('A' for Active; 'I' for Inactive)
REMARK       I    between atoms: C_2  and  N_18 
REMARK    1  A    between atoms: C_2  and  O_3 
REMARK    2  A    between atoms: O_3  and  C_4 
REMARK    3  A    between atoms: C_6  and  C_7 
REMARK    4  A    between atoms: C_12  and  C_13 
ROOT
HETATM    1  C   LIG     1      24.258  21.979  35.671  1.00  0.00     0.082 A 
HETATM    2  C   LIG     1      22.937  22.439  35.771  1.00  0.00     0.045 A 
HETATM    3  C   LIG     1      21.934  21.971  34.894  1.00  0.00    -0.047 A 
HETATM    4  C   LIG     1      22.301  21.012  33.926  1.00  0.00     0.015 A 
HETATM    5  C   LIG     1      23.617  20.513  33.821  1.00  0.00    -0.047 A 
HETATM    6  C   LIG     1      24.585  21.013  34.718  1.00  0.00     0.045 A 
ENDROOT
BRANCH   1   7
HETATM    7  O   LIG     1      25.269  22.429  36.533  1.00  0.00    -0.262 OA
BRANCH   7   8
HETATM    8  C   LIG     1      25.901  23.677  36.459  1.00  0.00     0.365 C 
HETATM    9  O   LIG     1      26.294  24.265  37.504  1.00  0.00    -0.238 OA
HETATM   10  N   LIG     1      26.049  24.307  35.183  1.00  0.00    -0.341 N 
HETATM   11  C   LIG     1      26.682  25.612  35.036  1.00  0.00     0.151 C 
HETATM   12  H   LIG     1      25.696  23.815  34.332  1.00  0.00     0.164 HD
ENDBRANCH   7   8
ENDBRANCH   1   7
BRANCH   5  13
HETATM   13  C   LIG     1      23.946  19.454  32.746  1.00  0.00    -0.024 C 
HETATM   14  C   LIG     1      22.725  19.261  31.821  1.00  0.00     0.019 C 
HETATM   15  C   LIG     1      24.290  18.114  33.431  1.00  0.00     0.019 C 
HETATM   16  C   LIG     1      25.150  19.846  31.855  1.00  0.00     0.019 C 
ENDBRANCH   5  13
BRANCH   3  17
HETATM   17  C   LIG     1      20.471  22.461  34.963  1.00  0.00    -0.024 C 
HETATM   18  C   LIG     1      19.558  21.295  35.408  1.00  0.00     0.019 C 
HETATM   19  C   LIG     1      20.361  23.615  35.983  1.00  0.00     0.019 C 
HETATM   20  C   LIG     1      19.937  22.980  33.607  1.00  0.00     0.019 C 
ENDBRANCH   3  17
TORSDOF 4
ENDMDL
MODEL 19
REMARK VINA RESULT:      -3.8     15.503     16.811
REMARK  4 active torsions:
REMARK  status: ('A' for Active; 'I' for Inactive)
REMARK       I    between atoms: C_2  and  N_18 
REMARK    1  A    between atoms: C_2  and  O_3 
REMARK    2  A    between atoms: O_3  and  C_4 
REMARK    3  A    between atoms: C_6  and  C_7 
REMARK    4  A    between atoms: C_12  and  C_13 
ROOT
HETATM    1  C   LIG     1      25.081  22.372  22.630  1.00  0.00     0.082 A 
HETATM    2  C   LIG     1      26.039  23.061  21.872  1.00  0.00     0.045 A 
HETATM    3  C   LIG     1      27.044  23.831  22.496  1.00  0.00    -0.047 A 
HETATM    4  C   LIG     1      27.066  23.870  23.907  1.00  0.00     0.015 A 
HETATM    5  C   LIG     1      26.130  23.164  24.693  1.00  0.00    -0.047 A 
HETATM    6  C   LIG     1      25.142  22.412  24.024  1.00  0.00     0.045 A 
ENDROOT
BRANCH   1   7
HETATM    7  O   LIG     1      24.075  21.600  22.031  1.00  0.00    -0.262 OA
BRANCH   7   8
HETATM    8  C   LIG     1      23.347  21.962  20.890  1.00  0.00     0.365 C 
HETATM    9  O   LIG     1      22.392  22.784  20.967  1.00  0.00    -0.238 OA
HETATM   10  N   LIG     1      23.665  21.347  19.638  1.00  0.00    -0.341 N 
HETATM   11  C   LIG     1      22.937  21.665  18.416  1.00  0.00     0.151 C 
HETATM   12  H   LIG     1      24.444  20.652  19.600  1.00  0.00     0.164 HD
ENDBRANCH   7   8
ENDBRANCH   1   7
BRANCH   5  13
HETATM   13  C   LIG     1      26.219  23.241  26.233  1.00  0.00    -0.024 C 
HETATM   14  C   LIG     1      24.929  22.661  26.854  1.00  0.00     0.019 C 
HETATM   15  C   LIG     1      26.381  24.714  26.667  1.00  0.00     0.019 C 
HETATM   16  C   LIG     1      27.415  22.447  26.814  1.00  0.00     0.019 C 
ENDBRANCH   5  13
BRANCH   3  17
HETATM   17  C   LIG     1      28.110  24.614  21.698  1.00  0.00    -0.024 C 
HETATM   18  C   LIG     1      27.442  25.312  20.492  1.00  0.00     0.019 C 
HETATM   19  C   LIG     1      28.759  25.677  22.610  1.00  0.00     0.019 C 
HETATM   20  C   LIG     1      29.243  23.714  21.147  1.00  0.00     0.019 C 
ENDBRANCH   3  17
TORSDOF 4
ENDMDL
