MODEL 1
REMARK VINA RESULT:      -4.3      0.000      0.000
REMARK  8 active torsions:
REMARK  status: ('A' for Active; 'I' for Inactive)
REMARK    1  A    between atoms: C_2  and  C_5 
REMARK    2  A    between atoms: C_5  and  N_20 
REMARK    3  A    between atoms: C_5  and  N_6 
REMARK    4  A    between atoms: N_9  and  C_10 
REMARK    5  A    between atoms: C_10  and  C_14 
REMARK    6  A    between atoms: C_10  and  N_11 
REMARK    7  A    between atoms: N_11  and  C_12 
REMARK    8  A    between atoms: N_20  and  C_21 
ROOT
HETATM    1  N   LIG     1      16.465  36.426  22.619  1.00  0.00     0.119 N 
HETATM    2  C   LIG     1      15.004  36.290  22.412  1.00  0.00     0.305 C 
HETATM    3  C   LIG     1      14.694  35.703  21.029  1.00  0.00     0.305 C 
HETATM    4  N   LIG     1      15.342  34.390  20.868  1.00  0.00     0.119 N 
HETATM    5  C   LIG     1      16.799  34.538  21.050  1.00  0.00     0.305 C 
HETATM    6  C   LIG     1      17.092  35.093  22.445  1.00  0.00     0.305 C 
ENDROOT
BRANCH   1   7
HETATM    7  C   LIG     1      16.802  36.982  23.968  1.00  0.00     0.378 C 
BRANCH   7   8
HETATM    8  C   LIG     1      17.354  38.451  23.948  1.00  0.00     0.236 C 
HETATM    9 CL   LIG     1      16.529  39.488  22.748  1.00  0.00    -0.079 Cl
HETATM   10 CL   LIG     1      19.104  38.487  23.567  1.00  0.00    -0.079 Cl
HETATM   11 CL   LIG     1      17.218  39.216  25.560  1.00  0.00    -0.079 Cl
ENDBRANCH   7   8
BRANCH   7  12
HETATM   12  N   LIG     1      17.759  36.098  24.657  1.00  0.00    -0.335 N 
HETATM   13  H   LIG     1      18.590  35.759  24.121  1.00  0.00     0.164 HD
BRANCH  12  14
HETATM   14  C   LIG     1      17.635  35.668  26.019  1.00  0.00     0.350 C 
HETATM   15  O   LIG     1      18.263  34.665  26.447  1.00  0.00    -0.284 OA
ENDBRANCH  12  14
ENDBRANCH   7  12
ENDBRANCH   1   7
BRANCH   4  16
HETATM   16  C   LIG     1      14.928  33.725  19.595  1.00  0.00     0.378 C 
BRANCH  16  17
HETATM   17  C   LIG     1      14.890  32.190  19.764  1.00  0.00     0.236 C 
HETATM   18 CL   LIG     1      14.066  31.440  18.369  1.00  0.00    -0.079 Cl
HETATM   19 CL   LIG     1      13.967  31.761  21.231  1.00  0.00    -0.079 Cl
HETATM   20 CL   LIG     1      16.516  31.467  19.902  1.00  0.00    -0.079 Cl
ENDBRANCH  16  17
BRANCH  16  21
HETATM   21  N   LIG     1      15.777  34.110  18.457  1.00  0.00    -0.335 N 
HETATM   22  H   LIG     1      16.811  34.195  18.580  1.00  0.00     0.164 HD
BRANCH  21  23
HETATM   23  C   LIG     1      15.223  34.370  17.164  1.00  0.00     0.350 C 
HETATM   24  O   LIG     1      15.980  34.653  16.199  1.00  0.00    -0.284 OA
ENDBRANCH  21  23
ENDBRANCH  16  21
ENDBRANCH   4  16
TORSDOF 8
ENDMDL
MODEL 2
REMARK VINA RESULT:      -4.2      7.371     10.032
REMARK  8 active torsions:
REMARK  status: ('A' for Active; 'I' for Inactive)
REMARK    1  A    between atoms: C_2  and  C_5 
REMARK    2  A    between atoms: C_5  and  N_20 
REMARK    3  A    between atoms: C_5  and  N_6 
REMARK    4  A    between atoms: N_9  and  C_10 
REMARK    5  A    between atoms: C_10  and  C_14 
REMARK    6  A    between atoms: C_10  and  N_11 
REMARK    7  A    between atoms: N_11  and  C_12 
REMARK    8  A    between atoms: N_20  and  C_21 
ROOT
HETATM    1  N   LIG     1      16.412  33.021  14.601  1.00  0.00     0.119 N 
HETATM    2  C   LIG     1      16.369  33.058  13.120  1.00  0.00     0.305 C 
HETATM    3  C   LIG     1      17.481  33.951  12.557  1.00  0.00     0.305 C 
HETATM    4  N   LIG     1      18.802  33.475  13.002  1.00  0.00     0.119 N 
HETATM    5  C   LIG     1      18.847  33.465  14.477  1.00  0.00     0.305 C 
HETATM    6  C   LIG     1      17.754  32.544  15.021  1.00  0.00     0.305 C 
ENDROOT
BRANCH   1   7
HETATM    7  C   LIG     1      15.349  32.142  15.183  1.00  0.00     0.378 C 
BRANCH   7   8
HETATM    8  C   LIG     1      14.831  32.593  16.594  1.00  0.00     0.236 C 
HETATM    9 CL   LIG     1      15.705  31.805  17.939  1.00  0.00    -0.079 Cl
HETATM   10 CL   LIG     1      13.091  32.222  16.801  1.00  0.00    -0.079 Cl
HETATM   11 CL   LIG     1      14.950  34.367  16.791  1.00  0.00    -0.079 Cl
ENDBRANCH   7   8
BRANCH   7  12
HETATM   12  N   LIG     1      15.819  30.747  15.246  1.00  0.00    -0.335 N 
HETATM   13  H   LIG     1      16.608  30.523  15.893  1.00  0.00     0.164 HD
BRANCH  12  14
HETATM   14  C   LIG     1      15.268  29.667  14.480  1.00  0.00     0.350 C 
HETATM   15  O   LIG     1      15.634  29.454  13.295  1.00  0.00    -0.284 OA
ENDBRANCH  12  14
ENDBRANCH   7  12
ENDBRANCH   1   7
BRANCH   4  16
HETATM   16  C   LIG     1      19.909  34.229  12.341  1.00  0.00     0.378 C 
BRANCH  16  17
HETATM   17  C   LIG     1      19.942  33.941  10.823  1.00  0.00     0.236 C 
HETATM   18 CL   LIG     1      21.491  34.490  10.127  1.00  0.00    -0.079 Cl
HETATM   19 CL   LIG     1      18.633  34.837  10.005  1.00  0.00    -0.079 Cl
HETATM   20 CL   LIG     1      19.748  32.208  10.443  1.00  0.00    -0.079 Cl
ENDBRANCH  16  17
BRANCH  16  21
HETATM   21  N   LIG     1      21.218  33.964  12.957  1.00  0.00    -0.335 N 
HETATM   22  H   LIG     1      21.453  33.004  13.297  1.00  0.00     0.164 HD
BRANCH  21  23
HETATM   23  C   LIG     1      22.201  34.993  13.102  1.00  0.00     0.350 C 
HETATM   24  O   LIG     1      23.296  34.744  13.670  1.00  0.00    -0.284 OA
ENDBRANCH  21  23
ENDBRANCH  16  21
ENDBRANCH   4  16
TORSDOF 8
ENDMDL
MODEL 3
REMARK VINA RESULT:      -4.2      5.616      9.655
REMARK  8 active torsions:
REMARK  status: ('A' for Active; 'I' for Inactive)
REMARK    1  A    between atoms: C_2  and  C_5 
REMARK    2  A    between atoms: C_5  and  N_20 
REMARK    3  A    between atoms: C_5  and  N_6 
REMARK    4  A    between atoms: N_9  and  C_10 
REMARK    5  A    between atoms: C_10  and  C_14 
REMARK    6  A    between atoms: C_10  and  N_11 
REMARK    7  A    between atoms: N_11  and  C_12 
REMARK    8  A    between atoms: N_20  and  C_21 
ROOT
HETATM    1  N   LIG     1      17.676  33.472  13.299  1.00  0.00     0.119 N 
HETATM    2  C   LIG     1      16.622  32.433  13.343  1.00  0.00     0.305 C 
HETATM    3  C   LIG     1      16.338  31.994  14.785  1.00  0.00     0.305 C 
HETATM    4  N   LIG     1      15.930  33.148  15.605  1.00  0.00     0.119 N 
HETATM    5  C   LIG     1      16.996  34.168  15.577  1.00  0.00     0.305 C 
HETATM    6  C   LIG     1      17.244  34.618  14.136  1.00  0.00     0.305 C 
ENDROOT
BRANCH   1   7
HETATM    7  C   LIG     1      17.966  33.935  11.904  1.00  0.00     0.378 C 
BRANCH   7   8
HETATM    8  C   LIG     1      19.486  33.921  11.515  1.00  0.00     0.236 C 
HETATM    9 CL   LIG     1      20.562  34.257  12.903  1.00  0.00    -0.079 Cl
HETATM   10 CL   LIG     1      19.850  35.139  10.253  1.00  0.00    -0.079 Cl
HETATM   11 CL   LIG     1      19.955  32.353  10.791  1.00  0.00    -0.079 Cl
ENDBRANCH   7   8
BRANCH   7  12
HETATM   12  N   LIG     1      17.409  35.282  11.689  1.00  0.00    -0.335 N 
HETATM   13  H   LIG     1      17.739  36.056  12.308  1.00  0.00     0.164 HD
BRANCH  12  14
HETATM   14  C   LIG     1      16.440  35.611  10.684  1.00  0.00     0.350 C 
HETATM   15  O   LIG     1      15.240  35.844  10.985  1.00  0.00    -0.284 OA
ENDBRANCH  12  14
ENDBRANCH   7  12
ENDBRANCH   1   7
BRANCH   4  16
HETATM   16  C   LIG     1      15.496  32.725  16.970  1.00  0.00     0.378 C 
BRANCH  16  17
HETATM   17  C   LIG     1      14.222  31.853  16.896  1.00  0.00     0.236 C 
HETATM   18 CL   LIG     1      12.784  32.886  16.666  1.00  0.00    -0.079 Cl
HETATM   19 CL   LIG     1      14.006  30.959  18.426  1.00  0.00    -0.079 Cl
HETATM   20 CL   LIG     1      14.271  30.668  15.563  1.00  0.00    -0.079 Cl
ENDBRANCH  16  17
BRANCH  16  21
HETATM   21  N   LIG     1      15.302  33.866  17.879  1.00  0.00    -0.335 N 
HETATM   22  H   LIG     1      15.013  34.796  17.499  1.00  0.00     0.164 HD
BRANCH  21  23
HETATM   23  C   LIG     1      15.494  33.740  19.291  1.00  0.00     0.350 C 
HETATM   24  O   LIG     1      16.117  34.631  19.925  1.00  0.00    -0.284 OA
ENDBRANCH  21  23
ENDBRANCH  16  21
ENDBRANCH   4  16
TORSDOF 8
ENDMDL
MODEL 4
REMARK VINA RESULT:      -4.0      0.398      1.571
REMARK  8 active torsions:
REMARK  status: ('A' for Active; 'I' for Inactive)
REMARK    1  A    between atoms: C_2  and  C_5 
REMARK    2  A    between atoms: C_5  and  N_20 
REMARK    3  A    between atoms: C_5  and  N_6 
REMARK    4  A    between atoms: N_9  and  C_10 
REMARK    5  A    between atoms: C_10  and  C_14 
REMARK    6  A    between atoms: C_10  and  N_11 
REMARK    7  A    between atoms: N_11  and  C_12 
REMARK    8  A    between atoms: N_20  and  C_21 
ROOT
HETATM    1  N   LIG     1      16.447  36.438  22.663  1.00  0.00     0.119 N 
HETATM    2  C   LIG     1      14.988  36.336  22.430  1.00  0.00     0.305 C 
HETATM    3  C   LIG     1      14.688  35.759  21.041  1.00  0.00     0.305 C 
HETATM    4  N   LIG     1      15.308  34.431  20.889  1.00  0.00     0.119 N 
HETATM    5  C   LIG     1      16.765  34.545  21.096  1.00  0.00     0.305 C 
HETATM    6  C   LIG     1      17.046  35.091  22.498  1.00  0.00     0.305 C 
ENDROOT
BRANCH   1   7
HETATM    7  C   LIG     1      16.774  36.984  24.019  1.00  0.00     0.378 C 
BRANCH   7   8
HETATM    8  C   LIG     1      17.310  38.459  24.016  1.00  0.00     0.236 C 
HETATM    9 CL   LIG     1      17.201  39.241  25.620  1.00  0.00    -0.079 Cl
HETATM   10 CL   LIG     1      16.399  39.483  22.863  1.00  0.00    -0.079 Cl
HETATM   11 CL   LIG     1      19.007  38.530  23.455  1.00  0.00    -0.079 Cl
ENDBRANCH   7   8
BRANCH   7  12
HETATM   12  N   LIG     1      17.738  36.103  24.702  1.00  0.00    -0.335 N 
HETATM   13  H   LIG     1      18.577  35.784  24.168  1.00  0.00     0.164 HD
BRANCH  12  14
HETATM   14  C   LIG     1      17.608  35.651  26.057  1.00  0.00     0.350 C 
HETATM   15  O   LIG     1      18.174  36.256  27.004  1.00  0.00    -0.284 OA
ENDBRANCH  12  14
ENDBRANCH   7  12
ENDBRANCH   1   7
BRANCH   4  16
HETATM   16  C   LIG     1      14.902  33.779  19.607  1.00  0.00     0.378 C 
BRANCH  16  17
HETATM   17  C   LIG     1      14.850  32.243  19.765  1.00  0.00     0.236 C 
HETATM   18 CL   LIG     1      16.504  31.584  19.896  1.00  0.00    -0.079 Cl
HETATM   19 CL   LIG     1      14.087  31.508  18.329  1.00  0.00    -0.079 Cl
HETATM   20 CL   LIG     1      13.932  31.725  21.206  1.00  0.00    -0.079 Cl
ENDBRANCH  16  17
BRANCH  16  21
HETATM   21  N   LIG     1      15.764  34.165  18.480  1.00  0.00    -0.335 N 
HETATM   22  H   LIG     1      16.794  34.271  18.620  1.00  0.00     0.164 HD
BRANCH  21  23
HETATM   23  C   LIG     1      15.230  34.398  17.174  1.00  0.00     0.350 C 
HETATM   24  O   LIG     1      15.834  33.961  16.159  1.00  0.00    -0.284 OA
ENDBRANCH  21  23
ENDBRANCH  16  21
ENDBRANCH   4  16
TORSDOF 8
ENDMDL
MODEL 5
REMARK VINA RESULT:      -3.9     15.066     16.792
REMARK  8 active torsions:
REMARK  status: ('A' for Active; 'I' for Inactive)
REMARK    1  A    between atoms: C_2  and  C_5 
REMARK    2  A    between atoms: C_5  and  N_20 
REMARK    3  A    between atoms: C_5  and  N_6 
REMARK    4  A    between atoms: N_9  and  C_10 
REMARK    5  A    between atoms: C_10  and  C_14 
REMARK    6  A    between atoms: C_10  and  N_11 
REMARK    7  A    between atoms: N_11  and  C_12 
REMARK    8  A    between atoms: N_20  and  C_21 
ROOT
HETATM    1  N   LIG     1      26.934  23.495  18.267  1.00  0.00     0.119 N 
HETATM    2  C   LIG     1      25.470  23.694  18.159  1.00  0.00     0.305 C 
HETATM    3  C   LIG     1      24.705  22.496  18.734  1.00  0.00     0.305 C 
HETATM    4  N   LIG     1      25.072  22.278  20.144  1.00  0.00     0.119 N 
HETATM    5  C   LIG     1      26.528  22.055  20.241  1.00  0.00     0.305 C 
HETATM    6  C   LIG     1      27.275  23.272  19.694  1.00  0.00     0.305 C 
ENDROOT
BRANCH   1   7
HETATM    7  C   LIG     1      27.711  24.656  17.728  1.00  0.00     0.378 C 
BRANCH   7   8
HETATM    8  C   LIG     1      28.940  24.260  16.836  1.00  0.00     0.236 C 
HETATM    9 CL   LIG     1      28.820  22.601  16.183  1.00  0.00    -0.079 Cl
HETATM   10 CL   LIG     1      30.474  24.359  17.756  1.00  0.00    -0.079 Cl
HETATM   11 CL   LIG     1      29.146  25.402  15.474  1.00  0.00    -0.079 Cl
ENDBRANCH   7   8
BRANCH   7  12
HETATM   12  N   LIG     1      28.155  25.527  18.831  1.00  0.00    -0.335 N 
HETATM   13  H   LIG     1      28.640  25.084  19.643  1.00  0.00     0.164 HD
BRANCH  12  14
HETATM   14  C   LIG     1      27.970  26.949  18.870  1.00  0.00     0.350 C 
HETATM   15  O   LIG     1      28.693  27.720  18.187  1.00  0.00    -0.284 OA
ENDBRANCH  12  14
ENDBRANCH   7  12
ENDBRANCH   1   7
BRANCH   4  16
HETATM   16  C   LIG     1      24.227  21.219  20.774  1.00  0.00     0.378 C 
BRANCH  16  17
HETATM   17  C   LIG     1      23.396  21.800  21.940  1.00  0.00     0.236 C 
HETATM   18 CL   LIG     1      22.109  22.862  21.306  1.00  0.00    -0.079 Cl
HETATM   19 CL   LIG     1      24.440  22.788  22.999  1.00  0.00    -0.079 Cl
HETATM   20 CL   LIG     1      22.629  20.537  22.941  1.00  0.00    -0.079 Cl
ENDBRANCH  16  17
BRANCH  16  21
HETATM   21  N   LIG     1      25.015  20.057  21.215  1.00  0.00    -0.335 N 
HETATM   22  H   LIG     1      25.685  20.150  22.012  1.00  0.00     0.164 HD
BRANCH  21  23
HETATM   23  C   LIG     1      24.887  18.781  20.581  1.00  0.00     0.350 C 
HETATM   24  O   LIG     1      24.500  18.706  19.386  1.00  0.00    -0.284 OA
ENDBRANCH  21  23
ENDBRANCH  16  21
ENDBRANCH   4  16
TORSDOF 8
ENDMDL
MODEL 6
REMARK VINA RESULT:      -3.9     15.124     16.841
REMARK  8 active torsions:
REMARK  status: ('A' for Active; 'I' for Inactive)
REMARK    1  A    between atoms: C_2  and  C_5 
REMARK    2  A    between atoms: C_5  and  N_20 
REMARK    3  A    between atoms: C_5  and  N_6 
REMARK    4  A    between atoms: N_9  and  C_10 
REMARK    5  A    between atoms: C_10  and  C_14 
REMARK    6  A    between atoms: C_10  and  N_11 
REMARK    7  A    between atoms: N_11  and  C_12 
REMARK    8  A    between atoms: N_20  and  C_21 
ROOT
HETATM    1  N   LIG     1      25.152  22.737  20.136  1.00  0.00     0.119 N 
HETATM    2  C   LIG     1      24.978  22.848  18.669  1.00  0.00     0.305 C 
HETATM    3  C   LIG     1      25.719  24.071  18.115  1.00  0.00     0.305 C 
HETATM    4  N   LIG     1      27.154  23.996  18.439  1.00  0.00     0.119 N 
HETATM    5  C   LIG     1      27.320  23.912  19.903  1.00  0.00     0.305 C 
HETATM    6  C   LIG     1      26.604  22.669  20.434  1.00  0.00     0.305 C 
ENDROOT
BRANCH   1   7
HETATM    7  C   LIG     1      24.454  21.541  20.707  1.00  0.00     0.378 C 
BRANCH   7   8
HETATM    8  C   LIG     1      23.440  21.867  21.860  1.00  0.00     0.236 C 
HETATM    9 CL   LIG     1      22.141  22.983  21.348  1.00  0.00    -0.079 Cl
HETATM   10 CL   LIG     1      24.264  22.618  23.262  1.00  0.00    -0.079 Cl
HETATM   11 CL   LIG     1      22.695  20.376  22.509  1.00  0.00    -0.079 Cl
ENDBRANCH   7   8
BRANCH   7  12
HETATM   12  N   LIG     1      25.440  20.551  21.174  1.00  0.00    -0.335 N 
HETATM   13  H   LIG     1      26.067  20.817  21.966  1.00  0.00     0.164 HD
BRANCH  12  14
HETATM   14  C   LIG     1      25.602  19.239  20.619  1.00  0.00     0.350 C 
HETATM   15  O   LIG     1      25.048  18.915  19.536  1.00  0.00    -0.284 OA
ENDBRANCH  12  14
ENDBRANCH   7  12
ENDBRANCH   1   7
BRANCH   4  16
HETATM   16  C   LIG     1      27.924  25.092  17.778  1.00  0.00     0.378 C 
BRANCH  16  17
HETATM   17  C   LIG     1      29.056  24.515  16.898  1.00  0.00     0.236 C 
HETATM   18 CL   LIG     1      30.604  24.553  17.786  1.00  0.00    -0.079 Cl
HETATM   19 CL   LIG     1      29.251  25.508  15.428  1.00  0.00    -0.079 Cl
HETATM   20 CL   LIG     1      28.749  22.831  16.392  1.00  0.00    -0.079 Cl
ENDBRANCH  16  17
BRANCH  16  21
HETATM   21  N   LIG     1      28.452  26.071  18.741  1.00  0.00    -0.335 N 
HETATM   22  H   LIG     1      28.803  25.753  19.672  1.00  0.00     0.164 HD
BRANCH  21  23
HETATM   23  C   LIG     1      28.507  27.467  18.435  1.00  0.00     0.350 C 
HETATM   24  O   LIG     1      29.612  28.015  18.183  1.00  0.00    -0.284 OA
ENDBRANCH  21  23
ENDBRANCH  16  21
ENDBRANCH   4  16
TORSDOF 8
ENDMDL
MODEL 7
REMARK VINA RESULT:      -3.8     15.023     16.572
REMARK  8 active torsions:
REMARK  status: ('A' for Active; 'I' for Inactive)
REMARK    1  A    between atoms: C_2  and  C_5 
REMARK    2  A    between atoms: C_5  and  N_20 
REMARK    3  A    between atoms: C_5  and  N_6 
REMARK    4  A    between atoms: N_9  and  C_10 
REMARK    5  A    between atoms: C_10  and  C_14 
REMARK    6  A    between atoms: C_10  and  N_11 
REMARK    7  A    between atoms: N_11  and  C_12 
REMARK    8  A    between atoms: N_20  and  C_21 
ROOT
HETATM    1  N   LIG     1      25.566  22.299  20.784  1.00  0.00     0.119 N 
HETATM    2  C   LIG     1      27.003  22.052  21.045  1.00  0.00     0.305 C 
HETATM    3  C   LIG     1      27.871  22.570  19.892  1.00  0.00     0.305 C 
HETATM    4  N   LIG     1      27.647  24.011  19.684  1.00  0.00     0.119 N 
HETATM    5  C   LIG     1      26.219  24.247  19.400  1.00  0.00     0.305 C 
HETATM    6  C   LIG     1      25.370  23.755  20.573  1.00  0.00     0.305 C 
ENDROOT
BRANCH   1   7
HETATM    7  C   LIG     1      24.690  21.819  21.900  1.00  0.00     0.378 C 
BRANCH   7   8
HETATM    8  C   LIG     1      23.233  21.431  21.465  1.00  0.00     0.236 C 
HETATM    9 CL   LIG     1      22.125  22.832  21.415  1.00  0.00    -0.079 Cl
HETATM   10 CL   LIG     1      22.517  20.226  22.580  1.00  0.00    -0.079 Cl
HETATM   11 CL   LIG     1      23.227  20.635  19.862  1.00  0.00    -0.079 Cl
ENDBRANCH   7   8
BRANCH   7  12
HETATM   12  N   LIG     1      24.638  22.826  22.975  1.00  0.00    -0.335 N 
HETATM   13  H   LIG     1      24.228  23.761  22.754  1.00  0.00     0.164 HD
BRANCH  12  14
HETATM   14  C   LIG     1      25.110  22.614  24.312  1.00  0.00     0.350 C 
HETATM   15  O   LIG     1      24.387  22.058  25.179  1.00  0.00    -0.284 OA
ENDBRANCH  12  14
ENDBRANCH   7  12
ENDBRANCH   1   7
BRANCH   4  16
HETATM   16  C   LIG     1      28.594  24.574  18.675  1.00  0.00     0.378 C 
BRANCH  16  17
HETATM   17  C   LIG     1      29.076  25.981  19.098  1.00  0.00     0.236 C 
HETATM   18 CL   LIG     1      30.683  26.315  18.397  1.00  0.00    -0.079 Cl
HETATM   19 CL   LIG     1      29.232  26.063  20.874  1.00  0.00    -0.079 Cl
HETATM   20 CL   LIG     1      27.965  27.278  18.579  1.00  0.00    -0.079 Cl
ENDBRANCH  16  17
BRANCH  16  21
HETATM   21  N   LIG     1      28.025  24.596  17.319  1.00  0.00    -0.335 N 
HETATM   22  H   LIG     1      27.151  25.136  17.126  1.00  0.00     0.164 HD
BRANCH  21  23
HETATM   23  C   LIG     1      28.644  23.897  16.235  1.00  0.00     0.350 C 
HETATM   24  O   LIG     1      29.535  24.461  15.548  1.00  0.00    -0.284 OA
ENDBRANCH  21  23
ENDBRANCH  16  21
ENDBRANCH   4  16
TORSDOF 8
ENDMDL
MODEL 8
REMARK VINA RESULT:      -3.8     14.974     16.553
REMARK  8 active torsions:
REMARK  status: ('A' for Active; 'I' for Inactive)
REMARK    1  A    between atoms: C_2  and  C_5 
REMARK    2  A    between atoms: C_5  and  N_20 
REMARK    3  A    between atoms: C_5  and  N_6 
REMARK    4  A    between atoms: N_9  and  C_10 
REMARK    5  A    between atoms: C_10  and  C_14 
REMARK    6  A    between atoms: C_10  and  N_11 
REMARK    7  A    between atoms: N_11  and  C_12 
REMARK    8  A    between atoms: N_20  and  C_21 
ROOT
HETATM    1  N   LIG     1      28.115  24.426  19.152  1.00  0.00     0.119 N 
HETATM    2  C   LIG     1      28.210  22.952  19.262  1.00  0.00     0.305 C 
HETATM    3  C   LIG     1      27.248  22.414  20.327  1.00  0.00     0.305 C 
HETATM    4  N   LIG     1      25.861  22.798  20.012  1.00  0.00     0.119 N 
HETATM    5  C   LIG     1      25.768  24.269  19.930  1.00  0.00     0.305 C 
HETATM    6  C   LIG     1      26.710  24.786  18.840  1.00  0.00     0.305 C 
ENDROOT
BRANCH   1   7
HETATM    7  C   LIG     1      29.032  24.983  18.107  1.00  0.00     0.378 C 
BRANCH   7   8
HETATM    8  C   LIG     1      29.577  26.421  18.417  1.00  0.00     0.236 C 
HETATM    9 CL   LIG     1      30.425  26.520  19.988  1.00  0.00    -0.079 Cl
HETATM   10 CL   LIG     1      28.254  27.629  18.450  1.00  0.00    -0.079 Cl
HETATM   11 CL   LIG     1      30.684  26.986  17.130  1.00  0.00    -0.079 Cl
ENDBRANCH   7   8
BRANCH   7  12
HETATM   12  N   LIG     1      28.368  24.974  16.791  1.00  0.00    -0.335 N 
HETATM   13  H   LIG     1      27.525  25.576  16.661  1.00  0.00     0.164 HD
BRANCH  12  14
HETATM   14  C   LIG     1      28.800  24.194  15.667  1.00  0.00     0.350 C 
HETATM   15  O   LIG     1      29.774  24.556  14.957  1.00  0.00    -0.284 OA
ENDBRANCH  12  14
ENDBRANCH   7  12
ENDBRANCH   1   7
BRANCH   4  16
HETATM   16  C   LIG     1      24.887  22.155  20.945  1.00  0.00     0.378 C 
BRANCH  16  17
HETATM   17  C   LIG     1      23.609  21.722  20.192  1.00  0.00     0.236 C 
HETATM   18 CL   LIG     1      23.784  22.051  18.446  1.00  0.00    -0.079 Cl
HETATM   19 CL   LIG     1      22.208  22.658  20.781  1.00  0.00    -0.079 Cl
HETATM   20 CL   LIG     1      23.240  19.987  20.394  1.00  0.00    -0.079 Cl
ENDBRANCH  16  17
BRANCH  16  21
HETATM   21  N   LIG     1      24.558  23.011  22.094  1.00  0.00    -0.335 N 
HETATM   22  H   LIG     1      24.090  23.934  21.944  1.00  0.00     0.164 HD
BRANCH  21  23
HETATM   23  C   LIG     1      24.857  22.613  23.435  1.00  0.00     0.350 C 
HETATM   24  O   LIG     1      25.996  22.838  23.922  1.00  0.00    -0.284 OA
ENDBRANCH  21  23
ENDBRANCH  16  21
ENDBRANCH   4  16
TORSDOF 8
ENDMDL
MODEL 9
REMARK VINA RESULT:      -3.8     17.135     18.116
REMARK  8 active torsions:
REMARK  status: ('A' for Active; 'I' for Inactive)
REMARK    1  A    between atoms: C_2  and  C_5 
REMARK    2  A    between atoms: C_5  and  N_20 
REMARK    3  A    between atoms: C_5  and  N_6 
REMARK    4  A    between atoms: N_9  and  C_10 
REMARK    5  A    between atoms: C_10  and  C_14 
REMARK    6  A    between atoms: C_10  and  N_11 
REMARK    7  A    between atoms: N_11  and  C_12 
REMARK    8  A    between atoms: N_20  and  C_21 
ROOT
HETATM    1  N   LIG     1      27.400  28.618  33.735  1.00  0.00     0.119 N 
HETATM    2  C   LIG     1      26.343  27.718  33.217  1.00  0.00     0.305 C 
HETATM    3  C   LIG     1      26.720  27.158  31.840  1.00  0.00     0.305 C 
HETATM    4  N   LIG     1      27.999  26.430  31.911  1.00  0.00     0.119 N 
HETATM    5  C   LIG     1      29.052  27.339  32.403  1.00  0.00     0.305 C 
HETATM    6  C   LIG     1      28.676  27.863  33.791  1.00  0.00     0.305 C 
ENDROOT
BRANCH   1   7
HETATM    7  C   LIG     1      27.069  29.169  35.088  1.00  0.00     0.378 C 
BRANCH   7   8
HETATM    8  C   LIG     1      27.253  30.722  35.221  1.00  0.00     0.236 C 
HETATM    9 CL   LIG     1      27.831  31.486  33.712  1.00  0.00    -0.079 Cl
HETATM   10 CL   LIG     1      28.429  31.133  36.509  1.00  0.00    -0.079 Cl
HETATM   11 CL   LIG     1      25.729  31.515  35.720  1.00  0.00    -0.079 Cl
ENDBRANCH   7   8
BRANCH   7  12
HETATM   12  N   LIG     1      27.860  28.482  36.124  1.00  0.00    -0.335 N 
HETATM   13  H   LIG     1      28.896  28.434  36.001  1.00  0.00     0.164 HD
BRANCH  12  14
HETATM   14  C   LIG     1      27.307  27.872  37.299  1.00  0.00     0.350 C 
HETATM   15  O   LIG     1      26.552  28.515  38.074  1.00  0.00    -0.284 OA
ENDBRANCH  12  14
ENDBRANCH   7  12
ENDBRANCH   1   7
BRANCH   4  16
HETATM   16  C   LIG     1      28.311  25.741  30.623  1.00  0.00     0.378 C 
BRANCH  16  17
HETATM   17  C   LIG     1      28.571  24.235  30.854  1.00  0.00     0.236 C 
HETATM   18 CL   LIG     1      28.243  23.811  32.557  1.00  0.00    -0.079 Cl
HETATM   19 CL   LIG     1      30.283  23.854  30.521  1.00  0.00    -0.079 Cl
HETATM   20 CL   LIG     1      27.560  23.191  29.818  1.00  0.00    -0.079 Cl
ENDBRANCH  16  17
BRANCH  16  21
HETATM   21  N   LIG     1      29.433  26.366  29.906  1.00  0.00    -0.335 N 
HETATM   22  H   LIG     1      30.411  26.244  30.254  1.00  0.00     0.164 HD
BRANCH  21  23
HETATM   23  C   LIG     1      29.226  27.145  28.724  1.00  0.00     0.350 C 
HETATM   24  O   LIG     1      28.831  28.337  28.815  1.00  0.00    -0.284 OA
ENDBRANCH  21  23
ENDBRANCH  16  21
ENDBRANCH   4  16
TORSDOF 8
ENDMDL
MODEL 10
REMARK VINA RESULT:      -3.7     15.224     16.294
REMARK  8 active torsions:
REMARK  status: ('A' for Active; 'I' for Inactive)
REMARK    1  A    between atoms: C_2  and  C_5 
REMARK    2  A    between atoms: C_5  and  N_20 
REMARK    3  A    between atoms: C_5  and  N_6 
REMARK    4  A    between atoms: N_9  and  C_10 
REMARK    5  A    between atoms: C_10  and  C_14 
REMARK    6  A    between atoms: C_10  and  N_11 
REMARK    7  A    between atoms: N_11  and  C_12 
REMARK    8  A    between atoms: N_20  and  C_21 
ROOT
HETATM    1  N   LIG     1      25.071  21.670  23.926  1.00  0.00     0.119 N 
HETATM    2  C   LIG     1      26.446  21.552  23.389  1.00  0.00     0.305 C 
HETATM    3  C   LIG     1      26.433  21.401  21.863  1.00  0.00     0.305 C 
HETATM    4  N   LIG     1      25.754  22.548  21.236  1.00  0.00     0.119 N 
HETATM    5  C   LIG     1      24.376  22.644  21.756  1.00  0.00     0.305 C 
HETATM    6  C   LIG     1      24.408  22.827  23.275  1.00  0.00     0.305 C 
ENDROOT
BRANCH   1   7
HETATM    7  C   LIG     1      25.050  21.836  25.414  1.00  0.00     0.378 C 
BRANCH   7   8
HETATM    8  C   LIG     1      23.993  20.941  26.154  1.00  0.00     0.236 C 
HETATM    9 CL   LIG     1      22.930  20.047  25.030  1.00  0.00    -0.079 Cl
HETATM   10 CL   LIG     1      22.938  21.922  27.218  1.00  0.00    -0.079 Cl
HETATM   11 CL   LIG     1      24.789  19.770  27.248  1.00  0.00    -0.079 Cl
ENDBRANCH   7   8
BRANCH   7  12
HETATM   12  N   LIG     1      24.838  23.251  25.765  1.00  0.00    -0.335 N 
HETATM   13  H   LIG     1      23.878  23.648  25.654  1.00  0.00     0.164 HD
BRANCH  12  14
HETATM   14  C   LIG     1      25.862  24.130  26.253  1.00  0.00     0.350 C 
HETATM   15  O   LIG     1      26.660  24.703  25.467  1.00  0.00    -0.284 OA
ENDBRANCH  12  14
ENDBRANCH   7  12
ENDBRANCH   1   7
BRANCH   4  16
HETATM   16  C   LIG     1      25.865  22.506  19.747  1.00  0.00     0.378 C 
BRANCH  16  17
HETATM   17  C   LIG     1      26.799  23.626  19.234  1.00  0.00     0.236 C 
HETATM   18 CL   LIG     1      27.256  24.707  20.579  1.00  0.00    -0.079 Cl
HETATM   19 CL   LIG     1      25.951  24.612  18.011  1.00  0.00    -0.079 Cl
HETATM   20 CL   LIG     1      28.296  22.995  18.496  1.00  0.00    -0.079 Cl
ENDBRANCH  16  17
BRANCH  16  21
HETATM   21  N   LIG     1      24.555  22.565  19.082  1.00  0.00    -0.335 N 
HETATM   22  H   LIG     1      23.963  23.422  19.164  1.00  0.00     0.164 HD
BRANCH  21  23
HETATM   23  C   LIG     1      24.058  21.470  18.306  1.00  0.00     0.350 C 
HETATM   24  O   LIG     1      22.852  21.125  18.402  1.00  0.00    -0.284 OA
ENDBRANCH  21  23
ENDBRANCH  16  21
ENDBRANCH   4  16
TORSDOF 8
ENDMDL
MODEL 11
REMARK VINA RESULT:      -3.6     15.200     16.360
REMARK  8 active torsions:
REMARK  status: ('A' for Active; 'I' for Inactive)
REMARK    1  A    between atoms: C_2  and  C_5 
REMARK    2  A    between atoms: C_5  and  N_20 
REMARK    3  A    between atoms: C_5  and  N_6 
REMARK    4  A    between atoms: N_9  and  C_10 
REMARK    5  A    between atoms: C_10  and  C_14 
REMARK    6  A    between atoms: C_10  and  N_11 
REMARK    7  A    between atoms: N_11  and  C_12 
REMARK    8  A    between atoms: N_20  and  C_21 
ROOT
HETATM    1  N   LIG     1      26.515  22.464  25.300  1.00  0.00     0.119 N 
HETATM    2  C   LIG     1      27.139  21.985  24.045  1.00  0.00     0.305 C 
HETATM    3  C   LIG     1      26.159  21.132  23.230  1.00  0.00     0.305 C 
HETATM    4  N   LIG     1      24.942  21.901  22.916  1.00  0.00     0.119 N 
HETATM    5  C   LIG     1      24.312  22.353  24.172  1.00  0.00     0.305 C 
HETATM    6  C   LIG     1      25.291  23.229  24.955  1.00  0.00     0.305 C 
ENDROOT
BRANCH   1   7
HETATM    7  C   LIG     1      27.442  23.315  26.112  1.00  0.00     0.378 C 
BRANCH   7   8
HETATM    8  C   LIG     1      27.236  23.207  27.664  1.00  0.00     0.236 C 
HETATM    9 CL   LIG     1      26.260  21.786  28.138  1.00  0.00    -0.079 Cl
HETATM   10 CL   LIG     1      26.414  24.658  28.317  1.00  0.00    -0.079 Cl
HETATM   11 CL   LIG     1      28.804  23.140  28.523  1.00  0.00    -0.079 Cl
ENDBRANCH   7   8
BRANCH   7  12
HETATM   12  N   LIG     1      27.337  24.724  25.692  1.00  0.00    -0.335 N 
HETATM   13  H   LIG     1      26.484  25.258  25.969  1.00  0.00     0.164 HD
BRANCH  12  14
HETATM   14  C   LIG     1      28.331  25.421  24.927  1.00  0.00     0.350 C 
HETATM   15  O   LIG     1      28.209  25.575  23.684  1.00  0.00    -0.284 OA
ENDBRANCH  12  14
ENDBRANCH   7  12
ENDBRANCH   1   7
BRANCH   4  16
HETATM   16  C   LIG     1      24.041  21.150  21.991  1.00  0.00     0.378 C 
BRANCH  16  17
HETATM   17  C   LIG     1      23.549  22.060  20.843  1.00  0.00     0.236 C 
HETATM   18 CL   LIG     1      24.785  23.291  20.465  1.00  0.00    -0.079 Cl
HETATM   19 CL   LIG     1      22.065  22.919  21.340  1.00  0.00    -0.079 Cl
HETATM   20 CL   LIG     1      23.192  21.156  19.347  1.00  0.00    -0.079 Cl
ENDBRANCH  16  17
BRANCH  16  21
HETATM   21  N   LIG     1      22.908  20.526  22.692  1.00  0.00    -0.335 N 
HETATM   22  H   LIG     1      22.217  21.119  23.204  1.00  0.00     0.164 HD
BRANCH  21  23
HETATM   23  C   LIG     1      22.715  19.108  22.690  1.00  0.00     0.350 C 
HETATM   24  O   LIG     1      22.675  18.479  21.601  1.00  0.00    -0.284 OA
ENDBRANCH  21  23
ENDBRANCH  16  21
ENDBRANCH   4  16
TORSDOF 8
ENDMDL
MODEL 12
REMARK VINA RESULT:      -3.6     15.146     16.170
REMARK  8 active torsions:
REMARK  status: ('A' for Active; 'I' for Inactive)
REMARK    1  A    between atoms: C_2  and  C_5 
REMARK    2  A    between atoms: C_5  and  N_20 
REMARK    3  A    between atoms: C_5  and  N_6 
REMARK    4  A    between atoms: N_9  and  C_10 
REMARK    5  A    between atoms: C_10  and  C_14 
REMARK    6  A    between atoms: C_10  and  N_11 
REMARK    7  A    between atoms: N_11  and  C_12 
REMARK    8  A    between atoms: N_20  and  C_21 
ROOT
HETATM    1  N   LIG     1      25.615  22.798  23.941  1.00  0.00     0.119 N 
HETATM    2  C   LIG     1      24.298  22.400  23.391  1.00  0.00     0.305 C 
HETATM    3  C   LIG     1      24.144  22.860  21.936  1.00  0.00     0.305 C 
HETATM    4  N   LIG     1      25.219  22.298  21.101  1.00  0.00     0.119 N 
HETATM    5  C   LIG     1      26.527  22.720  21.639  1.00  0.00     0.305 C 
HETATM    6  C   LIG     1      26.678  22.225  23.078  1.00  0.00     0.305 C 
ENDROOT
BRANCH   1   7
HETATM    7  C   LIG     1      25.804  22.349  25.357  1.00  0.00     0.378 C 
BRANCH   7   8
HETATM    8  C   LIG     1      26.692  23.303  26.230  1.00  0.00     0.236 C 
HETATM    9 CL   LIG     1      26.939  24.906  25.478  1.00  0.00    -0.079 Cl
HETATM   10 CL   LIG     1      28.312  22.599  26.526  1.00  0.00    -0.079 Cl
HETATM   11 CL   LIG     1      25.986  23.535  27.858  1.00  0.00    -0.079 Cl
ENDBRANCH   7   8
BRANCH   7  12
HETATM   12  N   LIG     1      26.359  20.984  25.387  1.00  0.00    -0.335 N 
HETATM   13  H   LIG     1      27.201  20.781  24.804  1.00  0.00     0.164 HD
BRANCH  12  14
HETATM   14  C   LIG     1      25.824  19.906  26.168  1.00  0.00     0.350 C 
HETATM   15  O   LIG     1      25.029  20.120  27.119  1.00  0.00    -0.284 OA
ENDBRANCH  12  14
ENDBRANCH   7  12
ENDBRANCH   1   7
BRANCH   4  16
HETATM   16  C   LIG     1      25.005  22.600  19.653  1.00  0.00     0.378 C 
BRANCH  16  17
HETATM   17  C   LIG     1      24.558  21.334  18.888  1.00  0.00     0.236 C 
HETATM   18 CL   LIG     1      25.664  21.020  17.523  1.00  0.00    -0.079 Cl
HETATM   19 CL   LIG     1      22.922  21.574  18.215  1.00  0.00    -0.079 Cl
HETATM   20 CL   LIG     1      24.524  19.878  19.919  1.00  0.00    -0.079 Cl
ENDBRANCH  16  17
BRANCH  16  21
HETATM   21  N   LIG     1      26.186  23.208  19.023  1.00  0.00    -0.335 N 
HETATM   22  H   LIG     1      27.080  22.670  18.955  1.00  0.00     0.164 HD
BRANCH  21  23
HETATM   23  C   LIG     1      26.150  24.533  18.484  1.00  0.00     0.350 C 
HETATM   24  O   LIG     1      26.036  25.523  19.252  1.00  0.00    -0.284 OA
ENDBRANCH  21  23
ENDBRANCH  16  21
ENDBRANCH   4  16
TORSDOF 8
ENDMDL
MODEL 13
REMARK VINA RESULT:      -3.5     15.602     16.738
REMARK  8 active torsions:
REMARK  status: ('A' for Active; 'I' for Inactive)
REMARK    1  A    between atoms: C_2  and  C_5 
REMARK    2  A    between atoms: C_5  and  N_20 
REMARK    3  A    between atoms: C_5  and  N_6 
REMARK    4  A    between atoms: N_9  and  C_10 
REMARK    5  A    between atoms: C_10  and  C_14 
REMARK    6  A    between atoms: C_10  and  N_11 
REMARK    7  A    between atoms: N_11  and  C_12 
REMARK    8  A    between atoms: N_20  and  C_21 
ROOT
HETATM    1  N   LIG     1      24.965  21.094  24.287  1.00  0.00     0.119 N 
HETATM    2  C   LIG     1      26.084  20.564  23.474  1.00  0.00     0.305 C 
HETATM    3  C   LIG     1      25.568  19.858  22.215  1.00  0.00     0.305 C 
HETATM    4  N   LIG     1      24.758  20.782  21.401  1.00  0.00     0.119 N 
HETATM    5  C   LIG     1      23.631  21.285  22.208  1.00  0.00     0.305 C 
HETATM    6  C   LIG     1      24.164  22.015  23.442  1.00  0.00     0.305 C 
ENDROOT
BRANCH   1   7
HETATM    7  C   LIG     1      25.437  21.805  25.518  1.00  0.00     0.378 C 
BRANCH   7   8
HETATM    8  C   LIG     1      24.796  21.290  26.854  1.00  0.00     0.236 C 
HETATM    9 CL   LIG     1      25.776  21.688  28.295  1.00  0.00    -0.079 Cl
HETATM   10 CL   LIG     1      24.580  19.512  26.833  1.00  0.00    -0.079 Cl
HETATM   11 CL   LIG     1      23.148  21.950  27.079  1.00  0.00    -0.079 Cl
ENDBRANCH   7   8
BRANCH   7  12
HETATM   12  N   LIG     1      25.215  23.255  25.384  1.00  0.00    -0.335 N 
HETATM   13  H   LIG     1      24.284  23.581  25.041  1.00  0.00     0.164 HD
BRANCH  12  14
HETATM   14  C   LIG     1      26.190  24.260  25.695  1.00  0.00     0.350 C 
HETATM   15  O   LIG     1      26.196  24.840  26.812  1.00  0.00    -0.284 OA
ENDBRANCH  12  14
ENDBRANCH   7  12
ENDBRANCH   1   7
BRANCH   4  16
HETATM   16  C   LIG     1      24.375  20.169  20.093  1.00  0.00     0.378 C 
BRANCH  16  17
HETATM   17  C   LIG     1      24.452  21.211  18.954  1.00  0.00     0.236 C 
HETATM   18 CL   LIG     1      25.121  20.458  17.480  1.00  0.00    -0.079 Cl
HETATM   19 CL   LIG     1      25.541  22.545  19.422  1.00  0.00    -0.079 Cl
HETATM   20 CL   LIG     1      22.862  21.910  18.547  1.00  0.00    -0.079 Cl
ENDBRANCH  16  17
BRANCH  16  21
HETATM   21  N   LIG     1      23.050  19.531  20.136  1.00  0.00    -0.335 N 
HETATM   22  H   LIG     1      22.304  19.915  20.759  1.00  0.00     0.164 HD
BRANCH  21  23
HETATM   23  C   LIG     1      22.742  18.388  19.334  1.00  0.00     0.350 C 
HETATM   24  O   LIG     1      21.783  18.427  18.521  1.00  0.00    -0.284 OA
ENDBRANCH  21  23
ENDBRANCH  16  21
ENDBRANCH   4  16
TORSDOF 8
ENDMDL
MODEL 14
REMARK VINA RESULT:      -3.5     15.104     17.462
REMARK  8 active torsions:
REMARK  status: ('A' for Active; 'I' for Inactive)
REMARK    1  A    between atoms: C_2  and  C_5 
REMARK    2  A    between atoms: C_5  and  N_20 
REMARK    3  A    between atoms: C_5  and  N_6 
REMARK    4  A    between atoms: N_9  and  C_10 
REMARK    5  A    between atoms: C_10  and  C_14 
REMARK    6  A    between atoms: C_10  and  N_11 
REMARK    7  A    between atoms: N_11  and  C_12 
REMARK    8  A    between atoms: N_20  and  C_21 
ROOT
HETATM    1  N   LIG     1      25.161  22.299  22.186  1.00  0.00     0.119 N 
HETATM    2  C   LIG     1      24.425  22.739  23.394  1.00  0.00     0.305 C 
HETATM    3  C   LIG     1      25.093  22.214  24.671  1.00  0.00     0.305 C 
HETATM    4  N   LIG     1      26.491  22.672  24.748  1.00  0.00     0.119 N 
HETATM    5  C   LIG     1      27.224  22.208  23.555  1.00  0.00     0.305 C 
HETATM    6  C   LIG     1      26.565  22.768  22.293  1.00  0.00     0.305 C 
ENDROOT
BRANCH   1   7
HETATM    7  C   LIG     1      24.543  22.810  20.921  1.00  0.00     0.378 C 
BRANCH   7   8
HETATM    8  C   LIG     1      23.234  22.063  20.487  1.00  0.00     0.236 C 
HETATM    9 CL   LIG     1      23.023  22.002  18.713  1.00  0.00    -0.079 Cl
HETATM   10 CL   LIG     1      21.776  22.849  21.169  1.00  0.00    -0.079 Cl
HETATM   11 CL   LIG     1      23.198  20.393  21.129  1.00  0.00    -0.079 Cl
ENDBRANCH   7   8
BRANCH   7  12
HETATM   12  N   LIG     1      25.526  22.773  19.824  1.00  0.00    -0.335 N 
HETATM   13  H   LIG     1      25.991  21.862  19.610  1.00  0.00     0.164 HD
BRANCH  12  14
HETATM   14  C   LIG     1      25.892  23.903  19.020  1.00  0.00     0.350 C 
HETATM   15  O   LIG     1      26.114  25.028  19.539  1.00  0.00    -0.284 OA
ENDBRANCH  12  14
ENDBRANCH   7  12
ENDBRANCH   1   7
BRANCH   4  16
HETATM   16  C   LIG     1      27.117  22.307  26.055  1.00  0.00     0.378 C 
BRANCH  16  17
HETATM   17  C   LIG     1      27.512  23.574  26.847  1.00  0.00     0.236 C 
HETATM   18 CL   LIG     1      29.119  23.354  27.594  1.00  0.00    -0.079 Cl
HETATM   19 CL   LIG     1      26.340  23.862  28.162  1.00  0.00    -0.079 Cl
HETATM   20 CL   LIG     1      27.571  25.038  25.828  1.00  0.00    -0.079 Cl
ENDBRANCH  16  17
BRANCH  16  21
HETATM   21  N   LIG     1      28.266  21.403  25.898  1.00  0.00    -0.335 N 
HETATM   22  H   LIG     1      29.148  21.748  25.457  1.00  0.00     0.164 HD
BRANCH  21  23
HETATM   23  C   LIG     1      28.216  20.044  26.342  1.00  0.00     0.350 C 
HETATM   24  O   LIG     1      27.379  19.248  25.844  1.00  0.00    -0.284 OA
ENDBRANCH  21  23
ENDBRANCH  16  21
ENDBRANCH   4  16
TORSDOF 8
ENDMDL
MODEL 15
REMARK VINA RESULT:      -3.3     15.245     17.468
REMARK  8 active torsions:
REMARK  status: ('A' for Active; 'I' for Inactive)
REMARK    1  A    between atoms: C_2  and  C_5 
REMARK    2  A    between atoms: C_5  and  N_20 
REMARK    3  A    between atoms: C_5  and  N_6 
REMARK    4  A    between atoms: N_9  and  C_10 
REMARK    5  A    between atoms: C_10  and  C_14 
REMARK    6  A    between atoms: C_10  and  N_11 
REMARK    7  A    between atoms: N_11  and  C_12 
REMARK    8  A    between atoms: N_20  and  C_21 
ROOT
HETATM    1  N   LIG     1      24.843  21.753  20.621  1.00  0.00     0.119 N 
HETATM    2  C   LIG     1      24.172  22.972  21.129  1.00  0.00     0.305 C 
HETATM    3  C   LIG     1      24.051  22.940  22.657  1.00  0.00     0.305 C 
HETATM    4  N   LIG     1      25.381  22.812  23.278  1.00  0.00     0.119 N 
HETATM    5  C   LIG     1      26.032  21.582  22.788  1.00  0.00     0.305 C 
HETATM    6  C   LIG     1      26.175  21.645  21.266  1.00  0.00     0.305 C 
ENDROOT
BRANCH   1   7
HETATM    7  C   LIG     1      24.992  21.760  19.131  1.00  0.00     0.378 C 
BRANCH   7   8
HETATM    8  C   LIG     1      24.461  20.468  18.416  1.00  0.00     0.236 C 
HETATM    9 CL   LIG     1      24.558  19.012  19.449  1.00  0.00    -0.079 Cl
HETATM   10 CL   LIG     1      25.386  20.121  16.922  1.00  0.00    -0.079 Cl
HETATM   11 CL   LIG     1      22.770  20.676  17.873  1.00  0.00    -0.079 Cl
ENDBRANCH   7   8
BRANCH   7  12
HETATM   12  N   LIG     1      26.400  21.992  18.762  1.00  0.00    -0.335 N 
HETATM   13  H   LIG     1      27.086  21.223  18.930  1.00  0.00     0.164 HD
BRANCH  12  14
HETATM   14  C   LIG     1      26.900  23.205  18.182  1.00  0.00     0.350 C 
HETATM   15  O   LIG     1      26.209  24.257  18.172  1.00  0.00    -0.284 OA
ENDBRANCH  12  14
ENDBRANCH   7  12
ENDBRANCH   1   7
BRANCH   4  16
HETATM   16  C   LIG     1      25.307  22.937  24.766  1.00  0.00     0.378 C 
BRANCH  16  17
HETATM   17  C   LIG     1      26.595  23.580  25.327  1.00  0.00     0.236 C 
HETATM   18 CL   LIG     1      27.644  22.325  26.043  1.00  0.00    -0.079 Cl
HETATM   19 CL   LIG     1      26.183  24.742  26.618  1.00  0.00    -0.079 Cl
HETATM   20 CL   LIG     1      27.537  24.445  24.083  1.00  0.00    -0.079 Cl
ENDBRANCH  16  17
BRANCH  16  21
HETATM   21  N   LIG     1      25.026  21.653  25.426  1.00  0.00    -0.335 N 
HETATM   22  H   LIG     1      25.716  20.870  25.366  1.00  0.00     0.164 HD
BRANCH  21  23
HETATM   23  C   LIG     1      23.821  21.440  26.167  1.00  0.00     0.350 C 
HETATM   24  O   LIG     1      23.563  20.301  26.638  1.00  0.00    -0.284 OA
ENDBRANCH  21  23
ENDBRANCH  16  21
ENDBRANCH   4  16
TORSDOF 8
ENDMDL
MODEL 16
REMARK VINA RESULT:      -3.0      0.786      7.370
REMARK  8 active torsions:
REMARK  status: ('A' for Active; 'I' for Inactive)
REMARK    1  A    between atoms: C_2  and  C_5 
REMARK    2  A    between atoms: C_5  and  N_20 
REMARK    3  A    between atoms: C_5  and  N_6 
REMARK    4  A    between atoms: N_9  and  C_10 
REMARK    5  A    between atoms: C_10  and  C_14 
REMARK    6  A    between atoms: C_10  and  N_11 
REMARK    7  A    between atoms: N_11  and  C_12 
REMARK    8  A    between atoms: N_20  and  C_21 
ROOT
HETATM    1  N   LIG     1      15.660  34.617  20.039  1.00  0.00     0.119 N 
HETATM    2  C   LIG     1      16.530  33.980  21.055  1.00  0.00     0.305 C 
HETATM    3  C   LIG     1      17.187  35.032  21.958  1.00  0.00     0.305 C 
HETATM    4  N   LIG     1      16.161  35.851  22.628  1.00  0.00     0.119 N 
HETATM    5  C   LIG     1      15.315  36.502  21.609  1.00  0.00     0.305 C 
HETATM    6  C   LIG     1      14.642  35.439  20.739  1.00  0.00     0.305 C 
ENDROOT
BRANCH   1   7
HETATM    7  C   LIG     1      14.990  33.615  19.151  1.00  0.00     0.378 C 
BRANCH   7   8
HETATM    8  C   LIG     1      14.866  32.177  19.768  1.00  0.00     0.236 C 
HETATM    9 CL   LIG     1      13.987  32.163  21.325  1.00  0.00    -0.079 Cl
HETATM   10 CL   LIG     1      16.476  31.449  20.059  1.00  0.00    -0.079 Cl
HETATM   11 CL   LIG     1      14.051  31.055  18.637  1.00  0.00    -0.079 Cl
ENDBRANCH   7   8
BRANCH   7  12
HETATM   12  N   LIG     1      15.684  33.542  17.852  1.00  0.00    -0.335 N 
HETATM   13  H   LIG     1      16.508  32.905  17.769  1.00  0.00     0.164 HD
BRANCH  12  14
HETATM   14  C   LIG     1      15.307  34.286  16.685  1.00  0.00     0.350 C 
HETATM   15  O   LIG     1      16.171  34.721  15.881  1.00  0.00    -0.284 OA
ENDBRANCH  12  14
ENDBRANCH   7  12
ENDBRANCH   1   7
BRANCH   4  16
HETATM   16  C   LIG     1      16.767  36.777  23.632  1.00  0.00     0.378 C 
BRANCH  16  17
HETATM   17  C   LIG     1      17.387  38.010  22.938  1.00  0.00     0.236 C 
HETATM   18 CL   LIG     1      18.725  38.661  23.925  1.00  0.00    -0.079 Cl
HETATM   19 CL   LIG     1      16.161  39.297  22.773  1.00  0.00    -0.079 Cl
HETATM   20 CL   LIG     1      18.026  37.642  21.313  1.00  0.00    -0.079 Cl
ENDBRANCH  16  17
BRANCH  16  21
HETATM   21  N   LIG     1      17.751  36.106  24.495  1.00  0.00    -0.335 N 
HETATM   22  H   LIG     1      18.721  35.933  24.148  1.00  0.00     0.164 HD
BRANCH  21  23
HETATM   23  C   LIG     1      17.419  35.681  25.820  1.00  0.00     0.350 C 
HETATM   24  O   LIG     1      17.971  34.664  26.313  1.00  0.00    -0.284 OA
ENDBRANCH  21  23
ENDBRANCH  16  21
ENDBRANCH   4  16
TORSDOF 8
ENDMDL
MODEL 17
REMARK VINA RESULT:      -3.0     15.603     18.039
REMARK  8 active torsions:
REMARK  status: ('A' for Active; 'I' for Inactive)
REMARK    1  A    between atoms: C_2  and  C_5 
REMARK    2  A    between atoms: C_5  and  N_20 
REMARK    3  A    between atoms: C_5  and  N_6 
REMARK    4  A    between atoms: N_9  and  C_10 
REMARK    5  A    between atoms: C_10  and  C_14 
REMARK    6  A    between atoms: C_10  and  N_11 
REMARK    7  A    between atoms: N_11  and  C_12 
REMARK    8  A    between atoms: N_20  and  C_21 
ROOT
HETATM    1  N   LIG     1      25.139  22.044  23.520  1.00  0.00     0.119 N 
HETATM    2  C   LIG     1      24.733  22.990  24.586  1.00  0.00     0.305 C 
HETATM    3  C   LIG     1      25.245  22.532  25.957  1.00  0.00     0.305 C 
HETATM    4  N   LIG     1      26.712  22.402  25.943  1.00  0.00     0.119 N 
HETATM    5  C   LIG     1      27.108  21.439  24.897  1.00  0.00     0.305 C 
HETATM    6  C   LIG     1      26.619  21.928  23.533  1.00  0.00     0.305 C 
ENDROOT
BRANCH   1   7
HETATM    7  C   LIG     1      24.669  22.472  22.165  1.00  0.00     0.378 C 
BRANCH   7   8
HETATM    8  C   LIG     1      23.340  21.786  21.689  1.00  0.00     0.236 C 
HETATM    9 CL   LIG     1      22.034  22.959  21.350  1.00  0.00    -0.079 Cl
HETATM   10 CL   LIG     1      22.720  20.641  22.919  1.00  0.00    -0.079 Cl
HETATM   11 CL   LIG     1      23.612  20.790  20.228  1.00  0.00    -0.079 Cl
ENDBRANCH   7   8
BRANCH   7  12
HETATM   12  N   LIG     1      25.730  22.252  21.165  1.00  0.00    -0.335 N 
HETATM   13  H   LIG     1      26.266  21.356  21.205  1.00  0.00     0.164 HD
BRANCH  12  14
HETATM   14  C   LIG     1      26.081  23.184  20.133  1.00  0.00     0.350 C 
HETATM   15  O   LIG     1      25.644  24.364  20.143  1.00  0.00    -0.284 OA
ENDBRANCH  12  14
ENDBRANCH   7  12
ENDBRANCH   1   7
BRANCH   4  16
HETATM   16  C   LIG     1      27.250  22.111  27.306  1.00  0.00     0.378 C 
BRANCH  16  17
HETATM   17  C   LIG     1      28.190  23.243  27.780  1.00  0.00     0.236 C 
HETATM   18 CL   LIG     1      27.984  24.683  26.744  1.00  0.00    -0.079 Cl
HETATM   19 CL   LIG     1      29.891  22.719  27.646  1.00  0.00    -0.079 Cl
HETATM   20 CL   LIG     1      27.891  23.729  29.471  1.00  0.00    -0.079 Cl
ENDBRANCH  16  17
BRANCH  16  21
HETATM   21  N   LIG     1      27.920  20.803  27.381  1.00  0.00    -0.335 N 
HETATM   22  H   LIG     1      28.634  20.538  26.664  1.00  0.00     0.164 HD
BRANCH  21  23
HETATM   23  C   LIG     1      27.626  19.869  28.423  1.00  0.00     0.350 C 
HETATM   24  O   LIG     1      27.951  20.127  29.611  1.00  0.00    -0.284 OA
ENDBRANCH  21  23
ENDBRANCH  16  21
ENDBRANCH   4  16
TORSDOF 8
ENDMDL
MODEL 18
REMARK VINA RESULT:      -2.9      2.881      6.816
REMARK  8 active torsions:
REMARK  status: ('A' for Active; 'I' for Inactive)
REMARK    1  A    between atoms: C_2  and  C_5 
REMARK    2  A    between atoms: C_5  and  N_20 
REMARK    3  A    between atoms: C_5  and  N_6 
REMARK    4  A    between atoms: N_9  and  C_10 
REMARK    5  A    between atoms: C_10  and  C_14 
REMARK    6  A    between atoms: C_10  and  N_11 
REMARK    7  A    between atoms: N_11  and  C_12 
REMARK    8  A    between atoms: N_20  and  C_21 
ROOT
HETATM    1  N   LIG     1      15.623  34.375  19.473  1.00  0.00     0.119 N 
HETATM    2  C   LIG     1      16.841  35.051  18.971  1.00  0.00     0.305 C 
HETATM    3  C   LIG     1      17.134  36.328  19.768  1.00  0.00     0.305 C 
HETATM    4  N   LIG     1      17.295  36.017  21.199  1.00  0.00     0.119 N 
HETATM    5  C   LIG     1      16.068  35.368  21.699  1.00  0.00     0.305 C 
HETATM    6  C   LIG     1      15.809  34.080  20.916  1.00  0.00     0.305 C 
ENDROOT
BRANCH   1   7
HETATM    7  C   LIG     1      15.318  33.114  18.725  1.00  0.00     0.378 C 
BRANCH   7   8
HETATM    8  C   LIG     1      14.732  33.335  17.286  1.00  0.00     0.236 C 
HETATM    9 CL   LIG     1      15.965  33.179  16.002  1.00  0.00    -0.079 Cl
HETATM   10 CL   LIG     1      13.998  34.961  17.123  1.00  0.00    -0.079 Cl
HETATM   11 CL   LIG     1      13.399  32.191  16.947  1.00  0.00    -0.079 Cl
ENDBRANCH   7   8
BRANCH   7  12
HETATM   12  N   LIG     1      14.405  32.265  19.511  1.00  0.00    -0.335 N 
HETATM   13  H   LIG     1      13.415  32.579  19.623  1.00  0.00     0.164 HD
BRANCH  12  14
HETATM   14  C   LIG     1      14.778  31.029  20.136  1.00  0.00     0.350 C 
HETATM   15  O   LIG     1      15.986  30.740  20.341  1.00  0.00    -0.284 OA
ENDBRANCH  12  14
ENDBRANCH   7  12
ENDBRANCH   1   7
BRANCH   4  16
HETATM   16  C   LIG     1      17.737  37.215  21.975  1.00  0.00     0.378 C 
BRANCH  16  17
HETATM   17  C   LIG     1      17.027  37.274  23.347  1.00  0.00     0.236 C 
HETATM   18 CL   LIG     1      15.318  37.741  23.133  1.00  0.00    -0.079 Cl
HETATM   19 CL   LIG     1      17.801  38.506  24.380  1.00  0.00    -0.079 Cl
HETATM   20 CL   LIG     1      17.071  35.716  24.216  1.00  0.00    -0.079 Cl
ENDBRANCH  16  17
BRANCH  16  21
HETATM   21  N   LIG     1      17.550  38.470  21.230  1.00  0.00    -0.335 N 
HETATM   22  H   LIG     1      16.607  38.720  20.852  1.00  0.00     0.164 HD
BRANCH  21  23
HETATM   23  C   LIG     1      18.632  39.377  21.007  1.00  0.00     0.350 C 
HETATM   24  O   LIG     1      18.954  39.699  19.833  1.00  0.00    -0.284 OA
ENDBRANCH  21  23
ENDBRANCH  16  21
ENDBRANCH   4  16
TORSDOF 8
ENDMDL
MODEL 19
REMARK VINA RESULT:      -2.8     15.806     17.902
REMARK  8 active torsions:
REMARK  status: ('A' for Active; 'I' for Inactive)
REMARK    1  A    between atoms: C_2  and  C_5 
REMARK    2  A    between atoms: C_5  and  N_20 
REMARK    3  A    between atoms: C_5  and  N_6 
REMARK    4  A    between atoms: N_9  and  C_10 
REMARK    5  A    between atoms: C_10  and  C_14 
REMARK    6  A    between atoms: C_10  and  N_11 
REMARK    7  A    between atoms: N_11  and  C_12 
REMARK    8  A    between atoms: N_20  and  C_21 
ROOT
HETATM    1  N   LIG     1      25.247  21.305  21.467  1.00  0.00     0.119 N 
HETATM    2  C   LIG     1      25.305  22.691  21.986  1.00  0.00     0.305 C 
HETATM    3  C   LIG     1      24.739  22.772  23.409  1.00  0.00     0.305 C 
HETATM    4  N   LIG     1      25.480  21.874  24.312  1.00  0.00     0.119 N 
HETATM    5  C   LIG     1      25.395  20.492  23.802  1.00  0.00     0.305 C 
HETATM    6  C   LIG     1      25.994  20.422  22.396  1.00  0.00     0.305 C 
ENDROOT
BRANCH   1   7
HETATM    7  C   LIG     1      25.809  21.188  20.083  1.00  0.00     0.378 C 
BRANCH   7   8
HETATM    8  C   LIG     1      24.806  21.571  18.938  1.00  0.00     0.236 C 
HETATM    9 CL   LIG     1      23.099  21.542  19.470  1.00  0.00    -0.079 Cl
HETATM   10 CL   LIG     1      24.947  20.454  17.545  1.00  0.00    -0.079 Cl
HETATM   11 CL   LIG     1      25.173  23.189  18.270  1.00  0.00    -0.079 Cl
ENDBRANCH   7   8
BRANCH   7  12
HETATM   12  N   LIG     1      26.327  19.827  19.858  1.00  0.00    -0.335 N 
HETATM   13  H   LIG     1      25.676  19.023  20.001  1.00  0.00     0.164 HD
BRANCH  12  14
HETATM   14  C   LIG     1      27.669  19.525  19.452  1.00  0.00     0.350 C 
HETATM   15  O   LIG     1      28.630  20.277  19.761  1.00  0.00    -0.284 OA
ENDBRANCH  12  14
ENDBRANCH   7  12
ENDBRANCH   1   7
BRANCH   4  16
HETATM   16  C   LIG     1      25.054  22.050  25.733  1.00  0.00     0.378 C 
BRANCH  16  17
HETATM   17  C   LIG     1      26.143  22.785  26.546  1.00  0.00     0.236 C 
HETATM   18 CL   LIG     1      26.045  24.543  26.254  1.00  0.00    -0.079 Cl
HETATM   19 CL   LIG     1      27.762  22.240  26.027  1.00  0.00    -0.079 Cl
HETATM   20 CL   LIG     1      26.002  22.506  28.303  1.00  0.00    -0.079 Cl
ENDBRANCH  16  17
BRANCH  16  21
HETATM   21  N   LIG     1      24.685  20.778  26.373  1.00  0.00    -0.335 N 
HETATM   22  H   LIG     1      25.409  20.041  26.531  1.00  0.00     0.164 HD
BRANCH  21  23
HETATM   23  C   LIG     1      23.346  20.515  26.800  1.00  0.00     0.350 C 
HETATM   24  O   LIG     1      22.467  20.192  25.959  1.00  0.00    -0.284 OA
ENDBRANCH  21  23
ENDBRANCH  16  21
ENDBRANCH   4  16
TORSDOF 8
ENDMDL
MODEL 20
REMARK VINA RESULT:      -2.7     15.354     17.541
REMARK  8 active torsions:
REMARK  status: ('A' for Active; 'I' for Inactive)
REMARK    1  A    between atoms: C_2  and  C_5 
REMARK    2  A    between atoms: C_5  and  N_20 
REMARK    3  A    between atoms: C_5  and  N_6 
REMARK    4  A    between atoms: N_9  and  C_10 
REMARK    5  A    between atoms: C_10  and  C_14 
REMARK    6  A    between atoms: C_10  and  N_11 
REMARK    7  A    between atoms: N_11  and  C_12 
REMARK    8  A    between atoms: N_20  and  C_21 
ROOT
HETATM    1  N   LIG     1      23.979  20.818  20.809  1.00  0.00     0.119 N 
HETATM    2  C   LIG     1      24.093  22.290  20.931  1.00  0.00     0.305 C 
HETATM    3  C   LIG     1      23.958  22.737  22.391  1.00  0.00     0.305 C 
HETATM    4  N   LIG     1      24.985  22.090  23.226  1.00  0.00     0.119 N 
HETATM    5  C   LIG     1      24.848  20.624  23.121  1.00  0.00     0.305 C 
HETATM    6  C   LIG     1      25.019  20.193  21.663  1.00  0.00     0.305 C 
ENDROOT
BRANCH   1   7
HETATM    7  C   LIG     1      24.123  20.348  19.395  1.00  0.00     0.378 C 
BRANCH   7   8
HETATM    8  C   LIG     1      25.150  21.168  18.537  1.00  0.00     0.236 C 
HETATM    9 CL   LIG     1      24.512  22.754  18.016  1.00  0.00    -0.079 Cl
HETATM   10 CL   LIG     1      25.627  20.275  17.059  1.00  0.00    -0.079 Cl
HETATM   11 CL   LIG     1      26.679  21.428  19.430  1.00  0.00    -0.079 Cl
ENDBRANCH   7   8
BRANCH   7  12
HETATM   12  N   LIG     1      22.810  20.337  18.726  1.00  0.00    -0.335 N 
HETATM   13  H   LIG     1      22.221  21.198  18.784  1.00  0.00     0.164 HD
BRANCH  12  14
HETATM   14  C   LIG     1      22.279  19.224  17.993  1.00  0.00     0.350 C 
HETATM   15  O   LIG     1      21.818  19.367  16.831  1.00  0.00    -0.284 OA
ENDBRANCH  12  14
ENDBRANCH   7  12
ENDBRANCH   1   7
BRANCH   4  16
HETATM   16  C   LIG     1      24.977  22.627  24.621  1.00  0.00     0.378 C 
BRANCH  16  17
HETATM   17  C   LIG     1      26.355  23.222  24.989  1.00  0.00     0.236 C 
HETATM   18 CL   LIG     1      27.230  23.701  23.508  1.00  0.00    -0.079 Cl
HETATM   19 CL   LIG     1      27.343  21.995  25.828  1.00  0.00    -0.079 Cl
HETATM   20 CL   LIG     1      26.231  24.653  26.047  1.00  0.00    -0.079 Cl
ENDBRANCH  16  17
BRANCH  16  21
HETATM   21  N   LIG     1      24.555  21.622  25.609  1.00  0.00    -0.335 N 
HETATM   22  H   LIG     1      24.805  20.616  25.474  1.00  0.00     0.164 HD
BRANCH  21  23
HETATM   23  C   LIG     1      23.806  21.984  26.773  1.00  0.00     0.350 C 
HETATM   24  O   LIG     1      22.672  21.478  26.976  1.00  0.00    -0.284 OA
ENDBRANCH  21  23
ENDBRANCH  16  21
ENDBRANCH   4  16
TORSDOF 8
ENDMDL
