REMARK  8 active torsions:
REMARK  status: ('A' for Active; 'I' for Inactive)
REMARK    1  A    between atoms: C_2  and  C_5 
REMARK    2  A    between atoms: C_5  and  N_20 
REMARK    3  A    between atoms: C_5  and  N_6 
REMARK    4  A    between atoms: N_9  and  C_10 
REMARK    5  A    between atoms: C_10  and  C_14 
REMARK    6  A    between atoms: C_10  and  N_11 
REMARK    7  A    between atoms: N_11  and  C_12 
REMARK    8  A    between atoms: N_20  and  C_21 
ROOT
HETATM    1  N   LIG     1       1.395   0.322  -0.154  1.00  0.00     0.119 N 
HETATM    2  C   LIG     1       0.555   1.538  -0.053  1.00  0.00     0.305 C 
HETATM    3  C   LIG     1      -0.927   1.206  -0.265  1.00  0.00     0.305 C 
HETATM    4  N   LIG     1      -1.379   0.209   0.721  1.00  0.00     0.119 N 
HETATM    5  C   LIG     1      -0.555  -1.009   0.597  1.00  0.00     0.305 C 
HETATM    6  C   LIG     1       0.915  -0.666   0.844  1.00  0.00     0.305 C 
ENDROOT
BRANCH   1   7
HETATM    7  C   LIG     1       2.848   0.610   0.065  1.00  0.00     0.378 C 
BRANCH   7   8
HETATM    8  C   LIG     1       3.466   1.645  -0.940  1.00  0.00     0.236 C 
HETATM    9 CL   LIG     1       2.820   1.475  -2.598  1.00  0.00    -0.079 Cl
HETATM   10 CL   LIG     1       5.246   1.473  -1.043  1.00  0.00    -0.079 Cl
HETATM   11 CL   LIG     1       3.197   3.325  -0.387  1.00  0.00    -0.079 Cl
ENDBRANCH   7   8
BRANCH   7  12
HETATM   12  N   LIG     1       3.625  -0.642   0.033  1.00  0.00    -0.335 N 
HETATM   13  H   LIG     1       4.241  -0.860   0.848  1.00  0.00     0.164 HD
BRANCH  12  14
HETATM   14  C   LIG     1       3.595  -1.591  -1.042  1.00  0.00     0.350 C 
HETATM   15  O   LIG     1       2.770  -1.482  -1.986  1.00  0.00    -0.284 OA
ENDBRANCH  12  14
ENDBRANCH   7  12
ENDBRANCH   1   7
BRANCH   4  16
HETATM   16  C   LIG     1      -2.854  -0.015   0.639  1.00  0.00     0.378 C 
BRANCH  16  17
HETATM   17  C   LIG     1      -3.493   0.013   2.046  1.00  0.00     0.236 C 
HETATM   18 CL   LIG     1      -5.268  -0.127   1.916  1.00  0.00    -0.079 Cl
HETATM   19 CL   LIG     1      -3.130   1.565   2.849  1.00  0.00    -0.079 Cl
HETATM   20 CL   LIG     1      -2.909  -1.305   3.098  1.00  0.00    -0.079 Cl
ENDBRANCH  16  17
BRANCH  16  21
HETATM   21  N   LIG     1      -3.197  -1.256  -0.072  1.00  0.00    -0.335 N 
HETATM   22  H   LIG     1      -3.033  -2.183   0.382  1.00  0.00     0.164 HD
BRANCH  21  23
HETATM   23  C   LIG     1      -3.764  -1.235  -1.385  1.00  0.00     0.350 C 
HETATM   24  O   LIG     1      -4.059  -2.314  -1.962  1.00  0.00    -0.284 OA
ENDBRANCH  21  23
ENDBRANCH  16  21
ENDBRANCH   4  16
TORSDOF 8
