MODEL 1
REMARK VINA RESULT:      -6.9      0.000      0.000
REMARK  0 active torsions:
REMARK  status: ('A' for Active; 'I' for Inactive)
ROOT
HETATM    1  C   LIG     1      17.089  36.665  24.456  1.00  0.00     0.011 A 
HETATM    2  C   LIG     1      17.181  35.276  24.481  1.00  0.00     0.015 A 
HETATM    3  C   LIG     1      17.826  34.688  25.586  1.00  0.00     0.001 A 
HETATM    4  C   LIG     1      18.353  35.495  26.622  1.00  0.00     0.002 A 
HETATM    5  C   LIG     1      18.240  36.898  26.563  1.00  0.00     0.032 A 
HETATM    6  C   LIG     1      17.596  37.444  25.455  1.00  0.00     0.061 A 
HETATM    7  N   LIG     1      17.368  38.736  25.174  1.00  0.00    -0.278 N 
HETATM    8  N   LIG     1      16.722  38.804  24.013  1.00  0.00    -0.186 NA
HETATM    9  C   LIG     1      16.537  37.543  23.549  1.00  0.00     0.152 A 
HETATM   10  H   LIG     1      17.640  39.562  25.751  1.00  0.00     0.189 HD
ENDROOT
TORSDOF 0
ENDMDL
MODEL 2
REMARK VINA RESULT:      -6.5      1.149      2.047
REMARK  0 active torsions:
REMARK  status: ('A' for Active; 'I' for Inactive)
ROOT
HETATM    1  C   LIG     1      17.649  37.308  24.883  1.00  0.00     0.011 A 
HETATM    2  C   LIG     1      18.226  37.268  26.149  1.00  0.00     0.015 A 
HETATM    3  C   LIG     1      18.346  36.010  26.769  1.00  0.00     0.001 A 
HETATM    4  C   LIG     1      17.893  34.841  26.112  1.00  0.00     0.002 A 
HETATM    5  C   LIG     1      17.315  34.919  24.830  1.00  0.00     0.032 A 
HETATM    6  C   LIG     1      17.212  36.182  24.249  1.00  0.00     0.061 A 
HETATM    7  N   LIG     1      16.705  36.511  23.051  1.00  0.00    -0.278 N 
HETATM    8  N   LIG     1      16.807  37.828  22.902  1.00  0.00    -0.186 NA
HETATM    9  C   LIG     1      17.385  38.344  24.015  1.00  0.00     0.152 A 
HETATM   10  H   LIG     1      16.295  35.863  22.342  1.00  0.00     0.189 HD
ENDROOT
TORSDOF 0
ENDMDL
MODEL 3
REMARK VINA RESULT:      -6.3      3.943      4.889
REMARK  0 active torsions:
REMARK  status: ('A' for Active; 'I' for Inactive)
ROOT
HETATM    1  C   LIG     1      18.693  37.715  20.275  1.00  0.00     0.011 A 
HETATM    2  C   LIG     1      18.026  36.506  20.449  1.00  0.00     0.015 A 
HETATM    3  C   LIG     1      17.048  36.443  21.461  1.00  0.00     0.001 A 
HETATM    4  C   LIG     1      16.767  37.579  22.257  1.00  0.00     0.002 A 
HETATM    5  C   LIG     1      17.462  38.787  22.051  1.00  0.00     0.032 A 
HETATM    6  C   LIG     1      18.422  38.810  21.042  1.00  0.00     0.061 A 
HETATM    7  N   LIG     1      19.207  39.829  20.659  1.00  0.00    -0.278 N 
HETATM    8  N   LIG     1      19.977  39.411  19.658  1.00  0.00    -0.186 NA
HETATM    9  C   LIG     1      19.681  38.113  19.401  1.00  0.00     0.152 A 
HETATM   10  H   LIG     1      19.227  40.793  21.061  1.00  0.00     0.189 HD
ENDROOT
TORSDOF 0
ENDMDL
MODEL 4
REMARK VINA RESULT:      -6.2      3.129      4.375
REMARK  0 active torsions:
REMARK  status: ('A' for Active; 'I' for Inactive)
ROOT
HETATM    1  C   LIG     1      17.191  37.326  21.713  1.00  0.00     0.011 A 
HETATM    2  C   LIG     1      17.779  36.539  20.727  1.00  0.00     0.015 A 
HETATM    3  C   LIG     1      18.762  37.139  19.917  1.00  0.00     0.001 A 
HETATM    4  C   LIG     1      19.124  38.493  20.114  1.00  0.00     0.002 A 
HETATM    5  C   LIG     1      18.508  39.259  21.122  1.00  0.00     0.032 A 
HETATM    6  C   LIG     1      17.540  38.631  21.904  1.00  0.00     0.061 A 
HETATM    7  N   LIG     1      16.820  39.143  22.913  1.00  0.00    -0.278 N 
HETATM    8  N   LIG     1      16.014  38.193  23.376  1.00  0.00    -0.186 NA
HETATM    9  C   LIG     1      16.222  37.063  22.655  1.00  0.00     0.152 A 
HETATM   10  H   LIG     1      16.866  40.117  23.288  1.00  0.00     0.189 HD
ENDROOT
TORSDOF 0
ENDMDL
MODEL 5
REMARK VINA RESULT:      -6.1      3.703      5.048
REMARK  0 active torsions:
REMARK  status: ('A' for Active; 'I' for Inactive)
ROOT
HETATM    1  C   LIG     1      17.872  38.622  21.565  1.00  0.00     0.011 A 
HETATM    2  C   LIG     1      18.834  39.364  20.884  1.00  0.00     0.015 A 
HETATM    3  C   LIG     1      19.532  38.722  19.842  1.00  0.00     0.001 A 
HETATM    4  C   LIG     1      19.250  37.374  19.515  1.00  0.00     0.002 A 
HETATM    5  C   LIG     1      18.269  36.656  20.225  1.00  0.00     0.032 A 
HETATM    6  C   LIG     1      17.600  37.323  21.248  1.00  0.00     0.061 A 
HETATM    7  N   LIG     1      16.637  36.859  22.059  1.00  0.00    -0.278 N 
HETATM    8  N   LIG     1      16.283  37.834  22.891  1.00  0.00    -0.186 NA
HETATM    9  C   LIG     1      17.028  38.932  22.608  1.00  0.00     0.152 A 
HETATM   10  H   LIG     1      16.221  35.901  22.057  1.00  0.00     0.189 HD
ENDROOT
TORSDOF 0
ENDMDL
MODEL 6
REMARK VINA RESULT:      -6.0      1.243      2.927
REMARK  0 active torsions:
REMARK  status: ('A' for Active; 'I' for Inactive)
ROOT
HETATM    1  C   LIG     1      17.205  36.289  24.375  1.00  0.00     0.011 A 
HETATM    2  C   LIG     1      17.167  35.104  23.645  1.00  0.00     0.015 A 
HETATM    3  C   LIG     1      16.662  35.166  22.331  1.00  0.00     0.001 A 
HETATM    4  C   LIG     1      16.216  36.397  21.792  1.00  0.00     0.002 A 
HETATM    5  C   LIG     1      16.271  37.576  22.560  1.00  0.00     0.032 A 
HETATM    6  C   LIG     1      16.776  37.476  23.855  1.00  0.00     0.061 A 
HETATM    7  N   LIG     1      16.926  38.445  24.771  1.00  0.00    -0.278 N 
HETATM    8  N   LIG     1      17.444  37.905  25.870  1.00  0.00    -0.186 NA
HETATM    9  C   LIG     1      17.626  36.579  25.654  1.00  0.00     0.152 A 
HETATM   10  H   LIG     1      16.685  39.455  24.662  1.00  0.00     0.189 HD
ENDROOT
TORSDOF 0
ENDMDL
MODEL 7
REMARK VINA RESULT:      -5.7      9.499     10.632
REMARK  0 active torsions:
REMARK  status: ('A' for Active; 'I' for Inactive)
ROOT
HETATM    1  C   LIG     1      14.607  32.845  16.571  1.00  0.00     0.011 A 
HETATM    2  C   LIG     1      13.512  32.048  16.897  1.00  0.00     0.015 A 
HETATM    3  C   LIG     1      13.363  30.833  16.201  1.00  0.00     0.001 A 
HETATM    4  C   LIG     1      14.302  30.454  15.211  1.00  0.00     0.002 A 
HETATM    5  C   LIG     1      15.397  31.286  14.909  1.00  0.00     0.032 A 
HETATM    6  C   LIG     1      15.512  32.480  15.618  1.00  0.00     0.061 A 
HETATM    7  N   LIG     1      16.455  33.428  15.511  1.00  0.00    -0.278 N 
HETATM    8  N   LIG     1      16.175  34.396  16.378  1.00  0.00    -0.186 NA
HETATM    9  C   LIG     1      15.042  34.063  17.044  1.00  0.00     0.152 A 
HETATM   10  H   LIG     1      17.277  33.427  14.867  1.00  0.00     0.189 HD
ENDROOT
TORSDOF 0
ENDMDL
MODEL 8
REMARK VINA RESULT:      -5.7      1.753      3.104
REMARK  0 active torsions:
REMARK  status: ('A' for Active; 'I' for Inactive)
ROOT
HETATM    1  C   LIG     1      17.214  35.919  24.258  1.00  0.00     0.011 A 
HETATM    2  C   LIG     1      16.910  36.023  22.903  1.00  0.00     0.015 A 
HETATM    3  C   LIG     1      16.807  37.317  22.358  1.00  0.00     0.001 A 
HETATM    4  C   LIG     1      17.009  38.456  23.174  1.00  0.00     0.002 A 
HETATM    5  C   LIG     1      17.317  38.312  24.541  1.00  0.00     0.032 A 
HETATM    6  C   LIG     1      17.411  37.016  25.044  1.00  0.00     0.061 A 
HETATM    7  N   LIG     1      17.687  36.625  26.297  1.00  0.00    -0.278 N 
HETATM    8  N   LIG     1      17.674  35.296  26.333  1.00  0.00    -0.186 NA
HETATM    9  C   LIG     1      17.386  34.835  25.090  1.00  0.00     0.152 A 
HETATM   10  H   LIG     1      17.883  37.238  27.119  1.00  0.00     0.189 HD
ENDROOT
TORSDOF 0
ENDMDL
MODEL 9
REMARK VINA RESULT:      -5.7      4.121      5.001
REMARK  0 active torsions:
REMARK  status: ('A' for Active; 'I' for Inactive)
ROOT
HETATM    1  C   LIG     1      18.254  38.150  21.017  1.00  0.00     0.011 A 
HETATM    2  C   LIG     1      17.462  38.606  22.068  1.00  0.00     0.015 A 
HETATM    3  C   LIG     1      16.511  37.714  22.600  1.00  0.00     0.001 A 
HETATM    4  C   LIG     1      16.381  36.407  22.072  1.00  0.00     0.002 A 
HETATM    5  C   LIG     1      17.200  35.980  21.010  1.00  0.00     0.032 A 
HETATM    6  C   LIG     1      18.129  36.890  20.509  1.00  0.00     0.061 A 
HETATM    7  N   LIG     1      19.010  36.721  19.512  1.00  0.00    -0.278 N 
HETATM    8  N   LIG     1      19.701  37.849  19.368  1.00  0.00    -0.186 NA
HETATM    9  C   LIG     1      19.255  38.745  20.283  1.00  0.00     0.152 A 
HETATM   10  H   LIG     1      19.149  35.863  18.934  1.00  0.00     0.189 HD
ENDROOT
TORSDOF 0
ENDMDL
MODEL 10
REMARK VINA RESULT:      -5.7     10.047     10.932
REMARK  0 active torsions:
REMARK  status: ('A' for Active; 'I' for Inactive)
ROOT
HETATM    1  C   LIG     1      15.609  32.002  15.121  1.00  0.00     0.011 A 
HETATM    2  C   LIG     1      15.106  30.830  14.562  1.00  0.00     0.015 A 
HETATM    3  C   LIG     1      13.993  30.237  15.189  1.00  0.00     0.001 A 
HETATM    4  C   LIG     1      13.422  30.826  16.342  1.00  0.00     0.002 A 
HETATM    5  C   LIG     1      13.957  32.013  16.878  1.00  0.00     0.032 A 
HETATM    6  C   LIG     1      15.058  32.571  16.231  1.00  0.00     0.061 A 
HETATM    7  N   LIG     1      15.738  33.683  16.548  1.00  0.00    -0.278 N 
HETATM    8  N   LIG     1      16.716  33.842  15.661  1.00  0.00    -0.186 NA
HETATM    9  C   LIG     1      16.660  32.821  14.771  1.00  0.00     0.152 A 
HETATM   10  H   LIG     1      15.550  34.329  17.346  1.00  0.00     0.189 HD
ENDROOT
TORSDOF 0
ENDMDL
MODEL 11
REMARK VINA RESULT:      -5.6      1.576      2.389
REMARK  0 active torsions:
REMARK  status: ('A' for Active; 'I' for Inactive)
ROOT
HETATM    1  C   LIG     1      16.811  37.466  22.489  1.00  0.00     0.011 A 
HETATM    2  C   LIG     1      16.848  36.367  21.635  1.00  0.00     0.015 A 
HETATM    3  C   LIG     1      17.009  35.096  22.218  1.00  0.00     0.001 A 
HETATM    4  C   LIG     1      17.126  34.961  23.622  1.00  0.00     0.002 A 
HETATM    5  C   LIG     1      17.083  36.095  24.455  1.00  0.00     0.032 A 
HETATM    6  C   LIG     1      16.923  37.336  23.843  1.00  0.00     0.061 A 
HETATM    7  N   LIG     1      16.854  38.547  24.415  1.00  0.00    -0.278 N 
HETATM    8  N   LIG     1      16.699  39.455  23.456  1.00  0.00    -0.186 NA
HETATM    9  C   LIG     1      16.669  38.817  22.260  1.00  0.00     0.152 A 
HETATM   10  H   LIG     1      16.910  38.765  25.435  1.00  0.00     0.189 HD
ENDROOT
TORSDOF 0
ENDMDL
MODEL 12
REMARK VINA RESULT:      -5.4     10.877     11.969
REMARK  0 active torsions:
REMARK  status: ('A' for Active; 'I' for Inactive)
ROOT
HETATM    1  C   LIG     1      15.338  31.901  15.303  1.00  0.00     0.011 A 
HETATM    2  C   LIG     1      14.863  32.325  16.542  1.00  0.00     0.015 A 
HETATM    3  C   LIG     1      13.720  31.681  17.054  1.00  0.00     0.001 A 
HETATM    4  C   LIG     1      13.093  30.644  16.322  1.00  0.00     0.002 A 
HETATM    5  C   LIG     1      13.603  30.241  15.073  1.00  0.00     0.032 A 
HETATM    6  C   LIG     1      14.735  30.901  14.598  1.00  0.00     0.061 A 
HETATM    7  N   LIG     1      15.398  30.701  13.450  1.00  0.00    -0.278 N 
HETATM    8  N   LIG     1      16.418  31.553  13.402  1.00  0.00    -0.186 NA
HETATM    9  C   LIG     1      16.405  32.304  14.531  1.00  0.00     0.152 A 
HETATM   10  H   LIG     1      15.172  30.003  12.706  1.00  0.00     0.189 HD
ENDROOT
TORSDOF 0
ENDMDL
MODEL 13
REMARK VINA RESULT:      -5.3     10.210     11.248
REMARK  0 active torsions:
REMARK  status: ('A' for Active; 'I' for Inactive)
ROOT
HETATM    1  C   LIG     1      14.245  31.065  15.470  1.00  0.00     0.011 A 
HETATM    2  C   LIG     1      15.194  31.013  14.453  1.00  0.00     0.015 A 
HETATM    3  C   LIG     1      16.254  31.939  14.505  1.00  0.00     0.001 A 
HETATM    4  C   LIG     1      16.334  32.878  15.561  1.00  0.00     0.002 A 
HETATM    5  C   LIG     1      15.355  32.900  16.574  1.00  0.00     0.032 A 
HETATM    6  C   LIG     1      14.322  31.970  16.488  1.00  0.00     0.061 A 
HETATM    7  N   LIG     1      13.283  31.796  17.320  1.00  0.00    -0.278 N 
HETATM    8  N   LIG     1      12.540  30.795  16.857  1.00  0.00    -0.186 NA
HETATM    9  C   LIG     1      13.109  30.327  15.719  1.00  0.00     0.152 A 
HETATM   10  H   LIG     1      13.074  32.339  18.187  1.00  0.00     0.189 HD
ENDROOT
TORSDOF 0
ENDMDL
MODEL 14
REMARK VINA RESULT:      -5.3     10.740     11.765
REMARK  0 active torsions:
REMARK  status: ('A' for Active; 'I' for Inactive)
ROOT
HETATM    1  C   LIG     1      14.353  30.732  15.194  1.00  0.00     0.011 A 
HETATM    2  C   LIG     1      13.422  30.789  16.228  1.00  0.00     0.015 A 
HETATM    3  C   LIG     1      13.538  31.848  17.148  1.00  0.00     0.001 A 
HETATM    4  C   LIG     1      14.569  32.809  17.010  1.00  0.00     0.002 A 
HETATM    5  C   LIG     1      15.492  32.720  15.950  1.00  0.00     0.032 A 
HETATM    6  C   LIG     1      15.346  31.658  15.059  1.00  0.00     0.061 A 
HETATM    7  N   LIG     1      16.092  31.361  13.984  1.00  0.00    -0.278 N 
HETATM    8  N   LIG     1      15.597  30.261  13.423  1.00  0.00    -0.186 NA
HETATM    9  C   LIG     1      14.526  29.853  14.148  1.00  0.00     0.152 A 
HETATM   10  H   LIG     1      16.921  31.886  13.630  1.00  0.00     0.189 HD
ENDROOT
TORSDOF 0
ENDMDL
MODEL 15
REMARK VINA RESULT:      -4.5      1.936      3.683
REMARK  0 active torsions:
REMARK  status: ('A' for Active; 'I' for Inactive)
ROOT
HETATM    1  C   LIG     1      18.253  37.914  24.450  1.00  0.00     0.011 A 
HETATM    2  C   LIG     1      18.720  38.818  23.500  1.00  0.00     0.015 A 
HETATM    3  C   LIG     1      17.874  39.113  22.413  1.00  0.00     0.001 A 
HETATM    4  C   LIG     1      16.601  38.503  22.309  1.00  0.00     0.002 A 
HETATM    5  C   LIG     1      16.162  37.593  23.291  1.00  0.00     0.032 A 
HETATM    6  C   LIG     1      17.026  37.327  24.351  1.00  0.00     0.061 A 
HETATM    7  N   LIG     1      16.838  36.506  25.396  1.00  0.00    -0.278 N 
HETATM    8  N   LIG     1      17.920  36.555  26.167  1.00  0.00    -0.186 NA
HETATM    9  C   LIG     1      18.808  37.415  25.608  1.00  0.00     0.152 A 
HETATM   10  H   LIG     1      15.996  35.921  25.592  1.00  0.00     0.189 HD
ENDROOT
TORSDOF 0
ENDMDL
MODEL 16
REMARK VINA RESULT:      -4.4     16.477     16.833
REMARK  0 active torsions:
REMARK  status: ('A' for Active; 'I' for Inactive)
ROOT
HETATM    1  C   LIG     1       4.070  40.265  34.019  1.00  0.00     0.011 A 
HETATM    2  C   LIG     1       3.537  39.974  32.766  1.00  0.00     0.015 A 
HETATM    3  C   LIG     1       3.232  41.059  31.922  1.00  0.00     0.001 A 
HETATM    4  C   LIG     1       3.467  42.388  32.349  1.00  0.00     0.002 A 
HETATM    5  C   LIG     1       4.009  42.644  33.623  1.00  0.00     0.032 A 
HETATM    6  C   LIG     1       4.298  41.546  34.430  1.00  0.00     0.061 A 
HETATM    7  N   LIG     1       4.812  41.532  35.669  1.00  0.00    -0.278 N 
HETATM    8  N   LIG     1       4.921  40.267  36.063  1.00  0.00    -0.186 NA
HETATM    9  C   LIG     1       4.471  39.465  35.066  1.00  0.00     0.152 A 
HETATM   10  H   LIG     1       5.087  42.358  36.245  1.00  0.00     0.189 HD
ENDROOT
TORSDOF 0
ENDMDL
MODEL 17
REMARK VINA RESULT:      -4.1     16.148     16.569
REMARK  0 active torsions:
REMARK  status: ('A' for Active; 'I' for Inactive)
ROOT
HETATM    1  C   LIG     1       3.689  41.283  32.951  1.00  0.00     0.011 A 
HETATM    2  C   LIG     1       3.423  40.005  32.468  1.00  0.00     0.015 A 
HETATM    3  C   LIG     1       3.047  39.886  31.116  1.00  0.00     0.001 A 
HETATM    4  C   LIG     1       2.952  41.035  30.295  1.00  0.00     0.002 A 
HETATM    5  C   LIG     1       3.230  42.313  30.818  1.00  0.00     0.032 A 
HETATM    6  C   LIG     1       3.597  42.391  32.160  1.00  0.00     0.061 A 
HETATM    7  N   LIG     1       3.906  43.480  32.879  1.00  0.00    -0.278 N 
HETATM    8  N   LIG     1       4.196  43.095  34.118  1.00  0.00    -0.186 NA
HETATM    9  C   LIG     1       4.070  41.747  34.190  1.00  0.00     0.152 A 
HETATM   10  H   LIG     1       3.924  44.470  32.546  1.00  0.00     0.189 HD
ENDROOT
TORSDOF 0
ENDMDL
MODEL 18
REMARK VINA RESULT:      -4.1     13.483     14.385
REMARK  0 active torsions:
REMARK  status: ('A' for Active; 'I' for Inactive)
ROOT
HETATM    1  C   LIG     1      22.220  35.718  11.184  1.00  0.00     0.011 A 
HETATM    2  C   LIG     1      23.174  36.682  10.869  1.00  0.00     0.015 A 
HETATM    3  C   LIG     1      24.098  37.034  11.872  1.00  0.00     0.001 A 
HETATM    4  C   LIG     1      24.041  36.419  13.146  1.00  0.00     0.002 A 
HETATM    5  C   LIG     1      23.062  35.448  13.428  1.00  0.00     0.032 A 
HETATM    6  C   LIG     1      22.165  35.125  12.412  1.00  0.00     0.061 A 
HETATM    7  N   LIG     1      21.155  34.243  12.437  1.00  0.00    -0.278 N 
HETATM    8  N   LIG     1      20.558  34.256  11.249  1.00  0.00    -0.186 NA
HETATM    9  C   LIG     1      21.194  35.155  10.458  1.00  0.00     0.152 A 
HETATM   10  H   LIG     1      20.868  33.639  13.239  1.00  0.00     0.189 HD
ENDROOT
TORSDOF 0
ENDMDL
MODEL 19
REMARK VINA RESULT:      -4.0     16.446     16.905
REMARK  0 active torsions:
REMARK  status: ('A' for Active; 'I' for Inactive)
ROOT
HETATM    1  C   LIG     1       3.566  41.895  32.274  1.00  0.00     0.011 A 
HETATM    2  C   LIG     1       3.380  42.959  31.396  1.00  0.00     0.015 A 
HETATM    3  C   LIG     1       3.620  44.257  31.888  1.00  0.00     0.001 A 
HETATM    4  C   LIG     1       4.034  44.451  33.227  1.00  0.00     0.002 A 
HETATM    5  C   LIG     1       4.213  43.350  34.087  1.00  0.00     0.032 A 
HETATM    6  C   LIG     1       3.966  42.081  33.565  1.00  0.00     0.061 A 
HETATM    7  N   LIG     1       4.063  40.892  34.179  1.00  0.00    -0.278 N 
HETATM    8  N   LIG     1       3.735  39.944  33.307  1.00  0.00    -0.186 NA
HETATM    9  C   LIG     1       3.424  40.533  32.126  1.00  0.00     0.152 A 
HETATM   10  H   LIG     1       4.347  40.717  35.168  1.00  0.00     0.189 HD
ENDROOT
TORSDOF 0
ENDMDL
