REMARK  0 active torsions:
REMARK  status: ('A' for Active; 'I' for Inactive)
ROOT
HETATM    1  C   LIG     1       0.580   0.667  -0.013  1.00  0.00     0.011 A 
HETATM    2  C   LIG     1      -0.557   1.467   0.066  1.00  0.00     0.015 A 
HETATM    3  C   LIG     1      -1.806   0.818   0.113  1.00  0.00     0.001 A 
HETATM    4  C   LIG     1      -1.881  -0.595   0.081  1.00  0.00     0.002 A 
HETATM    5  C   LIG     1      -0.709  -1.372   0.002  1.00  0.00     0.032 A 
HETATM    6  C   LIG     1       0.508  -0.695  -0.043  1.00  0.00     0.061 A 
HETATM    7  N   LIG     1       1.746  -1.206  -0.120  1.00  0.00    -0.278 N 
HETATM    8  N   LIG     1       2.614  -0.199  -0.139  1.00  0.00    -0.186 NA
HETATM    9  C   LIG     1       1.923   0.966  -0.074  1.00  0.00     0.152 A 
HETATM   10  H   LIG     1       2.008  -2.216  -0.159  1.00  0.00     0.189 HD
ENDROOT
TORSDOF 0
