REMARK  5 active torsions:
REMARK  status: ('A' for Active; 'I' for Inactive)
REMARK    1  A    between atoms: O_1  and  C_2 
REMARK    2  A    between atoms: C_2  and  C_3 
REMARK    3  A    between atoms: C_2  and  C_9 
REMARK    4  A    between atoms: C_9  and  C_10 
REMARK    5  A    between atoms: C_9  and  O_16 
ROOT
HETATM    1  C   LIG     1       0.508   0.276  -0.541  1.00  0.00     0.184 C 
ENDROOT
BRANCH   1   2
HETATM    2  O   LIG     1       0.419   1.679  -0.628  1.00  0.00    -0.388 OA
HETATM    3  H   LIG     1       0.499   2.051   0.288  1.00  0.00     0.210 HD
ENDBRANCH   1   2
BRANCH   1   4
HETATM    4  C   LIG     1       1.934  -0.141  -0.230  1.00  0.00    -0.027 A 
HETATM    5  C   LIG     1       2.642  -0.958  -1.131  1.00  0.00     0.010 A 
HETATM    6  C   LIG     1       3.955  -1.349  -0.850  1.00  0.00     0.001 A 
HETATM    7  C   LIG     1       4.575  -0.930   0.329  1.00  0.00     0.000 A 
HETATM    8  C   LIG     1       3.883  -0.119   1.231  1.00  0.00     0.001 A 
HETATM    9  C   LIG     1       2.570   0.275   0.956  1.00  0.00     0.010 A 
ENDBRANCH   1   4
BRANCH   1  10
HETATM   10  C   LIG     1      -0.497  -0.296   0.489  1.00  0.00     0.184 C 
BRANCH  10  11
HETATM   11  C   LIG     1      -1.912   0.137   0.163  1.00  0.00    -0.027 A 
HETATM   12  C   LIG     1      -2.599   1.015   1.020  1.00  0.00     0.010 A 
HETATM   13  C   LIG     1      -3.905   1.416   0.721  1.00  0.00     0.001 A 
HETATM   14  C   LIG     1      -4.537   0.944  -0.432  1.00  0.00     0.000 A 
HETATM   15  C   LIG     1      -3.864   0.068  -1.288  1.00  0.00     0.001 A 
HETATM   16  C   LIG     1      -2.558  -0.336  -0.994  1.00  0.00     0.010 A 
ENDBRANCH  10  11
BRANCH  10  17
HETATM   17  O   LIG     1      -0.419  -1.699   0.490  1.00  0.00    -0.388 OA
HETATM   18  H   LIG     1      -0.881  -2.011   1.312  1.00  0.00     0.210 HD
ENDBRANCH  10  17
ENDBRANCH   1  10
TORSDOF 5
